REMARK  Name = ZINC21663173
REMARK  6 active torsions:
REMARK  status: ('A' for Active; 'I' for Inactive)
REMARK    1  A    between atoms: C_1  and  C_2
REMARK    2  A    between atoms: C_13  and  S_17
REMARK    3  A    between atoms: C_14  and  C_16
REMARK    4  A    between atoms: S_17  and  N_20
REMARK    5  A    between atoms: N_20  and  C_21
REMARK    6  A    between atoms: C_25  and  C_27
REMARK                            x       y       z     vdW  Elec       q    Type
REMARK                         _______ _______ _______ _____ _____    ______ ____
ROOT
ATOM      1  C   UNL     1       3.456  -2.714  -1.682  0.00  0.00    +0.044 C 
ATOM      2  C   UNL     1       2.696  -1.452  -1.363  0.00  0.00    -0.049 A 
ATOM      3  C   UNL     1       3.340  -0.226  -1.364  0.00  0.00    +0.005 A 
ATOM      4  C   UNL     1       2.664   0.935  -1.075  0.00  0.00    +0.028 A 
ATOM      5  C   UNL     1       1.292   0.911  -0.769  0.00  0.00    +0.066 A 
ATOM      6  C   UNL     1       0.670  -0.341  -0.777  0.00  0.00    +0.040 A 
ATOM      7  C   UNL     1       1.345  -1.504  -1.066  0.00  0.00    +0.020 A 
ATOM      8  S   UNL     1      -1.013   0.037  -0.354  0.00  0.00    -0.049 S 
ATOM      9  C   UNL     1      -0.829   1.799  -0.188  0.00  0.00    +0.181 A 
ATOM     10  N   UNL     1       0.491   2.016  -0.459  0.00  0.00    -0.253 N 
ATOM     11  C   UNL     1       0.922   3.313  -0.404  0.00  0.00    +0.286 A 
ATOM     12  O   UNL     1       2.090   3.580  -0.634  0.00  0.00    -0.265 OA
ATOM     13  C   UNL     1       0.021   4.331  -0.081  0.00  0.00    +0.194 A 
ATOM     14  C   UNL     1      -1.286   4.025   0.176  0.00  0.00    +0.073 A 
ATOM     15  N   UNL     1      -1.677   2.754   0.110  0.00  0.00    -0.226 NA
ATOM     16  C   UNL     1      -2.271   5.111   0.526  0.00  0.00    +0.068 C 
ENDROOT
BRANCH  13  17
ATOM     17  S   UNL     1       0.568   6.005  -0.008  0.00  0.00    +0.079 S 
ATOM     18  O   UNL     1      -0.119   6.609   1.079  0.00  0.00    -0.150 OA
ATOM     19  O   UNL     1       1.986   5.972  -0.089  0.00  0.00    -0.150 OA
BRANCH  17  20
ATOM     20  N   UNL     1       0.032   6.755  -1.383  0.00  0.00    -0.216 N 
ATOM     21  H   UNL     1      -0.693   7.579  -1.313  0.00  0.00    +0.174 HD
BRANCH  20  22
ATOM     22  C   UNL     1       0.502   6.343  -2.633  0.00  0.00    +0.048 A 
ATOM     23  C   UNL     1       1.861   6.139  -2.833  0.00  0.00    +0.025 A 
ATOM     24  C   UNL     1       2.322   5.726  -4.068  0.00  0.00    +0.017 A 
ATOM     25  C   UNL     1       1.432   5.526  -5.108  0.00  0.00    +0.021 A 
ATOM     26  C   UNL     1       0.078   5.733  -4.913  0.00  0.00    -0.035 A 
ATOM     27  C   UNL     1      -0.389   6.141  -3.679  0.00  0.00    +0.029 A 
ATOM     28  C   UNL     1      -0.888   5.513  -6.049  0.00  0.00    +0.045 C 
ATOM     29 BR   UNL     1       2.067   4.967  -6.799  0.00  0.00    -0.050 Br
ENDBRANCH  20  22
ENDBRANCH  17  20
ENDBRANCH  13  17
TORSDOF 3
