REMARK  Name = ZINC16012256
REMARK  4 active torsions:
REMARK  status: ('A' for Active; 'I' for Inactive)
REMARK    1  A    between atoms: C_3  and  C_10
REMARK    2  A    between atoms: C_5  and  N_7
REMARK    3  A    between atoms: N_28  and  C_31
REMARK    4  A    between atoms: C_32  and  C_40
REMARK                            x       y       z     vdW  Elec       q    Type
REMARK                         _______ _______ _______ _____ _____    ______ ____
ROOT
ATOM      1  C   UNL     1       8.215   0.569  -1.092  0.00  0.00    +0.094 C 
ATOM      2  N   UNL     1       8.434  -0.738  -1.088  0.00  0.00    -0.088 NA
ATOM      3  O   UNL     1       7.196  -1.477  -0.870  0.00  0.00    -0.389 OA
ATOM      4  C   UNL     1       6.523  -0.586  -0.081  0.00  0.00    +0.217 C 
ATOM      5  C   UNL     1       6.738   0.724  -0.929  0.00  0.00    +0.089 C 
ATOM      6  C   UNL     1       6.139   1.790   0.037  0.00  0.00    +0.015 C 
ATOM      7  C   UNL     1       6.102   1.008   1.409  0.00  0.00    +0.013 C 
ATOM      8  C   UNL     1       5.398  -0.340   0.841  0.00  0.00    +0.046 C 
ATOM      9  C   UNL     1       4.207   0.419   0.425  0.00  0.00    +0.095 C 
ATOM     10  C   UNL     1       4.690   1.602  -0.496  0.00  0.00    +0.092 C 
ATOM     11  C   UNL     1       3.569   2.513  -0.124  0.00  0.00    +0.231 C 
ATOM     12  O   UNL     1       3.618   3.713   0.045  0.00  0.00    -0.274 OA
ATOM     13  N   UNL     1       2.469   1.694  -0.013  0.00  0.00    -0.202 N 
ATOM     14  C   UNL     1       2.807   0.354   0.076  0.00  0.00    +0.231 C 
ATOM     15  O   UNL     1       2.108  -0.622  -0.094  0.00  0.00    -0.274 OA
ENDROOT
BRANCH  13  16
ATOM     16  C   UNL     1       1.158   2.162   0.003  0.00  0.00    +0.099 A 
ATOM     17  C   UNL     1       0.325   2.425  -1.073  0.00  0.00    +0.084 A 
ATOM     18  C   UNL     1      -1.010   2.917  -0.785  0.00  0.00    -0.018 A 
ATOM     19  C   UNL     1      -1.302   3.055   0.527  0.00  0.00    -0.004 A 
ATOM     20  S   UNL     1       0.172   2.556   1.372  0.00  0.00    -0.076 S 
ATOM     21  C   UNL     1      -2.590   3.535   1.121  0.00  0.00    +0.043 C 
ATOM     22  C   UNL     1      -3.418   4.197   0.009  0.00  0.00    +0.005 C 
ATOM     23  C   UNL     1      -3.430   3.273  -1.213  0.00  0.00    +0.005 C 
ATOM     24  C   UNL     1      -2.043   3.243  -1.857  0.00  0.00    +0.037 C 
BRANCH  17  25
ATOM     25  C   UNL     1       0.768   2.225  -2.420  0.00  0.00    +0.102 C 
ATOM     26  N   UNL     1       1.119   2.067  -3.489  0.00  0.00    -0.191 NA
ENDBRANCH  17  25
ENDBRANCH  13  16
BRANCH   1  29
ATOM     27  C   UNL     1       9.761   3.981  -1.342  0.00  0.00    +0.003 A 
ATOM     28  C   UNL     1       8.818   2.981  -1.220  0.00  0.00    +0.010 A 
ATOM     29  C   UNL     1       9.218   1.643  -1.229  0.00  0.00    +0.002 A 
ATOM     30  C   UNL     1      10.570   1.327  -1.374  0.00  0.00    +0.042 A 
ATOM     31  C   UNL     1      11.502   2.336  -1.502  0.00  0.00    +0.127 A 
ATOM     32  C   UNL     1      11.099   3.660  -1.486  0.00  0.00    +0.033 A 
BRANCH  31  33
ATOM     33  N   UNL     1      12.936   2.002  -1.656  0.00  0.00    +0.056 N 
ATOM     34  O   UNL     1      13.291   0.837  -1.671  0.00  0.00    -0.126 OA
ATOM     35  O   UNL     1      13.759   2.892  -1.769  0.00  0.00    -0.126 OA
ENDBRANCH  31  33
ENDBRANCH   1  29
TORSDOF 4
