REMARK  Name = ZINC64930513
REMARK  6 active torsions:
REMARK  status: ('A' for Active; 'I' for Inactive)
REMARK    1  A    between atoms: C_1  and  C_2
REMARK    2  A    between atoms: C_5  and  N_9
REMARK    3  A    between atoms: C_7  and  C_8
REMARK    4  A    between atoms: C_16  and  C_18
REMARK    5  A    between atoms: C_21  and  C_23
REMARK    6  A    between atoms: N_25  and  C_26
REMARK                            x       y       z     vdW  Elec       q    Type
REMARK                         _______ _______ _______ _____ _____    ______ ____
ROOT
ATOM      1  N   UNL     1      -0.203  -4.095   0.222  0.00  0.00    -0.269 N 
ATOM      2  C   UNL     1      -0.214  -4.655  -1.004  0.00  0.00    +0.307 C 
ATOM      3  O   UNL     1      -0.281  -3.951  -1.994  0.00  0.00    -0.252 OA
ATOM      4  N   UNL     1      -0.150  -5.995  -1.133  0.00  0.00    -0.276 N 
ATOM      5  C   UNL     1      -0.073  -6.962  -0.023  0.00  0.00    +0.110 C 
ATOM      6  C   UNL     1       0.586  -8.222  -0.640  0.00  0.00    +0.021 C 
ATOM      7  C   UNL     1      -0.037  -8.235  -2.061  0.00  0.00    +0.031 C 
ATOM      8  C   UNL     1      -0.153  -6.735  -2.404  0.00  0.00    +0.135 C 
ATOM      9  H   UNL     1      -0.073  -4.649   1.007  0.00  0.00    +0.156 HD
ENDROOT
BRANCH   1  14
ATOM     10  C   UNL     1      -0.922   1.504   0.788  0.00  0.00    +0.044 C 
ATOM     11  C   UNL     1      -0.731   0.017   0.638  0.00  0.00    -0.047 A 
ATOM     12  C   UNL     1      -1.384  -0.664  -0.373  0.00  0.00    +0.005 A 
ATOM     13  C   UNL     1      -1.211  -2.026  -0.514  0.00  0.00    +0.023 A 
ATOM     14  C   UNL     1      -0.380  -2.713   0.361  0.00  0.00    +0.035 A 
ATOM     15  C   UNL     1       0.274  -2.027   1.375  0.00  0.00    +0.027 A 
ATOM     16  C   UNL     1       0.102  -0.663   1.507  0.00  0.00    -0.046 A 
ATOM     17  C   UNL     1       0.816   0.084   2.604  0.00  0.00    +0.044 C 
ENDBRANCH   1  14
BRANCH   8  18
ATOM     18  C   UNL     1      -1.439  -6.474  -3.146  0.00  0.00    +0.123 A 
ATOM     19  N   UNL     1      -2.672  -6.433  -2.680  0.00  0.00    -0.144 NA
ATOM     20  N   UNL     1      -3.663  -6.200  -3.429  0.00  0.00    -0.136 NA
ATOM     21  C   UNL     1      -3.451  -5.989  -4.725  0.00  0.00    +0.187 A 
ATOM     22  S   UNL     1      -1.671  -6.151  -4.784  0.00  0.00    -0.044 S 
BRANCH  21  23
ATOM     23  C   UNL     1      -4.409  -5.701  -5.805  0.00  0.00    +0.275 C 
ATOM     24  O   UNL     1      -4.013  -5.537  -6.943  0.00  0.00    -0.268 OA
ATOM     25  N   UNL     1      -5.727  -5.617  -5.532  0.00  0.00    -0.280 N 
ATOM     26  H   UNL     1      -6.037  -5.676  -4.614  0.00  0.00    +0.155 HD
BRANCH  25  27
ATOM     27  C   UNL     1      -6.647  -5.447  -6.572  0.00  0.00    +0.034 A 
ATOM     28  C   UNL     1      -7.800  -4.700  -6.365  0.00  0.00    +0.026 A 
ATOM     29  C   UNL     1      -8.707  -4.533  -7.393  0.00  0.00    +0.040 A 
ATOM     30  C   UNL     1      -8.468  -5.109  -8.629  0.00  0.00    +0.124 A 
ATOM     31  C   UNL     1      -7.319  -5.854  -8.838  0.00  0.00    +0.040 A 
ATOM     32  C   UNL     1      -6.407  -6.019  -7.814  0.00  0.00    +0.026 A 
ATOM     33  F   UNL     1      -9.356  -4.944  -9.633  0.00  0.00    -0.205 F 
ENDBRANCH  25  27
ENDBRANCH  21  23
ENDBRANCH   8  18
TORSDOF 4
