REMARK  Name = ZINC08817451
REMARK  11 active torsions:
REMARK  status: ('A' for Active; 'I' for Inactive)
REMARK    1  A    between atoms: C_1  and  C_2
REMARK    2  A    between atoms: C_2  and  O_3
REMARK    3  A    between atoms: O_3  and  C_4
REMARK    4  A    between atoms: C_4  and  C_6
REMARK    5  A    between atoms: C_7  and  C_8
REMARK    6  A    between atoms: C_7  and  N_19
REMARK    7  A    between atoms: C_8  and  S_9
REMARK    8  A    between atoms: S_9  and  C_10
REMARK    9  A    between atoms: C_24  and  C_25
REMARK   10  A    between atoms: C_24  and  C_31
REMARK   11  A    between atoms: C_24  and  N_68
REMARK                            x       y       z     vdW  Elec       q    Type
REMARK                         _______ _______ _______ _____ _____    ______ ____
ROOT
ATOM      1  N   UNL     1       3.139  -0.306   1.008  0.00  0.00    -0.336 N 
ATOM      2  C   UNL     1       1.774  -0.835   1.150  0.00  0.00    +0.086 C 
ATOM      3  C   UNL     1       1.015  -0.582  -0.156  0.00  0.00    -0.058 C 
ATOM      4  C   UNL     1       2.484   1.255  -0.746  0.00  0.00    -0.058 C 
ATOM      5  C   UNL     1       3.304   1.077   0.536  0.00  0.00    +0.086 C 
ATOM      6  N   UNL     1       1.085   0.861  -0.474  0.00  0.00    +0.389 N 
ATOM      7  H   UNL     1       0.739   1.396   0.331  0.00  0.00    -0.080 HD
ENDROOT
BRANCH   1   9
ATOM      8  C   UNL     1       5.468  -0.556   1.226  0.00  0.00    +0.111 C 
ATOM      9  C   UNL     1       4.226  -1.079   1.305  0.00  0.00    +0.023 C 
BRANCH   8  10
ATOM     10  C   UNL     1       6.596  -1.402   1.301  0.00  0.00    +0.333 C 
ATOM     11  O   UNL     1       6.455  -2.610   1.246  0.00  0.00    -0.246 OA
BRANCH  10  12
ATOM     12  O   UNL     1       7.830  -0.872   1.433  0.00  0.00    -0.462 OA
BRANCH  12  14
ATOM     13  C   UNL     1      10.233  -1.006   1.651  0.00  0.00    +0.048 C 
ATOM     14  C   UNL     1       8.925  -1.787   1.503  0.00  0.00    +0.229 C 
ENDBRANCH  12  14
ENDBRANCH  10  12
ENDBRANCH   8  10
BRANCH   9  15
ATOM     15  C   UNL     1       4.037  -2.515   1.722  0.00  0.00    +0.127 C 
BRANCH  15  16
ATOM     16  S   UNL     1       3.766  -3.538   0.254  0.00  0.00    -0.093 S 
BRANCH  16  17
ATOM     17  C   UNL     1       3.582  -5.118   1.012  0.00  0.00    +0.136 A 
ATOM     18  N   UNL     1       3.359  -6.283   0.446  0.00  0.00    -0.233 NA
ATOM     19  C   UNL     1       3.240  -7.425   1.159  0.00  0.00    +0.079 A 
ATOM     20  C   UNL     1       3.002  -8.733   0.678  0.00  0.00    +0.029 A 
ATOM     21  C   UNL     1       2.908  -9.791   1.544  0.00  0.00    +0.002 A 
ATOM     22  C   UNL     1       3.041  -9.620   2.914  0.00  0.00    +0.001 A 
ATOM     23  C   UNL     1       3.274  -8.354   3.419  0.00  0.00    +0.017 A 
ATOM     24  C   UNL     1       3.370  -7.289   2.559  0.00  0.00    +0.040 A 
ATOM     25  S   UNL     1       3.659  -5.545   2.746  0.00  0.00    -0.061 S 
ENDBRANCH  16  17
ENDBRANCH  15  16
ENDBRANCH   9  15
ENDBRANCH   1   9
BRANCH   6  26
ATOM     26  C   UNL     1       0.239   1.160  -1.648  0.00  0.00    -0.007 C 
BRANCH  26  27
ATOM     27  C   UNL     1      -1.181   0.757  -1.343  0.00  0.00    -0.057 A 
ATOM     28  C   UNL     1      -1.750   1.097  -0.131  0.00  0.00    +0.002 A 
ATOM     29  C   UNL     1      -3.054   0.731   0.147  0.00  0.00    +0.000 A 
ATOM     30  C   UNL     1      -3.785   0.017  -0.783  0.00  0.00    +0.000 A 
ATOM     31  C   UNL     1      -3.213  -0.329  -1.994  0.00  0.00    +0.000 A 
ATOM     32  C   UNL     1      -1.911   0.041  -2.274  0.00  0.00    +0.002 A 
ENDBRANCH  26  27
BRANCH  26  33
ATOM     33  C   UNL     1       0.293   2.640  -1.923  0.00  0.00    -0.057 A 
ATOM     34  C   UNL     1       0.178   3.542  -0.882  0.00  0.00    +0.002 A 
ATOM     35  C   UNL     1       0.232   4.900  -1.134  0.00  0.00    +0.000 A 
ATOM     36  C   UNL     1       0.391   5.357  -2.429  0.00  0.00    +0.000 A 
ATOM     37  C   UNL     1       0.499   4.456  -3.471  0.00  0.00    +0.000 A 
ATOM     38  C   UNL     1       0.450   3.097  -3.219  0.00  0.00    +0.002 A 
ENDBRANCH  26  33
ENDBRANCH   6  26
TORSDOF 10
