REMARK  Name = ZINC40322853
REMARK  8 active torsions:
REMARK  status: ('A' for Active; 'I' for Inactive)
REMARK    1  A    between atoms: C_1  and  C_2
REMARK    2  A    between atoms: C_5  and  S_8
REMARK    3  A    between atoms: S_8  and  C_11
REMARK    4  A    between atoms: C_14  and  C_16
REMARK    5  A    between atoms: N_18  and  C_19
REMARK    6  A    between atoms: C_19  and  C_20
REMARK    7  A    between atoms: C_20  and  C_22
REMARK    8  A    between atoms: C_20  and  N_28
REMARK                            x       y       z     vdW  Elec       q    Type
REMARK                         _______ _______ _______ _____ _____    ______ ____
ROOT
ATOM      1  C   UNL     1       7.914  -5.118  -2.905  0.00  0.00    +0.279 C 
ATOM      2  O   UNL     1       7.834  -5.974  -2.044  0.00  0.00    -0.267 OA
ATOM      3  N   UNL     1       7.034  -5.105  -3.927  0.00  0.00    -0.310 N 
ATOM      4  H   UNL     1       7.098  -4.423  -4.613  0.00  0.00    +0.149 HD
ENDROOT
BRANCH   1   8
ATOM      5  C   UNL     1      10.219  -2.368  -3.329  0.00  0.00    +0.246 A 
ATOM      6  C   UNL     1      10.713  -2.889  -2.183  0.00  0.00    +0.070 A 
ATOM      7  C   UNL     1       9.918  -3.998  -1.857  0.00  0.00    +0.056 A 
ATOM      8  C   UNL     1       8.967  -4.100  -2.832  0.00  0.00    +0.192 A 
ATOM      9  O   UNL     1       9.164  -3.098  -3.714  0.00  0.00    -0.433 OA
BRANCH   5  10
ATOM     10  S   UNL     1      10.854  -0.958  -4.172  0.00  0.00    +0.058 S 
ATOM     11  O   UNL     1      11.552  -0.186  -3.205  0.00  0.00    -0.161 OA
ATOM     12  O   UNL     1       9.783  -0.428  -4.941  0.00  0.00    -0.161 OA
BRANCH  10  17
ATOM     13  C   UNL     1      14.981  -2.935  -8.105  0.00  0.00    +0.044 C 
ATOM     14  C   UNL     1      13.950  -2.441  -7.122  0.00  0.00    -0.050 A 
ATOM     15  C   UNL     1      12.627  -2.332  -7.506  0.00  0.00    +0.005 A 
ATOM     16  C   UNL     1      11.681  -1.879  -6.605  0.00  0.00    +0.028 A 
ATOM     17  C   UNL     1      12.059  -1.536  -5.320  0.00  0.00    +0.097 A 
ATOM     18  C   UNL     1      13.383  -1.646  -4.936  0.00  0.00    +0.028 A 
ATOM     19  C   UNL     1      14.327  -2.103  -5.836  0.00  0.00    +0.005 A 
ENDBRANCH  10  17
ENDBRANCH   5  10
ENDBRANCH   1   8
BRANCH   3  20
ATOM     20  C   UNL     1       5.982  -6.122  -4.000  0.00  0.00    +0.094 C 
BRANCH  20  21
ATOM     21  C   UNL     1       5.211  -5.964  -5.312  0.00  0.00    -0.020 C 
BRANCH  21  22
ATOM     22  N   UNL     1       4.734  -4.580  -5.437  0.00  0.00    +0.385 N 
ATOM     23  C   UNL     1       3.836  -4.286  -4.304  0.00  0.00    -0.078 C 
ATOM     24  C   UNL     1       3.833  -2.795  -4.077  0.00  0.00    -0.019 C 
ATOM     25  C   UNL     1       2.642  -2.119  -4.783  0.00  0.00    -0.002 C 
ATOM     26  C   UNL     1       2.394  -2.716  -6.183  0.00  0.00    -0.002 C 
ATOM     27  C   UNL     1       3.675  -2.973  -6.933  0.00  0.00    -0.019 C 
ATOM     28  C   UNL     1       4.123  -4.428  -6.683  0.00  0.00    -0.078 C 
ATOM     29  H   UNL     1       5.528  -3.959  -5.388  0.00  0.00    -0.081 HD
ENDBRANCH  21  22
BRANCH  21  30
ATOM     30  C   UNL     1       6.120  -6.288  -6.470  0.00  0.00    -0.059 A 
ATOM     31  C   UNL     1       7.025  -5.347  -6.923  0.00  0.00    +0.002 A 
ATOM     32  C   UNL     1       7.859  -5.645  -7.985  0.00  0.00    +0.000 A 
ATOM     33  C   UNL     1       7.787  -6.883  -8.594  0.00  0.00    +0.000 A 
ATOM     34  C   UNL     1       6.882  -7.825  -8.141  0.00  0.00    +0.000 A 
ATOM     35  C   UNL     1       6.051  -7.529  -7.076  0.00  0.00    +0.002 A 
ENDBRANCH  21  30
ENDBRANCH  20  21
ENDBRANCH   3  20
TORSDOF 7
