REMARK  Name = ZINC63562108
REMARK  3 active torsions:
REMARK  status: ('A' for Active; 'I' for Inactive)
REMARK    1  A    between atoms: C_6  and  C_7
REMARK    2  A    between atoms: C_9  and  C_13
REMARK    3  A    between atoms: C_21  and  C_23
REMARK                            x       y       z     vdW  Elec       q    Type
REMARK                         _______ _______ _______ _____ _____    ______ ____
ROOT
ATOM      1  C   UNL     1      -3.215  -3.134  -1.248  0.00  0.00    +0.246 C 
ATOM      2  O   UNL     1      -3.709  -2.542  -2.184  0.00  0.00    -0.273 OA
ATOM      3  N   UNL     1      -3.045  -4.469  -1.309  0.00  0.00    -0.296 N 
ATOM      4  C   UNL     1      -2.453  -5.200  -0.181  0.00  0.00    +0.127 C 
ATOM      5  C   UNL     1      -3.419  -6.314   0.243  0.00  0.00    +0.127 C 
ATOM      6  N   UNL     1      -3.824  -7.065  -0.953  0.00  0.00    -0.292 N 
ATOM      7  C   UNL     1      -4.416  -6.334  -2.082  0.00  0.00    +0.127 C 
ATOM      8  C   UNL     1      -3.455  -5.221  -2.503  0.00  0.00    +0.127 C 
ATOM      9  C   UNL     1      -3.654  -8.401  -1.014  0.00  0.00    +0.282 C 
ATOM     10  O   UNL     1      -4.082  -9.025  -1.967  0.00  0.00    -0.267 OA
ENDROOT
BRANCH   9  11
ATOM     11  C   UNL     1      -2.955  -9.101   0.067  0.00  0.00    +0.191 A 
ATOM     12  C   UNL     1      -2.612 -10.423   0.077  0.00  0.00    +0.056 A 
ATOM     13  C   UNL     1      -1.963 -10.663   1.298  0.00  0.00    +0.058 A 
ATOM     14  C   UNL     1      -1.938  -9.490   1.972  0.00  0.00    +0.171 A 
ATOM     15  O   UNL     1      -2.531  -8.551   1.224  0.00  0.00    -0.444 OA
ATOM     16 BR   UNL     1      -1.182  -9.221   3.685  0.00  0.00    -0.008 Br
ENDBRANCH   9  11
BRANCH   1  19
ATOM     17  C   UNL     1      -1.184  -0.787  -0.037  0.00  0.00    +0.092 C 
ATOM     18  C   UNL     1      -1.291  -2.130  -0.030  0.00  0.00    +0.040 C 
ATOM     19  C   UNL     1      -2.789  -2.376  -0.017  0.00  0.00    +0.238 C 
ATOM     20  N   UNL     1      -3.352  -1.015  -0.020  0.00  0.00    -0.170 NA
ATOM     21  N   UNL     1      -2.416  -0.213  -0.025  0.00  0.00    -0.153 NA
BRANCH  17  27
ATOM     22  C   UNL     1       0.095   1.353  -0.052  0.00  0.00    +0.011 A 
ATOM     23  C   UNL     1       1.290   2.044  -0.064  0.00  0.00    +0.016 A 
ATOM     24  C   UNL     1       2.490   1.354  -0.075  0.00  0.00    +0.018 A 
ATOM     25  C   UNL     1       2.498  -0.030  -0.074  0.00  0.00    +0.016 A 
ATOM     26  C   UNL     1       1.309  -0.730  -0.062  0.00  0.00    +0.011 A 
ATOM     27  C   UNL     1       0.098  -0.040  -0.051  0.00  0.00    +0.002 A 
ATOM     28 BR   UNL     1       4.123   2.306  -0.093  0.00  0.00    -0.050 Br
ENDBRANCH  17  27
ENDBRANCH   1  19
TORSDOF 3
