REMARK  Name = ZINC09190952
REMARK  6 active torsions:
REMARK  status: ('A' for Active; 'I' for Inactive)
REMARK    1  A    between atoms: C_1  and  C_2
REMARK    2  A    between atoms: C_2  and  C_3
REMARK    3  A    between atoms: C_2  and  C_4
REMARK    4  A    between atoms: C_2  and  C_5
REMARK    5  A    between atoms: C_5  and  C_7
REMARK    6  A    between atoms: N_25  and  C_28
REMARK                            x       y       z     vdW  Elec       q    Type
REMARK                         _______ _______ _______ _____ _____    ______ ____
ROOT
ATOM      1  C   UNL     1       1.923   2.129   1.234  0.00  0.00    +0.136 C 
ATOM      2  C   UNL     1       0.921   1.702   2.325  0.00  0.00    +0.116 C 
ATOM      3  C   UNL     1      -0.444   1.669   1.585  0.00  0.00    +0.113 C 
ATOM      4  C   UNL     1      -0.082   1.429   0.122  0.00  0.00    +0.100 C 
ATOM      5  C   UNL     1       1.903   1.951  -1.319  0.00  0.00    +0.054 C 
ATOM      6  C   UNL     1       1.098   2.392  -2.306  0.00  0.00    +0.022 C 
ATOM      7  C   UNL     1      -0.305   2.735  -1.998  0.00  0.00    -0.019 A 
ATOM      8  C   UNL     1      -0.904   2.271  -0.819  0.00  0.00    -0.021 A 
ATOM      9  C   UNL     1      -2.212   2.587  -0.536  0.00  0.00    +0.006 A 
ATOM     10  C   UNL     1      -2.941   3.369  -1.417  0.00  0.00    +0.000 A 
ATOM     11  C   UNL     1      -2.358   3.834  -2.582  0.00  0.00    +0.001 A 
ATOM     12  C   UNL     1      -1.047   3.522  -2.879  0.00  0.00    +0.008 A 
ATOM     13  C   UNL     1      -0.928   3.110   1.772  0.00  0.00    +0.232 C 
ATOM     14  O   UNL     1      -1.768   3.673   1.103  0.00  0.00    -0.274 OA
ATOM     15  N   UNL     1      -0.264   3.641   2.811  0.00  0.00    -0.210 N 
ATOM     16  C   UNL     1       0.732   2.872   3.277  0.00  0.00    +0.232 C 
ATOM     17  O   UNL     1       1.373   3.076   4.286  0.00  0.00    -0.274 OA
ATOM     18  N   UNL     1       1.356   1.486   0.019  0.00  0.00    -0.384 NA
ATOM     19  H   UNL     1       1.658   0.507   0.079  0.00  0.00    +0.127 HD
ENDROOT
BRANCH  15  20
ATOM     20  C   UNL     1      -0.583   4.891   3.360  0.00  0.00    +0.044 A 
ATOM     21  C   UNL     1       0.223   5.443   4.347  0.00  0.00    +0.025 A 
ATOM     22  C   UNL     1      -0.090   6.677   4.883  0.00  0.00    +0.022 A 
ATOM     23  C   UNL     1      -1.212   7.359   4.444  0.00  0.00    +0.041 A 
ATOM     24  C   UNL     1      -2.019   6.808   3.465  0.00  0.00    +0.022 A 
ATOM     25  C   UNL     1      -1.707   5.577   2.922  0.00  0.00    +0.025 A 
ATOM     26 CL   UNL     1      -1.607   8.906   5.125  0.00  0.00    -0.084 Cl
ENDBRANCH  15  20
BRANCH   1  27
ATOM     27  C   UNL     1       2.197   3.607   1.343  0.00  0.00    +0.158 C 
ATOM     28  O   UNL     1       1.335   4.403   1.059  0.00  0.00    -0.295 OA
BRANCH  27  30
ATOM     29  C   UNL     1       3.513   5.611   1.979  0.00  0.00    +0.018 C 
ATOM     30  C   UNL     1       3.547   4.091   1.806  0.00  0.00    +0.022 C 
ATOM     31  C   UNL     1       3.893   3.433   3.144  0.00  0.00    +0.018 C 
ATOM     32  C   UNL     1       4.607   3.719   0.767  0.00  0.00    +0.018 C 
ENDBRANCH  27  30
ENDBRANCH   1  27
TORSDOF 3
