REMARK  Name = ZINC64491011
REMARK  2 active torsions:
REMARK  status: ('A' for Active; 'I' for Inactive)
REMARK    1  A    between atoms: C_8  and  C_28
REMARK    2  A    between atoms: N_18  and  C_19
REMARK                            x       y       z     vdW  Elec       q    Type
REMARK                         _______ _______ _______ _____ _____    ______ ____
ROOT
ATOM      1  C   UNL     1      -0.333   1.007   1.190  0.00  0.00    +0.001 A 
ATOM      2  C   UNL     1       0.648   1.734   1.878  0.00  0.00    +0.002 A 
ATOM      3  C   UNL     1       1.877   1.239   2.131  0.00  0.00    +0.026 A 
ATOM      4  C   UNL     1       2.231  -0.068   1.699  0.00  0.00    +0.043 A 
ATOM      5  N   UNL     1       3.335  -0.766   1.840  0.00  0.00    -0.375 N 
ATOM      6  C   UNL     1       3.178  -2.033   1.131  0.00  0.00    +0.131 C 
ATOM      7  C   UNL     1       3.390  -3.237   2.056  0.00  0.00    +0.134 C 
ATOM      8  N   UNL     1       2.828  -4.422   1.391  0.00  0.00    -0.276 N 
ATOM      9  C   UNL     1       1.408  -4.473   1.028  0.00  0.00    +0.114 C 
ATOM     10  C   UNL     1       1.080  -3.295   0.092  0.00  0.00    +0.052 C 
ATOM     11  C   UNL     1       1.730  -2.059   0.668  0.00  0.00    -0.035 C 
ATOM     12  C   UNL     1       1.208  -0.863   0.975  0.00  0.00    -0.001 A 
ATOM     13  C   UNL     1      -0.104  -0.246   0.739  0.00  0.00    +0.010 A 
ATOM     14  C   UNL     1       3.626  -5.472   1.111  0.00  0.00    +0.307 C 
ATOM     15  O   UNL     1       4.753  -5.518   1.567  0.00  0.00    -0.252 OA
ATOM     16  N   UNL     1       3.175  -6.471   0.327  0.00  0.00    -0.269 N 
ATOM     17  H   UNL     1       2.314  -6.392  -0.112  0.00  0.00    +0.156 HD
ATOM     18  H   UNL     1       4.122  -0.486   2.333  0.00  0.00    +0.160 HD
ENDROOT
BRANCH  16  19
ATOM     19  C   UNL     1       3.951  -7.625   0.147  0.00  0.00    +0.038 A 
ATOM     20  C   UNL     1       5.336  -7.542   0.182  0.00  0.00    +0.027 A 
ATOM     21  C   UNL     1       6.102  -8.679   0.004  0.00  0.00    +0.051 A 
ATOM     22  C   UNL     1       5.490  -9.903  -0.208  0.00  0.00    +0.166 A 
ATOM     23  C   UNL     1       4.100  -9.989  -0.244  0.00  0.00    +0.168 A 
ATOM     24  C   UNL     1       3.334  -8.850  -0.061  0.00  0.00    +0.073 A 
ATOM     25  O   UNL     1       3.749 -11.290  -0.465  0.00  0.00    -0.453 OA
ATOM     26  C   UNL     1       4.936 -11.928  -0.971  0.00  0.00    +0.466 C 
ATOM     27  O   UNL     1       6.009 -11.151  -0.408  0.00  0.00    -0.453 OA
ENDBRANCH  16  19
BRANCH   7  28
ATOM     28  C   UNL     1       4.864  -3.438   2.301  0.00  0.00    -0.025 A 
ATOM     29  C   UNL     1       5.753  -3.382   1.244  0.00  0.00    +0.008 A 
ATOM     30  C   UNL     1       7.104  -3.566   1.468  0.00  0.00    +0.038 A 
ATOM     31  C   UNL     1       7.567  -3.806   2.750  0.00  0.00    +0.123 A 
ATOM     32  C   UNL     1       6.675  -3.861   3.808  0.00  0.00    +0.038 A 
ATOM     33  C   UNL     1       5.325  -3.672   3.583  0.00  0.00    +0.008 A 
ATOM     34  F   UNL     1       8.888  -3.987   2.970  0.00  0.00    -0.205 F 
ENDBRANCH   7  28
TORSDOF 2
