REMARK  Name = ZINC35554357
REMARK  4 active torsions:
REMARK  status: ('A' for Active; 'I' for Inactive)
REMARK    1  A    between atoms: C_8  and  C_25
REMARK    2  A    between atoms: N_15  and  C_17
REMARK    3  A    between atoms: C_17  and  C_18
REMARK    4  A    between atoms: N_30  and  C_33
REMARK                            x       y       z     vdW  Elec       q    Type
REMARK                         _______ _______ _______ _____ _____    ______ ____
ROOT
ATOM      1  C   UNL     1      -0.057   1.386   0.072  0.00  0.00    +0.000 A 
ATOM      2  C   UNL     1       1.125   2.103   0.056  0.00  0.00    +0.002 A 
ATOM      3  C   UNL     1       2.335   1.440   0.021  0.00  0.00    +0.023 A 
ATOM      4  C   UNL     1       2.365   0.049   0.003  0.00  0.00    +0.033 A 
ATOM      5  C   UNL     1       1.181  -0.666   0.025  0.00  0.00    -0.026 A 
ATOM      6  C   UNL     1      -0.029   0.004   0.056  0.00  0.00    +0.005 A 
ATOM      7  C   UNL     1       1.188  -2.173   0.024  0.00  0.00    +0.051 C 
ATOM      8  C   UNL     1       2.503  -2.676   0.618  0.00  0.00    +0.098 C 
ATOM      9  C   UNL     1       3.678  -2.047  -0.139  0.00  0.00    +0.069 C 
ATOM     10  N   UNL     1       3.611  -0.597  -0.041  0.00  0.00    -0.329 N 
ATOM     11  C   UNL     1       4.809   0.246  -0.020  0.00  0.00    +0.087 C 
ATOM     12  C   UNL     1       5.960  -0.475   0.677  0.00  0.00    -0.059 C 
ATOM     13  N   UNL     1       6.129  -1.796   0.053  0.00  0.00    +0.388 N 
ATOM     14  C   UNL     1       4.977  -2.630   0.393  0.00  0.00    -0.055 C 
ATOM     15  H   UNL     1       6.187  -1.691  -0.949  0.00  0.00    -0.081 HD
ENDROOT
BRANCH   8  16
ATOM     16  C   UNL     1       2.578  -2.289   2.073  0.00  0.00    +0.221 C 
ATOM     17  O   UNL     1       3.166  -1.281   2.403  0.00  0.00    -0.275 OA
ATOM     18  N   UNL     1       1.991  -3.063   3.007  0.00  0.00    -0.298 N 
ATOM     19  C   UNL     1       1.368  -4.341   2.635  0.00  0.00    +0.126 C 
ATOM     20  C   UNL     1       1.986  -5.455   3.490  0.00  0.00    +0.124 C 
ATOM     21  N   UNL     1       1.958  -5.036   4.898  0.00  0.00    -0.327 N 
ATOM     22  C   UNL     1       2.581  -3.758   5.270  0.00  0.00    +0.124 C 
ATOM     23  C   UNL     1       1.967  -2.647   4.416  0.00  0.00    +0.126 C 
BRANCH  21  24
ATOM     24  C   UNL     1       1.350  -5.838   5.867  0.00  0.00    +0.031 A 
ATOM     25  C   UNL     1       0.879  -7.101   5.529  0.00  0.00    +0.023 A 
ATOM     26  C   UNL     1       0.279  -7.893   6.488  0.00  0.00    +0.003 A 
ATOM     27  C   UNL     1       0.144  -7.429   7.784  0.00  0.00    +0.020 A 
ATOM     28  C   UNL     1       0.611  -6.172   8.124  0.00  0.00    +0.043 A 
ATOM     29  C   UNL     1       1.219  -5.378   7.170  0.00  0.00    +0.043 A 
ATOM     30 CL   UNL     1       0.440  -5.595   9.752  0.00  0.00    -0.083 Cl
ENDBRANCH  21  24
ENDBRANCH   8  16
BRANCH  13  31
ATOM     31  C   UNL     1       7.357  -2.425   0.556  0.00  0.00    +0.019 C 
BRANCH  31  32
ATOM     32  C   UNL     1       8.552  -1.620   0.113  0.00  0.00    +0.199 C 
ATOM     33  O   UNL     1       8.395  -0.621  -0.557  0.00  0.00    -0.278 OA
ATOM     34  N   UNL     1       9.794  -2.011   0.460  0.00  0.00    -0.303 N 
ATOM     35  C   UNL     1      10.127  -3.199   1.260  0.00  0.00    +0.108 C 
ATOM     36  C   UNL     1      11.661  -3.226   1.423  0.00  0.00    +0.020 C 
ATOM     37  C   UNL     1      12.062  -1.746   1.188  0.00  0.00    +0.020 C 
ATOM     38  C   UNL     1      11.045  -1.321   0.096  0.00  0.00    +0.108 C 
ENDBRANCH  31  32
ENDBRANCH  13  31
TORSDOF 4
