REMARK  Name = ZINC22240706
REMARK  7 active torsions:
REMARK  status: ('A' for Active; 'I' for Inactive)
REMARK    1  A    between atoms: C_1  and  C_2
REMARK    2  A    between atoms: C_4  and  C_27
REMARK    3  A    between atoms: C_5  and  C_9
REMARK    4  A    between atoms: C_7  and  C_8
REMARK    5  A    between atoms: C_15  and  C_17
REMARK    6  A    between atoms: C_17  and  N_18
REMARK    7  A    between atoms: C_21  and  C_24
REMARK                            x       y       z     vdW  Elec       q    Type
REMARK                         _______ _______ _______ _____ _____    ______ ____
ROOT
ATOM      1  C   UNL     1      -3.436   1.410   1.163  0.00  0.00    +0.080 A 
ATOM      2  C   UNL     1      -3.315   2.772   1.157  0.00  0.00    +0.076 A 
ATOM      3  S   UNL     1      -1.538   2.947   1.073  0.00  0.00    -0.060 S 
ATOM      4  C   UNL     1      -1.142   1.204   1.054  0.00  0.00    +0.165 A 
ATOM      5  N   UNL     1      -2.344   0.661   1.105  0.00  0.00    -0.225 NA
ATOM      6  N   UNL     1       0.100   0.585   0.996  0.00  0.00    -0.266 N 
ATOM      7  C   UNL     1       1.222   1.330   0.937  0.00  0.00    +0.202 C 
ATOM      8  O   UNL     1       1.147   2.540   0.941  0.00  0.00    -0.277 OA
ATOM      9  H   UNL     1       0.168  -0.513   0.997  0.00  0.00    +0.157 HD
ENDROOT
BRANCH   1  14
ATOM     10  C   UNL     1      -8.637  -1.048   1.411  0.00  0.00    +0.044 C 
ATOM     11  C   UNL     1      -7.276  -0.405   1.346  0.00  0.00    -0.047 A 
ATOM     12  C   UNL     1      -6.151  -1.189   1.163  0.00  0.00    +0.007 A 
ATOM     13  C   UNL     1      -4.902  -0.606   1.103  0.00  0.00    -0.041 A 
ATOM     14  C   UNL     1      -4.775   0.777   1.226  0.00  0.00    +0.004 A 
ATOM     15  C   UNL     1      -5.911   1.562   1.415  0.00  0.00    +0.014 A 
ATOM     16  C   UNL     1      -7.156   0.968   1.470  0.00  0.00    -0.047 A 
ATOM     17  C   UNL     1      -8.386   1.815   1.668  0.00  0.00    +0.044 C 
ATOM     18  C   UNL     1      -3.678  -1.462   0.904  0.00  0.00    +0.044 C 
ENDBRANCH   1  14
BRANCH   7  19
ATOM     19  C   UNL     1       2.569   0.658   0.868  0.00  0.00    +0.019 C 
BRANCH  19  20
ATOM     20  N   UNL     1       3.617   1.678   0.724  0.00  0.00    +0.385 N 
ATOM     21  C   UNL     1       4.951   1.091   0.910  0.00  0.00    -0.077 C 
ATOM     22  C   UNL     1       6.004   2.202   0.898  0.00  0.00    -0.006 C 
ATOM     23  C   UNL     1       5.936   2.949  -0.437  0.00  0.00    +0.071 C 
ATOM     24  C   UNL     1       4.524   3.508  -0.628  0.00  0.00    -0.006 C 
ATOM     25  C   UNL     1       3.514   2.360  -0.572  0.00  0.00    -0.077 C 
ATOM     26  H   UNL     1       3.469   2.431   1.512  0.00  0.00    -0.081 HD
BRANCH  23  27
ATOM     27  C   UNL     1       6.930   4.082  -0.431  0.00  0.00    +0.213 C 
ATOM     28  O   UNL     1       6.548   5.224  -0.567  0.00  0.00    -0.276 OA
ATOM     29  N   UNL     1       8.244   3.824  -0.275  0.00  0.00    -0.329 N 
ATOM     30  H   UNL     1       8.969   4.651  -0.271  0.00  0.00    +0.145 HD
ATOM     31  H   UNL     1       8.591   2.788  -0.152  0.00  0.00    +0.145 HD
ENDBRANCH  23  27
ENDBRANCH  19  20
ENDBRANCH   7  19
TORSDOF 4
