REMARK  Name = ZINC66357220
REMARK  5 active torsions:
REMARK  status: ('A' for Active; 'I' for Inactive)
REMARK    1  A    between atoms: C_1  and  N_2
REMARK    2  A    between atoms: C_3  and  C_23
REMARK    3  A    between atoms: C_4  and  C_7
REMARK    4  A    between atoms: N_9  and  C_10
REMARK    5  A    between atoms: C_13  and  N_17
REMARK                            x       y       z     vdW  Elec       q    Type
REMARK                         _______ _______ _______ _____ _____    ______ ____
ROOT
ATOM      1  C   UNL     1      -0.663  -4.529   0.174  0.00  0.00    +0.252 C 
ATOM      2  O   UNL     1      -1.302  -5.517   0.482  0.00  0.00    -0.270 OA
ATOM      3  N   UNL     1       0.058  -4.521  -0.964  0.00  0.00    -0.281 N 
ATOM      4  H   UNL     1       0.505  -3.709  -1.250  0.00  0.00    +0.155 HD
ENDROOT
BRANCH   3   5
ATOM      5  C   UNL     1       0.163  -5.686  -1.736  0.00  0.00    +0.035 A 
ATOM      6  C   UNL     1       0.260  -5.597  -3.118  0.00  0.00    +0.025 A 
ATOM      7  C   UNL     1       0.363  -6.744  -3.879  0.00  0.00    +0.026 A 
ATOM      8  C   UNL     1       0.369  -7.988  -3.263  0.00  0.00    +0.048 A 
ATOM      9  C   UNL     1       0.272  -8.078  -1.879  0.00  0.00    +0.064 A 
ATOM     10  C   UNL     1       0.175  -6.929  -1.118  0.00  0.00    +0.045 A 
ATOM     11 CL   UNL     1       0.279  -9.633  -1.107  0.00  0.00    -0.082 Cl
BRANCH   8  12
ATOM     12  N   UNL     1       0.472  -9.152  -4.034  0.00  0.00    -0.327 N 
ATOM     13  C   UNL     1      -0.743  -9.801  -4.530  0.00  0.00    +0.116 C 
ATOM     14  C   UNL     1      -0.781  -9.712  -6.060  0.00  0.00    +0.088 C 
ATOM     15  S   UNL     1       0.728 -10.477  -6.725  0.00  0.00    -0.158 S 
ATOM     16  C   UNL     1       2.057  -9.604  -5.843  0.00  0.00    +0.088 C 
ATOM     17  C   UNL     1       1.794  -9.701  -4.341  0.00  0.00    +0.116 C 
ENDBRANCH   8  12
ENDBRANCH   3   5
BRANCH   1  21
ATOM     18  C   UNL     1      -1.642  -1.409   3.951  0.00  0.00    +0.173 C 
ATOM     19  N   UNL     1      -1.112  -1.974   2.708  0.00  0.00    -0.265 N 
ATOM     20  C   UNL     1      -1.367  -3.204   2.234  0.00  0.00    +0.116 A 
ATOM     21  C   UNL     1      -0.679  -3.340   1.045  0.00  0.00    +0.083 A 
ATOM     22  C   UNL     1       0.009  -2.127   0.821  0.00  0.00    +0.148 A 
ATOM     23  N   UNL     1      -0.260  -1.321   1.810  0.00  0.00    -0.179 NA
BRANCH  20  24
ATOM     24  C   UNL     1      -2.244  -4.245   2.881  0.00  0.00    +0.390 C 
ATOM     25  F   UNL     1      -3.256  -3.614   3.612  0.00  0.00    -0.202 F 
ATOM     26  F   UNL     1      -2.818  -5.052   1.892  0.00  0.00    -0.202 F 
ENDBRANCH  20  24
ENDBRANCH   1  21
TORSDOF 4
