REMARK  Name = ZINC50631184
REMARK  3 active torsions:
REMARK  status: ('A' for Active; 'I' for Inactive)
REMARK    1  A    between atoms: C_1  and  C_2
REMARK    2  A    between atoms: C_10  and  C_13
REMARK    3  A    between atoms: C_20  and  C_28
REMARK                            x       y       z     vdW  Elec       q    Type
REMARK                         _______ _______ _______ _____ _____    ______ ____
ROOT
ATOM      1  C   UNL     1      -0.242   1.622   1.834  0.00  0.00    +0.044 C 
ATOM      2  C   UNL     1      -0.179   0.169   1.442  0.00  0.00    -0.050 A 
ATOM      3  C   UNL     1      -0.136  -0.185   0.103  0.00  0.00    +0.007 A 
ATOM      4  C   UNL     1      -0.074  -1.512  -0.275  0.00  0.00    +0.046 A 
ATOM      5  C   UNL     1      -0.055  -2.510   0.688  0.00  0.00    +0.130 A 
ATOM      6  C   UNL     1      -0.107  -2.150   2.047  0.00  0.00    +0.039 A 
ATOM      7  C   UNL     1      -0.159  -0.807   2.417  0.00  0.00    +0.016 A 
ATOM      8  C   UNL     1      -0.108  -3.224   3.045  0.00  0.00    +0.065 C 
ATOM      9  C   UNL     1       0.363  -4.592   2.572  0.00  0.00    +0.113 C 
ATOM     10  C   UNL     1      -0.358  -4.829   1.246  0.00  0.00    +0.215 C 
ATOM     11  O   UNL     1       0.018  -3.811   0.317  0.00  0.00    -0.483 OA
ATOM     12  C   UNL     1       0.055  -5.761   3.524  0.00  0.00    +0.155 C 
ATOM     13  N   UNL     1      -0.426  -5.377   4.860  0.00  0.00    -0.221 N 
ATOM     14  C   UNL     1      -0.642  -4.072   5.165  0.00  0.00    +0.249 A 
ATOM     15  N   UNL     1      -1.021  -4.033   6.438  0.00  0.00    -0.198 NA
ATOM     16  C   UNL     1      -1.075  -5.265   6.933  0.00  0.00    +0.247 A 
ATOM     17  N   UNL     1      -0.730  -6.122   6.006  0.00  0.00    -0.156 NA
ATOM     18  N   UNL     1      -0.503  -3.067   4.264  0.00  0.00    -0.215 NA
ENDROOT
BRANCH  10  19
ATOM     19  C   UNL     1      -1.848  -4.785   1.468  0.00  0.00    -0.007 A 
ATOM     20  C   UNL     1      -2.352  -4.423   2.703  0.00  0.00    +0.009 A 
ATOM     21  C   UNL     1      -3.719  -4.382   2.907  0.00  0.00    +0.020 A 
ATOM     22  C   UNL     1      -4.582  -4.704   1.875  0.00  0.00    +0.041 A 
ATOM     23  C   UNL     1      -4.077  -5.067   0.639  0.00  0.00    +0.020 A 
ATOM     24  C   UNL     1      -2.710  -5.102   0.435  0.00  0.00    +0.009 A 
ATOM     25 CL   UNL     1      -6.298  -4.654   2.131  0.00  0.00    -0.084 Cl
ENDBRANCH  10  19
BRANCH  12  26
ATOM     26  C   UNL     1      -0.993  -6.632   2.881  0.00  0.00    -0.004 A 
ATOM     27  C   UNL     1      -0.685  -7.389   1.760  0.00  0.00    +0.009 A 
ATOM     28  C   UNL     1      -1.680  -8.176   1.202  0.00  0.00    +0.020 A 
ATOM     29  C   UNL     1      -2.938  -8.180   1.776  0.00  0.00    +0.111 A 
ATOM     30  N   UNL     1      -3.195  -7.447   2.841  0.00  0.00    -0.263 NA
ATOM     31  C   UNL     1      -2.271  -6.691   3.403  0.00  0.00    +0.116 A 
ENDBRANCH  12  26
TORSDOF 2
