REMARK  Name = ZINC16957889
REMARK  10 active torsions:
REMARK  status: ('A' for Active; 'I' for Inactive)
REMARK    1  A    between atoms: C_1  and  C_2
REMARK    2  A    between atoms: C_3  and  C_12
REMARK    3  A    between atoms: N_7  and  N_8
REMARK    4  A    between atoms: C_9  and  C_11
REMARK    5  A    between atoms: C_12  and  C_19
REMARK    6  A    between atoms: N_13  and  N_14
REMARK    7  A    between atoms: N_14  and  C_15
REMARK    8  A    between atoms: C_15  and  N_17
REMARK    9  A    between atoms: N_17  and  N_18
REMARK   10  A    between atoms: C_20  and  C_21
REMARK                            x       y       z     vdW  Elec       q    Type
REMARK                         _______ _______ _______ _____ _____    ______ ____
ROOT
ATOM      1  C   UNL     1      -1.361  -1.114  -0.358  0.00  0.00    +0.097 C 
ATOM      2  N   UNL     1      -0.564  -2.124  -0.094  0.00  0.00    -0.180 NA
ENDROOT
BRANCH   1   5
ATOM      3  C   UNL     1       1.522  -0.219   0.309  0.00  0.00    +0.067 C 
ATOM      4  C   UNL     1       0.452   0.710  -0.204  0.00  0.00    +0.057 A 
ATOM      5  C   UNL     1      -0.809   0.248  -0.481  0.00  0.00    +0.063 A 
ATOM      6  S   UNL     1      -1.598   1.753  -1.033  0.00  0.00    -0.049 S 
ATOM      7  C   UNL     1      -0.230   2.807  -0.849  0.00  0.00    +0.175 A 
ATOM      8  N   UNL     1       0.702   1.986  -0.399  0.00  0.00    -0.228 NA
ATOM      9  N   UNL     1      -0.139   4.163  -1.108  0.00  0.00    -0.243 N 
ATOM     10  H   UNL     1      -0.912   4.647  -1.439  0.00  0.00    +0.172 HD
BRANCH   9  11
ATOM     11  N   UNL     1       1.069   4.838  -0.891  0.00  0.00    -0.235 N 
ATOM     12  C   UNL     1       1.158   6.159  -1.144  0.00  0.00    +0.226 C 
ATOM     13  O   UNL     1       0.191   6.764  -1.558  0.00  0.00    -0.275 OA
ATOM     14  C   UNL     1       2.458   6.885  -0.911  0.00  0.00    +0.110 C 
ATOM     15  H   UNL     1       1.842   4.355  -0.560  0.00  0.00    +0.173 HD
ENDBRANCH   9  11
ENDBRANCH   1   5
BRANCH   2  16
ATOM     16  N   UNL     1      -1.090  -3.416   0.032  0.00  0.00    -0.217 N 
ATOM     17  H   UNL     1      -2.050  -3.553   0.019  0.00  0.00    +0.176 HD
BRANCH  16  18
ATOM     18  C   UNL     1      -0.261  -4.470   0.172  0.00  0.00    +0.164 C 
ATOM     19  S   UNL     1      -0.904  -6.049   0.327  0.00  0.00    -0.016 S 
BRANCH  18  20
ATOM     20  N   UNL     1       1.073  -4.280   0.191  0.00  0.00    -0.264 N 
ATOM     21  H   UNL     1       1.669  -5.039   0.292  0.00  0.00    +0.168 HD
BRANCH  20  22
ATOM     22  N   UNL     1       1.585  -3.020   0.068  0.00  0.00    -0.255 NA
ATOM     23  H   UNL     1       2.594  -3.035   0.100  0.00  0.00    +0.140 HD
ATOM     24  H   UNL     1       1.257  -2.577  -0.776  0.00  0.00    +0.140 HD
ENDBRANCH  20  22
ENDBRANCH  18  20
ENDBRANCH  16  18
ENDBRANCH   2  16
BRANCH   1  25
ATOM     25  C   UNL     1      -2.802  -1.341  -0.532  0.00  0.00    +0.031 C 
ATOM     26  C   UNL     1      -3.621  -0.304  -0.787  0.00  0.00    +0.010 C 
BRANCH  26  27
ATOM     27  C   UNL     1      -5.022  -0.549  -1.169  0.00  0.00    -0.025 A 
ATOM     28  C   UNL     1      -5.503  -1.857  -1.273  0.00  0.00    +0.009 A 
ATOM     29  C   UNL     1      -6.817  -2.079  -1.626  0.00  0.00    +0.020 A 
ATOM     30  C   UNL     1      -7.657  -1.009  -1.888  0.00  0.00    +0.041 A 
ATOM     31  C   UNL     1      -7.186   0.290  -1.792  0.00  0.00    +0.020 A 
ATOM     32  C   UNL     1      -5.875   0.526  -1.435  0.00  0.00    +0.009 A 
ATOM     33 CL   UNL     1      -9.309  -1.297  -2.339  0.00  0.00    -0.084 Cl
ENDBRANCH  26  27
ENDBRANCH   1  25
TORSDOF 8
