REMARK  Name = ZINC22419212
REMARK  10 active torsions:
REMARK  status: ('A' for Active; 'I' for Inactive)
REMARK    1  A    between atoms: C_1  and  C_2
REMARK    2  A    between atoms: C_2  and  C_4
REMARK    3  A    between atoms: C_2  and  S_14
REMARK    4  A    between atoms: N_9  and  C_10
REMARK    5  A    between atoms: C_10  and  C_11
REMARK    6  A    between atoms: C_10  and  C_12
REMARK    7  A    between atoms: C_10  and  C_13
REMARK    8  A    between atoms: S_14  and  C_15
REMARK    9  A    between atoms: N_22  and  C_30
REMARK   10  A    between atoms: C_25  and  C_27
REMARK                            x       y       z     vdW  Elec       q    Type
REMARK                         _______ _______ _______ _____ _____    ______ ____
ROOT
ATOM      1  C   UNL     1      -2.355   0.698  -1.371  0.00  0.00    +0.116 A 
ATOM      2  C   UNL     1      -3.420   0.920  -2.259  0.00  0.00    +0.116 A 
ATOM      3  C   UNL     1      -3.334   1.862  -3.379  0.00  0.00    +0.288 A 
ATOM      4  O   UNL     1      -2.318   2.498  -3.585  0.00  0.00    -0.265 OA
ATOM      5  N   UNL     1      -4.417   2.003  -4.176  0.00  0.00    -0.153 NA
ATOM      6  C   UNL     1      -5.540   1.304  -3.951  0.00  0.00    +0.353 A 
ATOM      7  O   UNL     1      -6.486   1.468  -4.697  0.00  0.00    -0.244 OA
ATOM      8  N   UNL     1      -5.665   0.429  -2.938  0.00  0.00    -0.273 N 
ATOM      9  C   UNL     1      -4.620   0.210  -2.067  0.00  0.00    +0.155 A 
ATOM     10  N   UNL     1      -4.703  -0.643  -1.055  0.00  0.00    -0.214 NA
ATOM     11  C   UNL     1      -3.678  -0.822  -0.243  0.00  0.00    +0.136 A 
ATOM     12  N   UNL     1      -2.534  -0.184  -0.387  0.00  0.00    -0.225 NA
ENDROOT
BRANCH  11  13
ATOM     13  C   UNL     1      -3.820  -1.802   0.893  0.00  0.00    +0.057 C 
ATOM     14  C   UNL     1      -2.699  -1.844   1.934  0.00  0.00    +0.012 C 
ATOM     15  C   UNL     1      -2.853  -2.987   0.928  0.00  0.00    +0.012 C 
ENDBRANCH  11  13
BRANCH   8  16
ATOM     16  C   UNL     1      -6.924  -0.298  -2.758  0.00  0.00    +0.094 C 
ATOM     17  C   UNL     1      -6.841  -1.808  -2.523  0.00  0.00    +0.027 C 
ATOM     18  C   UNL     1      -7.345  -1.268  -3.864  0.00  0.00    +0.027 C 
ENDBRANCH   8  16
BRANCH   1  19
ATOM     19  S   UNL     1      -0.826   1.554  -1.557  0.00  0.00    -0.093 S 
BRANCH  19  21
ATOM     20  C   UNL     1      -0.572   1.278   1.149  0.00  0.00    +0.029 C 
ATOM     21  C   UNL     1       0.095   0.858  -0.163  0.00  0.00    +0.136 C 
BRANCH  21  22
ATOM     22  C   UNL     1       1.512   1.368  -0.192  0.00  0.00    +0.233 C 
ATOM     23  O   UNL     1       1.766   2.421  -0.736  0.00  0.00    -0.274 OA
ATOM     24  N   UNL     1       2.498   0.654   0.387  0.00  0.00    -0.239 N 
ATOM     25  C   UNL     1       3.765   1.110   0.361  0.00  0.00    +0.306 C 
ATOM     26  O   UNL     1       4.020   2.166  -0.185  0.00  0.00    -0.252 OA
ATOM     27  N   UNL     1       4.751   0.396   0.940  0.00  0.00    -0.294 N 
ATOM     28  H   UNL     1       2.267  -0.302   0.881  0.00  0.00    +0.159 HD
ATOM     29  H   UNL     1       4.521  -0.559   1.433  0.00  0.00    +0.151 HD
BRANCH  27  30
ATOM     30  C   UNL     1       6.129   0.892   0.911  0.00  0.00    +0.028 C 
ATOM     31  C   UNL     1       6.197   2.251   1.611  0.00  0.00    +0.031 C 
ATOM     32  C   UNL     1       7.043  -0.100   1.633  0.00  0.00    +0.031 C 
ATOM     33  C   UNL     1       6.587   1.044  -0.541  0.00  0.00    +0.031 C 
ENDBRANCH  27  30
ENDBRANCH  21  22
ENDBRANCH  19  21
ENDBRANCH   1  19
TORSDOF 6
