REMARK  Name = ZINC14654100
REMARK  9 active torsions:
REMARK  status: ('A' for Active; 'I' for Inactive)
REMARK    1  A    between atoms: C_1  and  C_2
REMARK    2  A    between atoms: C_2  and  C_4
REMARK    3  A    between atoms: C_2  and  O_19
REMARK    4  A    between atoms: N_6  and  C_7
REMARK    5  A    between atoms: C_10  and  S_13
REMARK    6  A    between atoms: S_13  and  N_16
REMARK    7  A    between atoms: N_16  and  C_17
REMARK    8  A    between atoms: N_16  and  C_18
REMARK    9  A    between atoms: O_19  and  C_20
REMARK                            x       y       z     vdW  Elec       q    Type
REMARK                         _______ _______ _______ _____ _____    ______ ____
ROOT
ATOM      1  C   UNL     1       2.556  -2.655   0.018  0.00  0.00    +0.258 C 
ATOM      2  O   UNL     1       3.612  -2.098  -0.194  0.00  0.00    -0.271 OA
ATOM      3  N   UNL     1       1.458  -1.929   0.309  0.00  0.00    -0.282 N 
ATOM      4  H   UNL     1       0.632  -2.376   0.554  0.00  0.00    +0.155 HD
ENDROOT
BRANCH   3   5
ATOM      5  C   UNL     1       1.509  -0.532   0.259  0.00  0.00    +0.034 A 
ATOM      6  C   UNL     1       2.324   0.102  -0.670  0.00  0.00    +0.025 A 
ATOM      7  C   UNL     1       2.372   1.481  -0.717  0.00  0.00    +0.030 A 
ATOM      8  C   UNL     1       1.610   2.231   0.159  0.00  0.00    +0.106 A 
ATOM      9  C   UNL     1       0.797   1.604   1.085  0.00  0.00    +0.030 A 
ATOM     10  C   UNL     1       0.744   0.225   1.138  0.00  0.00    +0.025 A 
BRANCH   8  11
ATOM     11  S   UNL     1       1.674   3.991   0.095  0.00  0.00    +0.060 S 
ATOM     12  O   UNL     1       1.285   4.458   1.380  0.00  0.00    -0.153 OA
ATOM     13  O   UNL     1       2.922   4.331  -0.493  0.00  0.00    -0.153 OA
BRANCH  11  14
ATOM     14  N   UNL     1       0.501   4.486  -0.964  0.00  0.00    -0.183 NA
ATOM     15  C   UNL     1      -0.852   4.769  -0.478  0.00  0.00    +0.131 C 
ATOM     16  C   UNL     1       0.816   4.640  -2.386  0.00  0.00    +0.131 C 
ENDBRANCH  11  14
ENDBRANCH   8  11
ENDBRANCH   3   5
BRANCH   1  18
ATOM     17  C   UNL     1       1.557  -4.571  -1.198  0.00  0.00    +0.062 C 
ATOM     18  C   UNL     1       2.471  -4.158  -0.043  0.00  0.00    +0.256 C 
BRANCH  18  19
ATOM     19  O   UNL     1       3.777  -4.701  -0.251  0.00  0.00    -0.480 OA
BRANCH  19  20
ATOM     20  C   UNL     1       3.988  -5.977   0.166  0.00  0.00    +0.122 A 
ATOM     21  C   UNL     1       2.934  -6.729   0.664  0.00  0.00    +0.047 A 
ATOM     22  C   UNL     1       3.150  -8.028   1.081  0.00  0.00    +0.019 A 
ATOM     23  C   UNL     1       4.419  -8.575   1.015  0.00  0.00    +0.018 A 
ATOM     24  C   UNL     1       5.473  -7.824   0.525  0.00  0.00    +0.019 A 
ATOM     25  C   UNL     1       5.260  -6.527   0.101  0.00  0.00    +0.047 A 
ATOM     26 BR   UNL     1       4.713 -10.350   1.595  0.00  0.00    -0.050 Br
ENDBRANCH  19  20
ENDBRANCH  18  19
ENDBRANCH   1  18
TORSDOF 6
