REMARK  Name = ZINC17795112
REMARK  9 active torsions:
REMARK  status: ('A' for Active; 'I' for Inactive)
REMARK    1  A    between atoms: C_1  and  N_2
REMARK    2  A    between atoms: N_2  and  C_3
REMARK    3  A    between atoms: C_3  and  C_4
REMARK    4  A    between atoms: N_6  and  C_7
REMARK    5  A    between atoms: C_14  and  C_16
REMARK    6  A    between atoms: C_19  and  O_24
REMARK    7  A    between atoms: C_20  and  O_22
REMARK    8  A    between atoms: O_22  and  C_23
REMARK    9  A    between atoms: O_24  and  C_25
REMARK                            x       y       z     vdW  Elec       q    Type
REMARK                         _______ _______ _______ _____ _____    ______ ____
ROOT
ATOM      1  C   UNL     1      -3.902   1.699  -0.444  0.00  0.00    +0.133 C 
ATOM      2  N   UNL     1      -3.684   3.123  -0.176  0.00  0.00    -0.292 N 
ATOM      3  C   UNL     1      -2.449   3.571   0.121  0.00  0.00    +0.247 C 
ATOM      4  O   UNL     1      -2.282   4.735   0.431  0.00  0.00    -0.270 OA
ENDROOT
BRANCH   3   5
ATOM      5  C   UNL     1      -1.297   2.649   0.070  0.00  0.00    +0.041 A 
ATOM      6  C   UNL     1      -0.081   3.077  -0.470  0.00  0.00    +0.017 A 
ATOM      7  C   UNL     1       0.991   2.213  -0.522  0.00  0.00    +0.050 A 
ATOM      8  C   UNL     1       0.871   0.921  -0.029  0.00  0.00    +0.168 A 
ATOM      9  C   UNL     1      -0.338   0.490   0.516  0.00  0.00    +0.162 A 
ATOM     10  C   UNL     1      -1.419   1.349   0.566  0.00  0.00    +0.062 A 
BRANCH   9  11
ATOM     11  O   UNL     1      -0.453  -0.777   0.997  0.00  0.00    -0.491 OA
ATOM     12  C   UNL     1      -1.721  -1.152   1.541  0.00  0.00    +0.277 C 
ENDBRANCH   9  11
BRANCH   8  13
ATOM     13  O   UNL     1       1.932   0.076  -0.077  0.00  0.00    -0.431 OA
BRANCH  13  14
ATOM     14  C   UNL     1       3.140   0.583  -0.648  0.00  0.00    +0.541 C 
ATOM     15  F   UNL     1       2.905   0.967  -1.972  0.00  0.00    -0.166 F 
ATOM     16  F   UNL     1       3.575   1.690   0.089  0.00  0.00    -0.166 F 
ENDBRANCH  13  14
ENDBRANCH   8  13
ENDBRANCH   3   5
BRANCH   2  17
ATOM     17  C   UNL     1      -4.809   4.059  -0.232  0.00  0.00    +0.203 C 
BRANCH  17  18
ATOM     18  C   UNL     1      -4.943   4.601  -1.632  0.00  0.00    +0.235 C 
ATOM     19  O   UNL     1      -4.174   4.241  -2.498  0.00  0.00    -0.274 OA
ATOM     20  N   UNL     1      -5.917   5.487  -1.922  0.00  0.00    -0.283 N 
ATOM     21  H   UNL     1      -6.576   5.721  -1.249  0.00  0.00    +0.155 HD
BRANCH  20  22
ATOM     22  C   UNL     1      -5.979   6.069  -3.193  0.00  0.00    +0.047 A 
ATOM     23  C   UNL     1      -5.583   5.344  -4.310  0.00  0.00    +0.024 A 
ATOM     24  C   UNL     1      -5.649   5.919  -5.563  0.00  0.00    +0.002 A 
ATOM     25  C   UNL     1      -6.098   7.219  -5.707  0.00  0.00    +0.001 A 
ATOM     26  C   UNL     1      -6.488   7.946  -4.597  0.00  0.00    +0.017 A 
ATOM     27  C   UNL     1      -6.429   7.374  -3.340  0.00  0.00    +0.039 A 
ATOM     28 BR   UNL     1      -6.961   8.369  -1.822  0.00  0.00    -0.048 Br
ENDBRANCH  20  22
ENDBRANCH  17  18
ENDBRANCH   2  17
TORSDOF 7
