REMARK  Name = ZINC21659814
REMARK  7 active torsions:
REMARK  status: ('A' for Active; 'I' for Inactive)
REMARK    1  A    between atoms: C_1  and  C_2
REMARK    2  A    between atoms: C_5  and  C_7
REMARK    3  A    between atoms: C_7  and  C_9
REMARK    4  A    between atoms: C_7  and  N_25
REMARK    5  A    between atoms: C_9  and  N_10
REMARK    6  A    between atoms: C_11  and  C_13
REMARK    7  A    between atoms: C_15  and  C_18
REMARK                            x       y       z     vdW  Elec       q    Type
REMARK                         _______ _______ _______ _____ _____    ______ ____
ROOT
ATOM      1  N   UNL     1      -5.090   4.531   2.601  0.00  0.00    -0.311 N 
ATOM      2  C   UNL     1      -5.380   5.751   2.106  0.00  0.00    +0.266 C 
ATOM      3  O   UNL     1      -4.512   6.410   1.569  0.00  0.00    -0.268 OA
ATOM      4  H   UNL     1      -5.876   3.934   3.087  0.00  0.00    +0.149 HD
ENDROOT
BRANCH   2   5
ATOM      5  C   UNL     1      -6.758   6.288   2.216  0.00  0.00    +0.168 A 
ATOM      6  C   UNL     1      -7.220   7.548   1.754  0.00  0.00    +0.086 A 
ATOM      7  C   UNL     1      -8.544   7.555   2.093  0.00  0.00    +0.168 A 
ATOM      8  O   UNL     1      -8.784   6.382   2.705  0.00  0.00    -0.354 OA
ATOM      9  N   UNL     1      -7.791   5.697   2.765  0.00  0.00    -0.073 NA
BRANCH   7  10
ATOM     10  C   UNL     1      -9.518   8.639   1.842  0.00  0.00    +0.020 A 
ATOM     11  C   UNL     1      -9.113   9.808   1.195  0.00  0.00    +0.013 A 
ATOM     12  C   UNL     1     -10.027  10.814   0.959  0.00  0.00    +0.016 A 
ATOM     13  C   UNL     1     -11.341  10.670   1.372  0.00  0.00    +0.018 A 
ATOM     14  C   UNL     1     -11.747   9.515   2.019  0.00  0.00    +0.016 A 
ATOM     15  C   UNL     1     -10.843   8.500   2.256  0.00  0.00    +0.013 A 
ATOM     16 BR   UNL     1     -12.586  12.057   1.051  0.00  0.00    -0.050 Br
ENDBRANCH   7  10
ENDBRANCH   2   5
BRANCH   1  17
ATOM     17  C   UNL     1      -3.729   4.000   2.492  0.00  0.00    +0.097 C 
BRANCH  17  18
ATOM     18  C   UNL     1      -3.672   2.610   3.127  0.00  0.00    +0.016 C 
BRANCH  18  23
ATOM     19  C   UNL     1       0.296   0.487   0.849  0.00  0.00    +0.086 C 
ATOM     20  C   UNL     1      -0.580   1.090   1.917  0.00  0.00    +0.102 A 
ATOM     21  C   UNL     1      -0.241   1.264   3.207  0.00  0.00    +0.044 A 
ATOM     22  C   UNL     1      -1.354   1.859   3.845  0.00  0.00    +0.043 A 
ATOM     23  C   UNL     1      -2.305   2.013   2.907  0.00  0.00    +0.093 A 
ATOM     24  O   UNL     1      -1.829   1.551   1.740  0.00  0.00    -0.466 OA
ENDBRANCH  18  23
BRANCH  18  25
ATOM     25  N   UNL     1      -4.688   1.747   2.511  0.00  0.00    +0.387 N 
ATOM     26  C   UNL     1      -4.567   1.757   1.030  0.00  0.00    -0.078 C 
ATOM     27  C   UNL     1      -5.302   0.460   0.606  0.00  0.00    -0.020 C 
ATOM     28  C   UNL     1      -4.913  -0.538   1.721  0.00  0.00    -0.020 C 
ATOM     29  C   UNL     1      -4.506   0.338   2.921  0.00  0.00    -0.078 C 
ATOM     30  H   UNL     1      -5.659   2.142   2.845  0.00  0.00    -0.081 HD
ENDBRANCH  18  25
ENDBRANCH  17  18
ENDBRANCH   1  17
TORSDOF 6
