REMARK  Name = ZINC21971360
REMARK  9 active torsions:
REMARK  status: ('A' for Active; 'I' for Inactive)
REMARK    1  A    between atoms: C_1  and  C_2
REMARK    2  A    between atoms: C_2  and  C_3
REMARK    3  A    between atoms: C_2  and  C_4
REMARK    4  A    between atoms: C_4  and  C_6
REMARK    5  A    between atoms: C_4  and  N_24
REMARK    6  A    between atoms: N_8  and  N_9
REMARK    7  A    between atoms: C_10  and  C_12
REMARK    8  A    between atoms: C_15  and  C_17
REMARK    9  A    between atoms: C_25  and  C_27
REMARK                            x       y       z     vdW  Elec       q    Type
REMARK                         _______ _______ _______ _____ _____    ______ ____
ROOT
ATOM      1  C   UNL     1      -0.541   1.494  -2.440  0.00  0.00    +0.250 C 
ATOM      2  O   UNL     1      -1.377   0.931  -3.114  0.00  0.00    -0.272 OA
ATOM      3  N   UNL     1       0.732   1.575  -2.875  0.00  0.00    -0.233 N 
ATOM      4  H   UNL     1       1.473   2.152  -2.303  0.00  0.00    +0.173 HD
ENDROOT
BRANCH   3   5
ATOM      5  N   UNL     1       1.112   0.925  -4.056  0.00  0.00    -0.230 N 
ATOM      6  C   UNL     1       2.385   1.006  -4.492  0.00  0.00    +0.267 C 
ATOM      7  O   UNL     1       3.205   1.645  -3.858  0.00  0.00    -0.268 OA
ATOM      8  H   UNL     1       0.371   0.348  -4.629  0.00  0.00    +0.173 HD
BRANCH   6   9
ATOM      9  C   UNL     1       2.781   0.326  -5.726  0.00  0.00    +0.076 A 
ATOM     10  C   UNL     1       4.024   0.290  -6.341  0.00  0.00    +0.021 A 
ATOM     11  C   UNL     1       4.163  -0.420  -7.501  0.00  0.00    +0.017 A 
ATOM     12  C   UNL     1       3.055  -1.068  -8.022  0.00  0.00    +0.020 A 
ATOM     13  S   UNL     1       1.788  -0.664  -6.831  0.00  0.00    -0.084 S 
BRANCH  12  14
ATOM     14  C   UNL     1       2.949  -1.885  -9.249  0.00  0.00    -0.011 A 
ATOM     15  C   UNL     1       4.069  -2.080 -10.059  0.00  0.00    +0.012 A 
ATOM     16  C   UNL     1       3.966  -2.848 -11.200  0.00  0.00    +0.039 A 
ATOM     17  C   UNL     1       2.750  -3.416 -11.549  0.00  0.00    +0.123 A 
ATOM     18  C   UNL     1       1.634  -3.220 -10.751  0.00  0.00    +0.039 A 
ATOM     19  C   UNL     1       1.727  -2.459  -9.605  0.00  0.00    +0.012 A 
ATOM     20  F   UNL     1       2.653  -4.162 -12.671  0.00  0.00    -0.205 F 
ENDBRANCH  12  14
ENDBRANCH   6   9
ENDBRANCH   3   5
BRANCH   1  21
ATOM     21  C   UNL     1      -0.925   2.103  -1.116  0.00  0.00    +0.163 C 
BRANCH  21  22
ATOM     22  N   UNL     1      -2.355   2.422  -1.122  0.00  0.00    -0.300 N 
ATOM     23  C   UNL     1      -2.833   3.390  -0.315  0.00  0.00    +0.245 C 
ATOM     24  O   UNL     1      -2.077   3.998   0.418  0.00  0.00    -0.270 OA
ATOM     25  H   UNL     1      -3.038   1.871  -1.785  0.00  0.00    +0.150 HD
BRANCH  23  26
ATOM     26  C   UNL     1      -4.275   3.711  -0.321  0.00  0.00    +0.037 A 
ATOM     27  C   UNL     1      -5.144   3.018  -1.166  0.00  0.00    +0.016 A 
ATOM     28  C   UNL     1      -6.489   3.317  -1.162  0.00  0.00    +0.039 A 
ATOM     29  C   UNL     1      -6.978   4.314  -0.331  0.00  0.00    +0.123 A 
ATOM     30  C   UNL     1      -6.119   5.010   0.505  0.00  0.00    +0.039 A 
ATOM     31  C   UNL     1      -4.772   4.714   0.514  0.00  0.00    +0.016 A 
ATOM     32  F   UNL     1      -8.297   4.607  -0.336  0.00  0.00    -0.205 F 
ENDBRANCH  23  26
ENDBRANCH  21  22
BRANCH  21  34
ATOM     33  C   UNL     1      -0.877   1.779   1.361  0.00  0.00    +0.009 C 
ATOM     34  C   UNL     1      -0.629   1.109   0.008  0.00  0.00    +0.012 C 
ATOM     35  C   UNL     1      -1.544  -0.109  -0.134  0.00  0.00    +0.009 C 
ENDBRANCH  21  34
ENDBRANCH   1  21
TORSDOF 7
