REMARK  Name = ZINC20836489
REMARK  8 active torsions:
REMARK  status: ('A' for Active; 'I' for Inactive)
REMARK    1  A    between atoms: C_3  and  S_27
REMARK    2  A    between atoms: C_6  and  N_7
REMARK    3  A    between atoms: C_8  and  C_10
REMARK    4  A    between atoms: C_10  and  C_11
REMARK    5  A    between atoms: C_11  and  S_12
REMARK    6  A    between atoms: S_12  and  C_13
REMARK    7  A    between atoms: N_19  and  N_20
REMARK    8  A    between atoms: S_27  and  N_30
REMARK                            x       y       z     vdW  Elec       q    Type
REMARK                         _______ _______ _______ _____ _____    ______ ____
ROOT
ATOM      1  C   UNL     1      -2.483  -2.828  -0.208  0.00  0.00    +0.107 C 
ENDROOT
BRANCH   1   3
ATOM      2  N   UNL     1      -1.206  -0.719  -0.008  0.00  0.00    -0.285 N 
ATOM      3  C   UNL     1      -1.188  -2.062  -0.118  0.00  0.00    +0.218 C 
ATOM      4  O   UNL     1      -0.130  -2.655  -0.143  0.00  0.00    -0.275 OA
ATOM      5  H   UNL     1      -2.050  -0.251   0.087  0.00  0.00    +0.155 HD
BRANCH   2  11
ATOM      6  C   UNL     1       1.060  -0.449  -0.801  0.00  0.00    +0.025 A 
ATOM      7  C   UNL     1       2.242   0.264  -0.823  0.00  0.00    +0.030 A 
ATOM      8  C   UNL     1       2.366   1.424  -0.081  0.00  0.00    +0.105 A 
ATOM      9  C   UNL     1       1.307   1.874   0.685  0.00  0.00    +0.030 A 
ATOM     10  C   UNL     1       0.121   1.166   0.712  0.00  0.00    +0.025 A 
ATOM     11  C   UNL     1      -0.006   0.001  -0.033  0.00  0.00    +0.033 A 
BRANCH   8  12
ATOM     12  S   UNL     1       3.877   2.330  -0.111  0.00  0.00    +0.056 S 
ATOM     13  O   UNL     1       3.924   3.082   1.094  0.00  0.00    -0.153 OA
ATOM     14  O   UNL     1       4.896   1.408  -0.474  0.00  0.00    -0.153 OA
BRANCH  12  15
ATOM     15  N   UNL     1       3.767   3.425  -1.348  0.00  0.00    -0.204 NA
ATOM     16  H   UNL     1       2.963   3.465  -1.890  0.00  0.00    +0.144 HD
ATOM     17  H   UNL     1       4.506   4.026  -1.532  0.00  0.00    +0.144 HD
ENDBRANCH  12  15
ENDBRANCH   8  12
ENDBRANCH   2  11
ENDBRANCH   1   3
BRANCH   1  18
ATOM     18  C   UNL     1      -2.184  -4.324  -0.324  0.00  0.00    +0.086 C 
BRANCH  18  19
ATOM     19  S   UNL     1      -3.743  -5.245  -0.432  0.00  0.00    -0.086 S 
BRANCH  19  20
ATOM     20  C   UNL     1      -3.235  -6.928  -0.559  0.00  0.00    +0.190 A 
ATOM     21  N   UNL     1      -4.062  -8.010  -0.670  0.00  0.00    -0.303 N 
ATOM     22  H   UNL     1      -5.031  -7.987  -0.694  0.00  0.00    +0.171 HD
ATOM     23  C   UNL     1      -3.283  -9.131  -0.743  0.00  0.00    +0.235 A 
ATOM     24  N   UNL     1      -2.028  -8.758  -0.679  0.00  0.00    -0.111 NA
ATOM     25  N   UNL     1      -1.997  -7.361  -0.568  0.00  0.00    -0.121 NA
ATOM     26  N   UNL     1      -3.741 -10.436  -0.863  0.00  0.00    -0.205 N 
ATOM     27  H   UNL     1      -4.694 -10.614  -0.903  0.00  0.00    +0.177 HD
BRANCH  26  28
ATOM     28  N   UNL     1      -2.827 -11.496  -0.927  0.00  0.00    -0.189 NA
ATOM     29  C   UNL     1      -3.243 -12.688  -1.139  0.00  0.00    +0.037 C 
ATOM     30  C   UNL     1      -4.722 -12.989  -1.228  0.00  0.00    +0.052 C 
ATOM     31  C   UNL     1      -4.983 -13.773  -2.518  0.00  0.00    +0.006 C 
ATOM     32  C   UNL     1      -4.085 -15.011  -2.551  0.00  0.00    +0.001 C 
ATOM     33  C   UNL     1      -2.617 -14.586  -2.594  0.00  0.00    +0.006 C 
ATOM     34  C   UNL     1      -2.267 -13.831  -1.313  0.00  0.00    +0.052 C 
ENDBRANCH  26  28
ENDBRANCH  19  20
ENDBRANCH  18  19
ENDBRANCH   1  18
TORSDOF 8
