REMARK  Name = ZINC13032432
REMARK  7 active torsions:
REMARK  status: ('A' for Active; 'I' for Inactive)
REMARK    1  A    between atoms: C_1  and  C_2
REMARK    2  A    between atoms: C_5  and  C_8
REMARK    3  A    between atoms: C_12  and  C_13
REMARK    4  A    between atoms: N_15  and  N_16
REMARK    5  A    between atoms: N_16  and  S_17
REMARK    6  A    between atoms: S_17  and  C_20
REMARK    7  A    between atoms: C_24  and  C_26
REMARK                            x       y       z     vdW  Elec       q    Type
REMARK                         _______ _______ _______ _____ _____    ______ ____
ROOT
ATOM      1  C   UNL     1       0.002  -0.004   0.002  0.00  0.00    +0.266 C 
ATOM      2  O   UNL     1      -1.044  -0.627   0.008  0.00  0.00    -0.268 OA
ATOM      3  N   UNL     1       1.178  -0.662  -0.012  0.00  0.00    -0.227 N 
ATOM      4  H   UNL     1       2.012  -0.166  -0.017  0.00  0.00    +0.171 HD
ENDROOT
BRANCH   1   9
ATOM      5  C   UNL     1      -1.115   2.325   0.019  0.00  0.00    +0.001 A 
ATOM      6  C   UNL     1      -0.833   3.680   0.030  0.00  0.00    +0.017 A 
ATOM      7  C   UNL     1       0.459   4.087   0.020  0.00  0.00    +0.046 A 
ATOM      8  S   UNL     1       1.352   2.602   0.003  0.00  0.00    -0.091 S 
ATOM      9  C   UNL     1      -0.018   1.459   0.010  0.00  0.00    +0.083 A 
BRANCH   5  14
ATOM     10  C   UNL     1      -6.526   0.359   0.025  0.00  0.00    +0.044 C 
ATOM     11  C   UNL     1      -5.109   0.873   0.024  0.00  0.00    -0.050 A 
ATOM     12  C   UNL     1      -4.722   1.827   0.948  0.00  0.00    +0.004 A 
ATOM     13  C   UNL     1      -3.427   2.303   0.951  0.00  0.00    +0.009 A 
ATOM     14  C   UNL     1      -2.507   1.819   0.021  0.00  0.00    -0.017 A 
ATOM     15  C   UNL     1      -2.905   0.860  -0.911  0.00  0.00    +0.009 A 
ATOM     16  C   UNL     1      -4.202   0.390  -0.901  0.00  0.00    +0.004 A 
ENDBRANCH   5  14
ENDBRANCH   1   9
BRANCH   3  17
ATOM     17  N   UNL     1       1.197  -2.063  -0.020  0.00  0.00    -0.108 NA
ATOM     18  H   UNL     1       0.728  -2.558   0.670  0.00  0.00    +0.172 HD
BRANCH  17  19
ATOM     19  S   UNL     1       2.020  -2.873  -1.207  0.00  0.00    +0.074 S 
ATOM     20  O   UNL     1       1.975  -4.252  -0.864  0.00  0.00    -0.152 OA
ATOM     21  O   UNL     1       1.534  -2.381  -2.447  0.00  0.00    -0.152 OA
BRANCH  19  22
ATOM     22  C   UNL     1       3.709  -2.382  -1.098  0.00  0.00    +0.108 A 
ATOM     23  C   UNL     1       4.159  -1.292  -1.822  0.00  0.00    +0.030 A 
ATOM     24  C   UNL     1       5.482  -0.896  -1.738  0.00  0.00    +0.018 A 
ATOM     25  C   UNL     1       6.365  -1.594  -0.939  0.00  0.00    +0.032 A 
ATOM     26  C   UNL     1       5.918  -2.699  -0.209  0.00  0.00    +0.079 A 
ATOM     27  C   UNL     1       4.580  -3.089  -0.295  0.00  0.00    +0.044 A 
ATOM     28 BR   UNL     1       8.175  -1.056  -0.831  0.00  0.00    -0.049 Br
BRANCH  26  29
ATOM     29  C   UNL     1       6.856  -3.450   0.648  0.00  0.00    +0.388 C 
ATOM     30  O   UNL     1       8.020  -3.109   0.721  0.00  0.00    -0.241 OA
ATOM     31  O   UNL     1       6.422  -4.515   1.351  0.00  0.00    -0.241 OA
ENDBRANCH  26  29
ENDBRANCH  19  22
ENDBRANCH  17  19
ENDBRANCH   3  17
TORSDOF 6
