REMARK  Name = ZINC37943952
REMARK  3 active torsions:
REMARK  status: ('A' for Active; 'I' for Inactive)
REMARK    1  A    between atoms: C_2  and  C_9
REMARK    2  A    between atoms: C_9  and  C_11
REMARK    3  A    between atoms: C_9  and  N_14
REMARK                            x       y       z     vdW  Elec       q    Type
REMARK                         _______ _______ _______ _____ _____    ______ ____
ROOT
ATOM      1  C   UNL     1       1.149   3.594   0.010  0.00  0.00    +0.173 C 
ENDROOT
BRANCH   1   2
ATOM      2  N   UNL     1       2.205   4.199   0.833  0.00  0.00    -0.290 NA
ATOM      3  C   UNL     1       3.504   3.997   0.238  0.00  0.00    +0.083 C 
ATOM      4  C   UNL     1       4.612   3.747   1.282  0.00  0.00    -0.004 C 
ATOM      5  C   UNL     1       4.476   4.674   2.505  0.00  0.00    -0.081 C 
ATOM      6  N   UNL     1       4.118   6.019   2.125  0.00  0.00    +0.380 N 
ATOM      7  C   UNL     1       2.651   6.149   2.224  0.00  0.00    -0.067 C 
ATOM      8  C   UNL     1       1.951   5.646   1.044  0.00  0.00    +0.066 C 
ATOM      9  H   UNL     1       4.562   6.678   2.747  0.00  0.00    -0.086 HD
ATOM     10  H   UNL     1       4.412   6.194   1.176  0.00  0.00    -0.086 HD
ENDBRANCH   1   2
BRANCH   1  12
ATOM     11  C   UNL     1      -0.425   3.806   1.944  0.00  0.00    +0.025 A 
ATOM     12  C   UNL     1      -0.199   3.941   0.587  0.00  0.00    -0.019 A 
ATOM     13  C   UNL     1      -1.208   4.395  -0.241  0.00  0.00    +0.025 A 
ATOM     14  C   UNL     1      -2.446   4.714   0.288  0.00  0.00    +0.043 A 
ATOM     15  C   UNL     1      -2.673   4.579   1.646  0.00  0.00    +0.040 A 
ATOM     16  C   UNL     1      -1.663   4.125   2.474  0.00  0.00    +0.043 A 
ATOM     17 CL   UNL     1      -1.947   3.955   4.178  0.00  0.00    -0.083 Cl
ATOM     18 CL   UNL     1      -3.714   5.284  -0.752  0.00  0.00    -0.083 Cl
ENDBRANCH   1  12
BRANCH   1  19
ATOM     19  C   UNL     1       1.319   2.096  -0.004  0.00  0.00    +0.232 C 
ATOM     20  O   UNL     1       2.230   1.584   0.612  0.00  0.00    -0.274 OA
ATOM     21  N   UNL     1       0.459   1.327  -0.700  0.00  0.00    -0.328 N 
ATOM     22  H   UNL     1      -0.269   1.737  -1.192  0.00  0.00    +0.145 HD
ATOM     23  H   UNL     1       0.569   0.363  -0.709  0.00  0.00    +0.145 HD
ENDBRANCH   1  19
TORSDOF 3
