REMARK  Name = ZINC14595598
REMARK  10 active torsions:
REMARK  status: ('A' for Active; 'I' for Inactive)
REMARK    1  A    between atoms: C_1  and  C_2
REMARK    2  A    between atoms: C_3  and  C_35
REMARK    3  A    between atoms: C_11  and  C_13
REMARK    4  A    between atoms: C_13  and  S_14
REMARK    5  A    between atoms: S_14  and  C_15
REMARK    6  A    between atoms: C_15  and  C_17
REMARK    7  A    between atoms: C_15  and  C_18
REMARK    8  A    between atoms: N_20  and  N_21
REMARK    9  A    between atoms: C_22  and  C_24
REMARK   10  A    between atoms: C_24  and  C_25
REMARK                            x       y       z     vdW  Elec       q    Type
REMARK                         _______ _______ _______ _____ _____    ______ ____
ROOT
ATOM      1  C   UNL     1      -1.193   2.055   0.019  0.00  0.00    +0.242 C 
ATOM      2  O   UNL     1      -2.235   1.434   0.020  0.00  0.00    -0.273 OA
ATOM      3  N   UNL     1      -0.017   1.397   0.010  0.00  0.00    -0.233 N 
ATOM      4  H   UNL     1       0.816   1.893   0.004  0.00  0.00    +0.173 HD
ENDROOT
BRANCH   3   5
ATOM      5  N   UNL     1       0.002  -0.004   0.002  0.00  0.00    -0.234 N 
ATOM      6  C   UNL     1       1.178  -0.662  -0.013  0.00  0.00    +0.230 C 
ATOM      7  O   UNL     1       2.220  -0.041  -0.019  0.00  0.00    -0.274 OA
ATOM      8  H   UNL     1      -0.831  -0.500   0.007  0.00  0.00    +0.173 HD
BRANCH   6   9
ATOM      9  C   UNL     1       1.199  -2.169  -0.021  0.00  0.00    +0.104 C 
BRANCH   9  10
ATOM     10  C   UNL     1       2.648  -2.659  -0.037  0.00  0.00    -0.020 C 
ATOM     11  C   UNL     1       3.350  -2.133  -1.291  0.00  0.00    +0.011 C 
ATOM     12  C   UNL     1       4.799  -2.623  -1.307  0.00  0.00    -0.010 C 
ATOM     13  C   UNL     1       4.820  -4.153  -1.316  0.00  0.00    +0.007 C 
ATOM     14  C   UNL     1       4.118  -4.679  -0.062  0.00  0.00    -0.010 C 
ATOM     15  C   UNL     1       2.669  -4.189  -0.046  0.00  0.00    +0.011 C 
ATOM     16  C   UNL     1       4.844  -4.166   1.183  0.00  0.00    +0.007 C 
ATOM     17  C   UNL     1       4.823  -2.636   1.191  0.00  0.00    -0.010 C 
ATOM     18  C   UNL     1       5.526  -2.110  -0.062  0.00  0.00    +0.007 C 
ATOM     19  C   UNL     1       3.374  -2.146   1.208  0.00  0.00    +0.011 C 
ENDBRANCH   9  10
ENDBRANCH   6   9
ENDBRANCH   3   5
BRANCH   1  20
ATOM     20  C   UNL     1      -1.214   3.562   0.027  0.00  0.00    +0.131 C 
ATOM     21  C   UNL     1      -0.963   4.067   1.449  0.00  0.00    +0.029 C 
BRANCH  20  22
ATOM     22  S   UNL     1      -2.832   4.147  -0.547  0.00  0.00    -0.141 S 
BRANCH  22  23
ATOM     23  C   UNL     1      -2.643   5.950  -0.624  0.00  0.00    +0.144 C 
BRANCH  23  34
ATOM     24  C   UNL     1      -7.932   9.550  -2.629  0.00  0.00    +0.045 C 
ATOM     25  C   UNL     1      -7.606   8.095  -2.411  0.00  0.00    -0.026 A 
ATOM     26  C   UNL     1      -8.531   7.149  -2.641  0.00  0.00    -0.008 A 
ATOM     27  S   UNL     1      -7.679   5.633  -2.246  0.00  0.00    -0.073 S 
ATOM     28  C   UNL     1      -6.107   6.314  -1.784  0.00  0.00    +0.116 A 
ATOM     29  C   UNL     1      -6.288   7.699  -1.950  0.00  0.00    +0.075 A 
ATOM     30  C   UNL     1      -5.150   8.514  -1.641  0.00  0.00    +0.260 A 
ATOM     31  O   UNL     1      -5.208   9.726  -1.753  0.00  0.00    -0.267 OA
ATOM     32  N   UNL     1      -4.019   7.920  -1.219  0.00  0.00    -0.310 N 
ATOM     33  H   UNL     1      -3.247   8.466  -1.004  0.00  0.00    +0.170 HD
ATOM     34  C   UNL     1      -3.934   6.570  -1.093  0.00  0.00    +0.121 A 
ATOM     35  N   UNL     1      -4.953   5.801  -1.368  0.00  0.00    -0.226 NA
ATOM     36  C   UNL     1      -9.949   7.326  -3.118  0.00  0.00    +0.052 C 
ENDBRANCH  23  34
ENDBRANCH  22  23
ENDBRANCH  20  22
ENDBRANCH   1  20
TORSDOF 7
