REMARK  Name = ZINC27533856
REMARK  2 active torsions:
REMARK  status: ('A' for Active; 'I' for Inactive)
REMARK    1  A    between atoms: C_9  and  C_11
REMARK    2  A    between atoms: N_15  and  C_19
REMARK                            x       y       z     vdW  Elec       q    Type
REMARK                         _______ _______ _______ _____ _____    ______ ____
ROOT
ATOM      1  C   UNL     1      -1.017  -0.687  -0.869  0.00  0.00    +0.066 C 
ATOM      2  C   UNL     1       0.010   0.098  -0.453  0.00  0.00    +0.080 C 
ATOM      3  C   UNL     1       1.470  -0.152  -0.498  0.00  0.00    +0.263 C 
ATOM      4  O   UNL     1       1.929  -1.181  -0.956  0.00  0.00    -0.269 OA
ATOM      5  N   UNL     1       2.248   0.802  -0.015  0.00  0.00    -0.224 N 
ATOM      6  C   UNL     1       1.734   1.942   0.491  0.00  0.00    +0.125 C 
ATOM      7  S   UNL     1       2.570   3.280   1.155  0.00  0.00    -0.027 S 
ATOM      8  S   UNL     1      -0.027   1.719   0.301  0.00  0.00    -0.061 S 
ENDROOT
BRANCH   1  17
ATOM      9  C   UNL     1      -0.492  -6.106  -3.364  0.00  0.00    +0.002 A 
ATOM     10  C   UNL     1       0.862  -5.855  -3.180  0.00  0.00    +0.002 A 
ATOM     11  C   UNL     1       1.284  -4.686  -2.616  0.00  0.00    +0.030 A 
ATOM     12  C   UNL     1       0.346  -3.725  -2.216  0.00  0.00    +0.089 A 
ATOM     13  C   UNL     1      -1.026  -3.981  -2.403  0.00  0.00    +0.066 A 
ATOM     14  C   UNL     1      -1.434  -5.177  -2.978  0.00  0.00    +0.028 A 
ATOM     15  N   UNL     1      -1.695  -2.876  -1.916  0.00  0.00    -0.338 N 
ATOM     16  H   UNL     1      -2.794  -2.841  -1.946  0.00  0.00    +0.167 HD
ATOM     17  C   UNL     1      -0.742  -1.996  -1.465  0.00  0.00    +0.133 A 
ATOM     18  N   UNL     1       0.455  -2.511  -1.646  0.00  0.00    -0.228 NA
ENDBRANCH   1  17
BRANCH   5  19
ATOM     19  C   UNL     1       3.638   0.626  -0.030  0.00  0.00    +0.044 A 
ATOM     20  C   UNL     1       4.275   0.033   1.052  0.00  0.00    +0.025 A 
ATOM     21  C   UNL     1       5.644  -0.145   1.034  0.00  0.00    +0.023 A 
ATOM     22  C   UNL     1       6.384   0.277  -0.057  0.00  0.00    +0.059 A 
ATOM     23  C   UNL     1       5.752   0.873  -1.135  0.00  0.00    +0.061 A 
ATOM     24  C   UNL     1       4.380   1.048  -1.124  0.00  0.00    +0.045 A 
ATOM     25 CL   UNL     1       6.682   1.400  -2.503  0.00  0.00    -0.082 Cl
ATOM     26 CL   UNL     1       8.106   0.058  -0.074  0.00  0.00    -0.082 Cl
ENDBRANCH   5  19
TORSDOF 2
