REMARK  Name = ZINC41657610
REMARK  2 active torsions:
REMARK  status: ('A' for Active; 'I' for Inactive)
REMARK    1  A    between atoms: C_5  and  C_7
REMARK    2  A    between atoms: N_19  and  C_22
REMARK                            x       y       z     vdW  Elec       q    Type
REMARK                         _______ _______ _______ _____ _____    ______ ____
ROOT
ATOM      1  C   UNL     1       1.255  -2.153  -0.023  0.00  0.00    +0.059 C 
ATOM      2  C   UNL     1       0.100  -2.855   0.087  0.00  0.00    +0.176 C 
ATOM      3  C   UNL     1      -1.260  -2.293   0.112  0.00  0.00    +0.231 C 
ATOM      4  O   UNL     1      -1.585  -1.121   0.041  0.00  0.00    -0.283 OA
ATOM      5  C   UNL     1      -2.142  -3.467   0.242  0.00  0.00    +0.068 A 
ATOM      6  C   UNL     1      -3.527  -3.618   0.321  0.00  0.00    +0.019 A 
ATOM      7  C   UNL     1      -4.069  -4.864   0.440  0.00  0.00    +0.047 A 
ATOM      8  C   UNL     1      -3.246  -5.990   0.483  0.00  0.00    +0.130 A 
ATOM      9  C   UNL     1      -1.871  -5.854   0.404  0.00  0.00    +0.051 A 
ATOM     10  C   UNL     1      -1.302  -4.591   0.284  0.00  0.00    +0.147 A 
ATOM     11  O   UNL     1      -0.013  -4.200   0.187  0.00  0.00    -0.451 OA
ATOM     12  C   UNL     1      -0.971  -7.063   0.441  0.00  0.00    +0.130 C 
ATOM     13  N   UNL     1      -1.714  -8.214   0.974  0.00  0.00    -0.261 NA
ATOM     14  C   UNL     1      -3.006  -8.349   0.281  0.00  0.00    +0.319 C 
ATOM     15  O   UNL     1      -3.817  -7.217   0.606  0.00  0.00    -0.476 OA
ENDROOT
BRANCH   1  20
ATOM     16  C   UNL     1       0.408   1.340   1.045  0.00  0.00    +0.001 A 
ATOM     17  C   UNL     1       1.188   2.083   0.175  0.00  0.00    +0.001 A 
ATOM     18  C   UNL     1       1.991   1.451  -0.758  0.00  0.00    +0.016 A 
ATOM     19  C   UNL     1       2.019   0.073  -0.830  0.00  0.00    +0.025 A 
ATOM     20  C   UNL     1       1.232  -0.685   0.046  0.00  0.00    -0.007 A 
ATOM     21  C   UNL     1       0.424  -0.037   0.988  0.00  0.00    +0.009 A 
ATOM     22 BR   UNL     1       3.115  -0.788  -2.107  0.00  0.00    -0.050 Br
ENDBRANCH   1  20
BRANCH  13  23
ATOM     23  C   UNL     1      -0.925  -9.448   0.861  0.00  0.00    +0.083 C 
ATOM     24  C   UNL     1      -0.730  -9.806  -0.622  0.00  0.00    +0.043 C 
ATOM     25  C   UNL     1      -0.188 -11.250  -0.750  0.00  0.00    +0.167 C 
ATOM     26  S   UNL     1      -0.850 -12.065   0.760  0.00  0.00    -0.029 S 
ATOM     27  O   UNL     1       0.237 -12.474   1.579  0.00  0.00    -0.174 OA
ATOM     28  O   UNL     1      -1.835 -13.015   0.379  0.00  0.00    -0.174 OA
ATOM     29  C   UNL     1      -1.682 -10.621   1.546  0.00  0.00    +0.184 C 
ENDBRANCH  13  23
TORSDOF 2
