REMARK  Name = ZINC20577511
REMARK  3 active torsions:
REMARK  status: ('A' for Active; 'I' for Inactive)
REMARK    1  A    between atoms: N_10  and  C_11
REMARK    2  A    between atoms: C_11  and  C_12
REMARK    3  A    between atoms: N_19  and  C_26
REMARK                            x       y       z     vdW  Elec       q    Type
REMARK                         _______ _______ _______ _____ _____    ______ ____
ROOT
ATOM      1  C   UNL     1      -0.412   4.659   2.874  0.00  0.00    +0.001 A 
ATOM      2  C   UNL     1      -0.056   4.342   1.576  0.00  0.00    +0.002 A 
ATOM      3  C   UNL     1      -0.598   3.235   0.957  0.00  0.00    +0.024 A 
ATOM      4  C   UNL     1      -1.508   2.427   1.634  0.00  0.00    +0.044 A 
ATOM      5  C   UNL     1      -1.859   2.756   2.941  0.00  0.00    +0.028 A 
ATOM      6  C   UNL     1      -1.316   3.863   3.554  0.00  0.00    +0.010 A 
ATOM      7  C   UNL     1      -2.834   1.704   3.371  0.00  0.00    +0.263 C 
ATOM      8  C   UNL     1      -2.989   0.789   2.194  0.00  0.00    +0.271 C 
ATOM      9  O   UNL     1      -3.697  -0.193   2.126  0.00  0.00    -0.271 OA
ATOM     10  N   UNL     1      -2.182   1.272   1.228  0.00  0.00    -0.263 N 
ATOM     11  N   UNL     1      -4.102   2.247   3.849  0.00  0.00    -0.233 N 
ATOM     12  C   UNL     1      -4.353   2.234   5.157  0.00  0.00    +0.243 C 
ATOM     13  O   UNL     1      -5.396   2.664   5.602  0.00  0.00    -0.273 OA
ATOM     14  C   UNL     1      -3.281   1.660   6.072  0.00  0.00    +0.265 C 
ATOM     15  S   UNL     1      -2.215   0.793   4.838  0.00  0.00    +0.013 S 
ATOM     16  O   UNL     1      -2.602  -0.571   4.749  0.00  0.00    -0.171 OA
ATOM     17  O   UNL     1      -0.853   1.131   5.066  0.00  0.00    -0.171 OA
ENDROOT
BRANCH  11  18
ATOM     18  C   UNL     1      -5.037   2.771   2.948  0.00  0.00    +0.042 A 
ATOM     19  C   UNL     1      -6.071   1.973   2.477  0.00  0.00    +0.026 A 
ATOM     20  C   UNL     1      -6.994   2.490   1.589  0.00  0.00    +0.043 A 
ATOM     21  C   UNL     1      -6.889   3.805   1.168  0.00  0.00    +0.159 A 
ATOM     22  C   UNL     1      -5.858   4.605   1.637  0.00  0.00    +0.160 A 
ATOM     23  C   UNL     1      -4.936   4.091   2.530  0.00  0.00    +0.065 A 
ATOM     24  F   UNL     1      -5.757   5.887   1.225  0.00  0.00    -0.202 F 
ATOM     25  F   UNL     1      -7.793   4.309   0.299  0.00  0.00    -0.202 F 
ENDBRANCH  11  18
BRANCH  10  26
ATOM     26  C   UNL     1      -2.034   0.661  -0.096  0.00  0.00    +0.149 C 
BRANCH  26  27
ATOM     27  C   UNL     1      -0.912  -0.345  -0.062  0.00  0.00    -0.027 A 
ATOM     28  C   UNL     1       0.379   0.049  -0.360  0.00  0.00    +0.005 A 
ATOM     29  C   UNL     1       1.407  -0.874  -0.335  0.00  0.00    +0.003 A 
ATOM     30  C   UNL     1       1.146  -2.192  -0.012  0.00  0.00    +0.038 A 
ATOM     31  C   UNL     1      -0.147  -2.588   0.287  0.00  0.00    +0.124 A 
ATOM     32  C   UNL     1      -1.176  -1.662   0.262  0.00  0.00    +0.043 A 
ATOM     33  F   UNL     1      -0.404  -3.876   0.603  0.00  0.00    -0.205 F 
ENDBRANCH  26  27
ENDBRANCH  10  26
TORSDOF 3
