REMARK  Name = ZINC51373291
REMARK  13 active torsions:
REMARK  status: ('A' for Active; 'I' for Inactive)
REMARK    1  A    between atoms: C_1  and  C_2
REMARK    2  A    between atoms: C_2  and  C_3
REMARK    3  A    between atoms: C_6  and  C_9
REMARK    4  A    between atoms: C_9  and  N_10
REMARK    5  A    between atoms: N_10  and  C_11
REMARK    6  A    between atoms: N_10  and  C_12
REMARK    7  A    between atoms: C_12  and  C_13
REMARK    8  A    between atoms: N_15  and  C_16
REMARK    9  A    between atoms: C_16  and  C_17
REMARK   10  A    between atoms: C_20  and  N_23
REMARK   11  A    between atoms: N_26  and  C_27
REMARK   12  A    between atoms: C_27  and  C_28
REMARK   13  A    between atoms: C_27  and  C_29
REMARK                            x       y       z     vdW  Elec       q    Type
REMARK                         _______ _______ _______ _____ _____    ______ ____
ROOT
ATOM      1  C   UNL     1      -8.682  -0.257  -0.187  0.00  0.00    +0.197 C 
ATOM      2  O   UNL     1      -8.253   0.877  -0.183  0.00  0.00    -0.278 OA
ATOM      3  N   UNL     1     -10.007  -0.476  -0.296  0.00  0.00    -0.313 N 
ATOM      4  H   UNL     1     -10.350  -1.383  -0.299  0.00  0.00    +0.149 HD
ENDROOT
BRANCH   1   5
ATOM      5  C   UNL     1      -7.733  -1.422  -0.068  0.00  0.00    +0.019 C 
BRANCH   5   6
ATOM      6  N   UNL     1      -6.356  -0.923   0.038  0.00  0.00    +0.386 N 
ATOM      7  C   UNL     1      -6.203  -0.168   1.289  0.00  0.00    -0.095 C 
ATOM      8  H   UNL     1      -6.155  -0.319  -0.745  0.00  0.00    -0.081 HD
BRANCH   6   9
ATOM      9  C   UNL     1      -5.422  -2.057   0.033  0.00  0.00    -0.043 C 
BRANCH   9  13
ATOM     10  C   UNL     1      -1.407  -0.599  -0.010  0.00  0.00    -0.048 A 
ATOM     11  C   UNL     1      -2.046  -0.830   1.194  0.00  0.00    +0.004 A 
ATOM     12  C   UNL     1      -3.345  -1.301   1.208  0.00  0.00    +0.002 A 
ATOM     13  C   UNL     1      -4.006  -1.542   0.018  0.00  0.00    -0.064 A 
ATOM     14  C   UNL     1      -3.367  -1.310  -1.186  0.00  0.00    +0.002 A 
ATOM     15  C   UNL     1      -2.070  -0.835  -1.200  0.00  0.00    +0.004 A 
BRANCH  10  17
ATOM     16  C   UNL     1      -0.003   1.445  -0.025  0.00  0.00    +0.009 C 
ATOM     17  C   UNL     1       0.009  -0.085  -0.025  0.00  0.00    +0.032 C 
ENDBRANCH  10  17
ENDBRANCH   9  13
ENDBRANCH   6   9
ENDBRANCH   5   6
ENDBRANCH   1   5
BRANCH   3  18
ATOM     18  C   UNL     1     -10.929   0.657  -0.412  0.00  0.00    +0.139 C 
BRANCH  18  19
ATOM     19  C   UNL     1     -12.342   0.145  -0.521  0.00  0.00    -0.030 A 
ATOM     20  C   UNL     1     -12.883  -0.132  -1.763  0.00  0.00    +0.007 A 
ATOM     21  C   UNL     1     -14.178  -0.601  -1.866  0.00  0.00    +0.023 A 
ATOM     22  C   UNL     1     -14.937  -0.796  -0.720  0.00  0.00    +0.035 A 
ATOM     23  C   UNL     1     -14.392  -0.517   0.526  0.00  0.00    +0.023 A 
ATOM     24  C   UNL     1     -13.094  -0.054   0.623  0.00  0.00    +0.007 A 
BRANCH  22  25
ATOM     25  N   UNL     1     -16.250  -1.271  -0.821  0.00  0.00    -0.269 N 
ATOM     26  C   UNL     1     -17.021  -0.902  -1.862  0.00  0.00    +0.304 C 
ATOM     27  O   UNL     1     -16.553  -0.225  -2.757  0.00  0.00    -0.253 OA
ATOM     28  N   UNL     1     -18.313  -1.283  -1.912  0.00  0.00    -0.297 N 
ATOM     29  H   UNL     1     -16.604  -1.866  -0.141  0.00  0.00    +0.156 HD
ATOM     30  H   UNL     1     -18.687  -1.823  -1.198  0.00  0.00    +0.151 HD
BRANCH  28  31
ATOM     31  C   UNL     1     -19.152  -0.882  -3.044  0.00  0.00    +0.068 C 
ATOM     32  C   UNL     1     -20.298  -1.883  -3.209  0.00  0.00    +0.027 C 
ATOM     33  C   UNL     1     -19.726   0.512  -2.784  0.00  0.00    +0.027 C 
ENDBRANCH  28  31
ENDBRANCH  22  25
ENDBRANCH  18  19
ENDBRANCH   3  18
TORSDOF 9
