REMARK  Name = ZINC13959412
REMARK  11 active torsions:
REMARK  status: ('A' for Active; 'I' for Inactive)
REMARK    1  A    between atoms: C_1  and  C_2
REMARK    2  A    between atoms: C_2  and  N_3
REMARK    3  A    between atoms: N_3  and  C_4
REMARK    4  A    between atoms: N_3  and  C_6
REMARK    5  A    between atoms: C_4  and  C_5
REMARK    6  A    between atoms: C_6  and  C_7
REMARK    7  A    between atoms: C_7  and  N_8
REMARK    8  A    between atoms: N_17  and  C_18
REMARK    9  A    between atoms: C_18  and  C_20
REMARK   10  A    between atoms: C_26  and  C_33
REMARK   11  A    between atoms: C_28  and  C_29
REMARK                            x       y       z     vdW  Elec       q    Type
REMARK                         _______ _______ _______ _____ _____    ______ ____
ROOT
ATOM      1  C   UNL     1      -2.026  -4.836   4.058  0.00  0.00    +0.275 C 
ATOM      2  O   UNL     1      -1.655  -5.992   3.946  0.00  0.00    -0.268 OA
ENDROOT
BRANCH   1  12
ATOM      3  N   UNL     1      -2.330  -4.002   0.577  0.00  0.00    -0.314 N 
ATOM      4  C   UNL     1      -2.207  -4.930  -0.452  0.00  0.00    +0.068 A 
ATOM      5  C   UNL     1      -2.238  -4.819  -1.835  0.00  0.00    +0.028 A 
ATOM      6  C   UNL     1      -2.083  -5.945  -2.619  0.00  0.00    +0.002 A 
ATOM      7  C   UNL     1      -1.897  -7.185  -2.032  0.00  0.00    +0.002 A 
ATOM      8  C   UNL     1      -1.864  -7.306  -0.657  0.00  0.00    +0.028 A 
ATOM      9  C   UNL     1      -2.018  -6.181   0.140  0.00  0.00    +0.066 A 
ATOM     10  N   UNL     1      -2.031  -5.989   1.518  0.00  0.00    -0.326 N 
ATOM     11  C   UNL     1      -2.215  -4.662   1.763  0.00  0.00    +0.201 A 
ATOM     12  N   UNL     1      -2.276  -4.102   2.963  0.00  0.00    -0.142 NA
ATOM     13  H   UNL     1      -1.923  -6.681   2.190  0.00  0.00    +0.169 HD
BRANCH   3  14
ATOM     14  C   UNL     1      -2.542  -2.562   0.413  0.00  0.00    +0.106 C 
BRANCH  14  15
ATOM     15  C   UNL     1      -1.188  -1.853   0.334  0.00  0.00    -0.057 C 
BRANCH  15  16
ATOM     16  N   UNL     1      -1.397  -0.428   0.045  0.00  0.00    +0.380 N 
ATOM     17  H   UNL     1      -1.938  -0.332  -0.801  0.00  0.00    -0.082 HD
BRANCH  16  19
ATOM     18  C   UNL     1      -2.447   1.649   0.808  0.00  0.00    -0.017 C 
ATOM     19  C   UNL     1      -2.119   0.197   1.161  0.00  0.00    -0.082 C 
ENDBRANCH  16  19
BRANCH  16  20
ATOM     20  C   UNL     1      -0.097   0.233  -0.128  0.00  0.00    -0.082 C 
ATOM     21  C   UNL     1       0.604  -0.337  -1.363  0.00  0.00    -0.017 C 
ENDBRANCH  16  20
ENDBRANCH  15  16
ENDBRANCH  14  15
ENDBRANCH   3  14
ENDBRANCH   1  12
BRANCH   1  22
ATOM     22  C   UNL     1      -2.200  -4.245   5.393  0.00  0.00    +0.103 A 
ATOM     23  C   UNL     1      -2.624  -2.937   5.680  0.00  0.00    +0.150 A 
ATOM     24  N   UNL     1      -2.656  -2.780   6.978  0.00  0.00    -0.172 NA
ATOM     25  N   UNL     1      -2.258  -3.967   7.602  0.00  0.00    -0.209 N 
ATOM     26  C   UNL     1      -1.979  -4.885   6.628  0.00  0.00    +0.169 A 
ATOM     27  N   UNL     1      -1.578  -6.116   6.941  0.00  0.00    -0.224 NA
ATOM     28  C   UNL     1      -1.444  -6.483   8.209  0.00  0.00    +0.110 A 
ATOM     29  C   UNL     1      -1.728  -5.560   9.242  0.00  0.00    +0.064 A 
ATOM     30  C   UNL     1      -2.127  -4.309   8.919  0.00  0.00    +0.149 A 
BRANCH  28  31
ATOM     31  C   UNL     1      -1.000  -7.848   8.540  0.00  0.00    +0.153 A 
ATOM     32  C   UNL     1      -0.691  -8.828   7.644  0.00  0.00    +0.051 A 
ATOM     33  C   UNL     1      -0.320  -9.958   8.394  0.00  0.00    +0.042 A 
ATOM     34  C   UNL     1      -0.419  -9.620   9.697  0.00  0.00    +0.196 A 
ATOM     35  O   UNL     1      -0.824  -8.344   9.780  0.00  0.00    -0.461 OA
ENDBRANCH  28  31
BRANCH  30  36
ATOM     36  C   UNL     1      -2.439  -3.307  10.001  0.00  0.00    +0.434 C 
ATOM     37  F   UNL     1      -2.228  -3.892  11.254  0.00  0.00    -0.164 F 
ATOM     38  F   UNL     1      -1.604  -2.193   9.860  0.00  0.00    -0.164 F 
ATOM     39  F   UNL     1      -3.774  -2.905   9.892  0.00  0.00    -0.164 F 
ENDBRANCH  30  36
ENDBRANCH   1  22
TORSDOF 9
