REMARK  Name = ZINC41014356
REMARK  3 active torsions:
REMARK  status: ('A' for Active; 'I' for Inactive)
REMARK    1  A    between atoms: C_1  and  N_2
REMARK    2  A    between atoms: C_5  and  N_13
REMARK    3  A    between atoms: C_14  and  C_16
REMARK                            x       y       z     vdW  Elec       q    Type
REMARK                         _______ _______ _______ _____ _____    ______ ____
ROOT
ATOM      1  N   UNL     1      -4.790  -0.236  -0.611  0.00  0.00    -0.285 N 
ATOM      2  C   UNL     1      -5.916  -0.972  -0.702  0.00  0.00    +0.223 C 
ATOM      3  O   UNL     1      -5.893  -2.152  -0.424  0.00  0.00    -0.275 OA
ATOM      4  H   UNL     1      -4.822   0.720  -0.767  0.00  0.00    +0.155 HD
ENDROOT
BRANCH   1   9
ATOM      5  C   UNL     1       0.085   0.749  -1.751  0.00  0.00    +0.138 C 
ATOM      6  N   UNL     1       0.011  -0.560  -1.097  0.00  0.00    -0.269 N 
ATOM      7  C   UNL     1      -1.193  -1.008  -0.537  0.00  0.00    +0.080 A 
ATOM      8  C   UNL     1      -2.393  -0.395  -0.857  0.00  0.00    +0.050 A 
ATOM      9  C   UNL     1      -3.574  -0.854  -0.290  0.00  0.00    +0.035 A 
ATOM     10  C   UNL     1      -3.551  -1.924   0.595  0.00  0.00    +0.027 A 
ATOM     11  C   UNL     1      -2.354  -2.537   0.914  0.00  0.00    +0.049 A 
ATOM     12  C   UNL     1      -1.174  -2.083   0.351  0.00  0.00    +0.143 A 
ATOM     13  O   UNL     1       0.011  -2.679   0.653  0.00  0.00    -0.481 OA
ATOM     14  C   UNL     1       0.997  -2.713  -0.382  0.00  0.00    +0.325 C 
ATOM     15  C   UNL     1       1.101  -1.355  -1.030  0.00  0.00    +0.257 C 
ATOM     16  O   UNL     1       2.160  -0.978  -1.486  0.00  0.00    -0.272 OA
ENDBRANCH   1   9
BRANCH   2  17
ATOM     17  C   UNL     1      -7.203  -0.327  -1.148  0.00  0.00    +0.048 C 
ATOM     18  C   UNL     1      -7.024   0.250  -2.554  0.00  0.00    +0.019 C 
ATOM     19  C   UNL     1      -8.331   0.904  -3.006  0.00  0.00    -0.009 C 
ATOM     20  C   UNL     1      -9.447  -0.143  -3.023  0.00  0.00    +0.007 C 
ATOM     21  C   UNL     1      -9.626  -0.720  -1.617  0.00  0.00    -0.009 C 
ATOM     22  C   UNL     1      -8.319  -1.374  -1.165  0.00  0.00    +0.019 C 
ATOM     23  C   UNL     1      -9.996   0.404  -0.648  0.00  0.00    +0.007 C 
ATOM     24  C   UNL     1      -8.880   1.451  -0.631  0.00  0.00    -0.009 C 
ATOM     25  C   UNL     1      -8.701   2.028  -2.037  0.00  0.00    +0.007 C 
ATOM     26  C   UNL     1      -7.573   0.797  -0.178  0.00  0.00    +0.019 C 
ENDBRANCH   2  17
TORSDOF 2
