REMARK  Name = ZINC63944339
REMARK  10 active torsions:
REMARK  status: ('A' for Active; 'I' for Inactive)
REMARK    1  A    between atoms: C_1  and  C_2
REMARK    2  A    between atoms: C_2  and  C_3
REMARK    3  A    between atoms: C_2  and  C_4
REMARK    4  A    between atoms: C_2  and  N_5
REMARK    5  A    between atoms: N_5  and  S_6
REMARK    6  A    between atoms: S_6  and  C_9
REMARK    7  A    between atoms: C_13  and  C_15
REMARK    8  A    between atoms: N_17  and  C_18
REMARK    9  A    between atoms: C_25  and  C_27
REMARK   10  A    between atoms: C_27  and  C_28
REMARK                            x       y       z     vdW  Elec       q    Type
REMARK                         _______ _______ _______ _____ _____    ______ ____
ROOT
ATOM      1  C   UNL     1       2.977  -4.428   2.564  0.00  0.00    +0.283 C 
ATOM      2  O   UNL     1       3.881  -4.808   3.284  0.00  0.00    -0.267 OA
ATOM      3  N   UNL     1       1.916  -5.227   2.337  0.00  0.00    -0.279 N 
ATOM      4  H   UNL     1       1.232  -4.956   1.704  0.00  0.00    +0.155 HD
ENDROOT
BRANCH   3   5
ATOM      5  C   UNL     1       1.800  -6.447   3.012  0.00  0.00    +0.036 A 
ATOM      6  C   UNL     1       2.282  -6.567   4.314  0.00  0.00    +0.025 A 
ATOM      7  C   UNL     1       2.177  -7.750   4.988  0.00  0.00    +0.032 A 
ATOM      8  C   UNL     1       1.582  -8.854   4.371  0.00  0.00    +0.089 A 
ATOM      9  C   UNL     1       1.095  -8.737   3.058  0.00  0.00    +0.068 A 
ATOM     10  C   UNL     1       1.202  -7.527   2.386  0.00  0.00    +0.051 A 
ATOM     11  N   UNL     1       0.574  -9.973   2.733  0.00  0.00    -0.341 N 
ATOM     12  C   UNL     1       0.749 -10.783   3.813  0.00  0.00    +0.113 A 
ATOM     13  N   UNL     1       1.338 -10.129   4.771  0.00  0.00    -0.232 NA
ATOM     14  H   UNL     1       0.160 -10.219   1.891  0.00  0.00    +0.167 HD
BRANCH  12  15
ATOM     15  C   UNL     1       0.323 -12.226   3.888  0.00  0.00    +0.112 C 
BRANCH  15  16
ATOM     16  C   UNL     1       1.507 -13.081   4.260  0.00  0.00    -0.005 A 
ATOM     17  C   UNL     1       2.256 -13.692   3.272  0.00  0.00    +0.007 A 
ATOM     18  C   UNL     1       3.342 -14.476   3.612  0.00  0.00    +0.000 A 
ATOM     19  C   UNL     1       3.681 -14.651   4.941  0.00  0.00    +0.003 A 
ATOM     20  C   UNL     1       2.933 -14.041   5.931  0.00  0.00    +0.038 A 
ATOM     21  C   UNL     1       1.848 -13.251   5.591  0.00  0.00    +0.127 A 
ATOM     22  F   UNL     1       1.119 -12.651   6.557  0.00  0.00    -0.205 F 
ENDBRANCH  15  16
ENDBRANCH  12  15
ENDBRANCH   3   5
BRANCH   1  26
ATOM     23  C   UNL     1       2.234  -1.173   1.035  0.00  0.00    +0.334 C 
ATOM     24  C   UNL     1       3.745  -0.995   1.322  0.00  0.00    +0.101 C 
ATOM     25  C   UNL     1       4.060  -2.250   2.117  0.00  0.00    +0.029 C 
ATOM     26  C   UNL     1       3.044  -3.094   1.940  0.00  0.00    +0.181 C 
ATOM     27  O   UNL     1       2.077  -2.601   1.126  0.00  0.00    -0.461 OA
BRANCH  23  28
ATOM     28  S   UNL     1       1.817  -0.580  -0.628  0.00  0.00    +0.068 S 
ATOM     29  O   UNL     1       2.642  -1.214  -1.595  0.00  0.00    -0.155 OA
ATOM     30  O   UNL     1       1.664   0.833  -0.620  0.00  0.00    -0.155 OA
BRANCH  28  31
ATOM     31  N   UNL     1       0.296  -1.167  -0.920  0.00  0.00    -0.186 NA
ATOM     32  H   UNL     1       0.164  -1.860  -1.585  0.00  0.00    +0.148 HD
BRANCH  31  34
ATOM     33  C   UNL     1      -1.077   0.824  -0.555  0.00  0.00    +0.029 C 
ATOM     34  C   UNL     1      -0.849  -0.640  -0.173  0.00  0.00    +0.031 C 
ATOM     35  C   UNL     1      -0.567  -0.738   1.328  0.00  0.00    +0.029 C 
ATOM     36  C   UNL     1      -2.098  -1.456  -0.512  0.00  0.00    +0.029 C 
ENDBRANCH  31  34
ENDBRANCH  28  31
ENDBRANCH  23  28
ENDBRANCH   1  26
TORSDOF 7
