REMARK  Name = ZINC21804054
REMARK  7 active torsions:
REMARK  status: ('A' for Active; 'I' for Inactive)
REMARK    1  A    between atoms: C_1  and  C_2
REMARK    2  A    between atoms: C_3  and  C_21
REMARK    3  A    between atoms: N_12  and  C_13
REMARK    4  A    between atoms: C_13  and  C_14
REMARK    5  A    between atoms: C_21  and  C_22
REMARK    6  A    between atoms: C_22  and  C_23
REMARK    7  A    between atoms: N_25  and  C_26
REMARK                            x       y       z     vdW  Elec       q    Type
REMARK                         _______ _______ _______ _____ _____    ______ ____
ROOT
ATOM      1  C   UNL     1      -1.349   2.086   0.030  0.00  0.00    +0.066 C 
ATOM      2  C   UNL     1      -0.029   1.358   0.013  0.00  0.00    +0.050 A 
ATOM      3  C   UNL     1      -0.004   0.006   0.001  0.00  0.00    +0.040 A 
ATOM      4  C   UNL     1       1.237  -0.667  -0.021  0.00  0.00    +0.279 A 
ATOM      5  O   UNL     1       1.273  -1.885  -0.032  0.00  0.00    -0.265 OA
ATOM      6  N   UNL     1       2.379   0.043  -0.029  0.00  0.00    -0.158 N 
ATOM      7  C   UNL     1       2.345   1.403  -0.016  0.00  0.00    +0.258 A 
ATOM      8  N   UNL     1       1.138   2.062   0.005  0.00  0.00    -0.215 NA
ATOM      9  N   UNL     1       3.590   1.834  -0.027  0.00  0.00    -0.176 NA
ATOM     10  C   UNL     1       4.428   0.792  -0.047  0.00  0.00    +0.237 A 
ATOM     11  N   UNL     1       3.732  -0.322  -0.049  0.00  0.00    -0.125 NA
ATOM     12  N   UNL     1       5.818   0.875  -0.063  0.00  0.00    -0.308 N 
ATOM     13  H   UNL     1       6.424  -0.043  -0.079  0.00  0.00    +0.149 HD
ENDROOT
BRANCH  12  14
ATOM     14  C   UNL     1       6.474   2.185  -0.059  0.00  0.00    +0.139 C 
BRANCH  14  15
ATOM     15  C   UNL     1       7.969   1.999  -0.079  0.00  0.00    -0.030 A 
ATOM     16  C   UNL     1       8.670   1.908   1.109  0.00  0.00    +0.006 A 
ATOM     17  C   UNL     1      10.040   1.731   1.092  0.00  0.00    +0.020 A 
ATOM     18  C   UNL     1      10.713   1.657  -0.115  0.00  0.00    +0.041 A 
ATOM     19  C   UNL     1      10.011   1.753  -1.304  0.00  0.00    +0.020 A 
ATOM     20  C   UNL     1       8.640   1.924  -1.285  0.00  0.00    +0.006 A 
ATOM     21 CL   UNL     1      12.435   1.441  -0.138  0.00  0.00    -0.084 Cl
ENDBRANCH  14  15
ENDBRANCH  12  14
BRANCH   3  22
ATOM     22  C   UNL     1      -1.291  -0.777   0.010  0.00  0.00    +0.051 C 
BRANCH  22  23
ATOM     23  C   UNL     1      -1.680  -1.137  -1.425  0.00  0.00    +0.101 C 
BRANCH  23  24
ATOM     24  C   UNL     1      -2.967  -1.920  -1.416  0.00  0.00    +0.218 C 
ATOM     25  O   UNL     1      -3.519  -2.167  -0.364  0.00  0.00    -0.275 OA
ATOM     26  N   UNL     1      -3.505  -2.347  -2.576  0.00  0.00    -0.285 N 
ATOM     27  H   UNL     1      -3.046  -2.059  -3.533  0.00  0.00    +0.155 HD
BRANCH  26  28
ATOM     28  C   UNL     1      -4.647  -3.155  -2.562  0.00  0.00    +0.033 A 
ATOM     29  C   UNL     1      -4.808  -4.148  -3.519  0.00  0.00    +0.023 A 
ATOM     30  C   UNL     1      -5.933  -4.949  -3.499  0.00  0.00    +0.002 A 
ATOM     31  C   UNL     1      -6.904  -4.755  -2.534  0.00  0.00    +0.000 A 
ATOM     32  C   UNL     1      -6.750  -3.763  -1.583  0.00  0.00    +0.002 A 
ATOM     33  C   UNL     1      -5.624  -2.963  -1.594  0.00  0.00    +0.023 A 
ENDBRANCH  26  28
ENDBRANCH  23  24
ENDBRANCH  22  23
ENDBRANCH   3  22
TORSDOF 6
