REMARK  Name = ZINC05330560
REMARK  4 active torsions:
REMARK  status: ('A' for Active; 'I' for Inactive)
REMARK    1  A    between atoms: C_1  and  C_2
REMARK    2  A    between atoms: C_4  and  C_27
REMARK    3  A    between atoms: C_15  and  C_18
REMARK    4  A    between atoms: C_21  and  N_24
REMARK                            x       y       z     vdW  Elec       q    Type
REMARK                         _______ _______ _______ _____ _____    ______ ____
ROOT
ATOM      1  C   UNL     1       3.046   1.849  -0.329  0.00  0.00    +0.044 C 
ATOM      2  C   UNL     1       1.638   2.377  -0.234  0.00  0.00    -0.050 A 
ATOM      3  C   UNL     1       0.568   1.502  -0.190  0.00  0.00    +0.008 A 
ATOM      4  C   UNL     1      -0.720   1.984  -0.114  0.00  0.00    -0.029 A 
ATOM      5  C   UNL     1      -0.969   3.357  -0.074  0.00  0.00    +0.034 A 
ATOM      6  C   UNL     1       0.122   4.230  -0.109  0.00  0.00    -0.019 A 
ATOM      7  C   UNL     1       1.407   3.739  -0.191  0.00  0.00    +0.009 A 
ATOM      8  C   UNL     1      -0.153   5.682  -0.044  0.00  0.00    +0.049 C 
ATOM      9  C   UNL     1       0.734   6.693  -0.669  0.00  0.00    -0.023 C 
ATOM     10  C   UNL     1      -0.010   7.720  -1.067  0.00  0.00    -0.030 C 
ATOM     11  C   UNL     1      -1.485   7.444  -0.762  0.00  0.00    +0.033 C 
ATOM     12  C   UNL     1      -1.516   5.911  -0.770  0.00  0.00    +0.029 C 
ATOM     13  C   UNL     1      -2.538   5.216   0.105  0.00  0.00    +0.105 C 
ATOM     14  N   UNL     1      -2.299   3.769  -0.017  0.00  0.00    -0.336 N 
ATOM     15  C   UNL     1      -1.875   1.017  -0.069  0.00  0.00    +0.045 C 
ATOM     16  H   UNL     1      -2.831   3.377  -0.780  0.00  0.00    +0.147 HD
ENDROOT
BRANCH  13  17
ATOM     17  C   UNL     1      -2.365   5.646   1.539  0.00  0.00    -0.027 A 
ATOM     18  C   UNL     1      -2.982   6.796   1.995  0.00  0.00    +0.008 A 
ATOM     19  C   UNL     1      -2.826   7.189   3.311  0.00  0.00    +0.033 A 
ATOM     20  C   UNL     1      -2.047   6.436   4.169  0.00  0.00    +0.126 A 
ATOM     21  C   UNL     1      -1.426   5.288   3.712  0.00  0.00    +0.033 A 
ATOM     22  C   UNL     1      -1.585   4.894   2.397  0.00  0.00    +0.008 A 
BRANCH  20  23
ATOM     23  N   UNL     1      -1.877   6.858   5.578  0.00  0.00    +0.056 N 
ATOM     24  O   UNL     1      -1.190   6.194   6.334  0.00  0.00    -0.126 OA
ATOM     25  O   UNL     1      -2.424   7.869   5.981  0.00  0.00    -0.126 OA
ENDBRANCH  20  23
ENDBRANCH  13  17
TORSDOF 2
