REMARK  Name = ZINC56532874
REMARK  4 active torsions:
REMARK  status: ('A' for Active; 'I' for Inactive)
REMARK    1  A    between atoms: C_1  and  C_2
REMARK    2  A    between atoms: C_5  and  C_7
REMARK    3  A    between atoms: N_17  and  C_18
REMARK    4  A    between atoms: C_23  and  C_24
REMARK                            x       y       z     vdW  Elec       q    Type
REMARK                         _______ _______ _______ _____ _____    ______ ____
ROOT
ATOM      1  C   UNL     1       0.921  -4.617  -0.309  0.00  0.00    +0.253 C 
ATOM      2  O   UNL     1       0.289  -5.448   0.316  0.00  0.00    -0.269 OA
ATOM      3  N   UNL     1       2.255  -4.750  -0.448  0.00  0.00    -0.294 N 
ATOM      4  C   UNL     1       3.065  -3.645  -0.982  0.00  0.00    +0.127 C 
ATOM      5  C   UNL     1       4.174  -3.319   0.026  0.00  0.00    +0.128 C 
ATOM      6  N   UNL     1       4.845  -4.570   0.407  0.00  0.00    -0.282 N 
ATOM      7  C   UNL     1       4.036  -5.674   0.941  0.00  0.00    +0.128 C 
ATOM      8  C   UNL     1       2.927  -5.998  -0.062  0.00  0.00    +0.127 C 
ATOM      9  C   UNL     1       6.180  -4.702   0.269  0.00  0.00    +0.307 C 
ATOM     10  O   UNL     1       6.850  -3.754  -0.092  0.00  0.00    -0.252 OA
ATOM     11  N   UNL     1       6.770  -5.885   0.530  0.00  0.00    -0.269 N 
ATOM     12  H   UNL     1       6.244  -6.625   0.869  0.00  0.00    +0.156 HD
ENDROOT
BRANCH  11  13
ATOM     13  C   UNL     1       8.144  -6.044   0.313  0.00  0.00    +0.038 A 
ATOM     14  C   UNL     1       8.998  -4.955   0.429  0.00  0.00    +0.025 A 
ATOM     15  C   UNL     1      10.352  -5.115   0.214  0.00  0.00    +0.022 A 
ATOM     16  C   UNL     1      10.860  -6.359  -0.117  0.00  0.00    +0.041 A 
ATOM     17  C   UNL     1      10.011  -7.446  -0.234  0.00  0.00    +0.025 A 
ATOM     18  C   UNL     1       8.656  -7.293  -0.014  0.00  0.00    -0.028 A 
ATOM     19  C   UNL     1       7.734  -8.478  -0.134  0.00  0.00    +0.046 C 
ATOM     20 CL   UNL     1      12.563  -6.557  -0.387  0.00  0.00    -0.084 Cl
ENDBRANCH  11  13
BRANCH   1  25
ATOM     21  C   UNL     1      -0.697  -0.075  -3.066  0.00  0.00    +0.051 C 
ATOM     22  C   UNL     1      -0.521  -1.315  -2.227  0.00  0.00    -0.013 A 
ATOM     23  C   UNL     1      -1.450  -1.947  -1.469  0.00  0.00    +0.011 A 
ATOM     24  C   UNL     1      -1.089  -3.075  -0.771  0.00  0.00    +0.021 A 
ATOM     25  C   UNL     1       0.232  -3.473  -0.912  0.00  0.00    +0.074 A 
ATOM     26  S   UNL     1       0.871  -2.234  -2.023  0.00  0.00    -0.089 S 
ENDBRANCH   1  25
TORSDOF 2
