REMARK  Name = ZINC32914585
REMARK  9 active torsions:
REMARK  status: ('A' for Active; 'I' for Inactive)
REMARK    1  A    between atoms: C_1  and  C_2
REMARK    2  A    between atoms: C_2  and  C_3
REMARK    3  A    between atoms: C_3  and  C_4
REMARK    4  A    between atoms: N_9  and  C_10
REMARK    5  A    between atoms: C_10  and  C_11
REMARK    6  A    between atoms: N_13  and  C_14
REMARK    7  A    between atoms: C_14  and  C_15
REMARK    8  A    between atoms: C_15  and  N_16
REMARK    9  A    between atoms: C_17  and  C_19
REMARK                            x       y       z     vdW  Elec       q    Type
REMARK                         _______ _______ _______ _____ _____    ______ ____
ROOT
ATOM      1  C   UNL     1       4.859   0.829  -0.040  0.00  0.00    +0.233 C 
ATOM      2  O   UNL     1       4.875  -0.384  -0.047  0.00  0.00    -0.274 OA
ATOM      3  N   UNL     1       3.682   1.487  -0.025  0.00  0.00    -0.312 N 
ATOM      4  H   UNL     1       3.667   2.587  -0.019  0.00  0.00    +0.149 HD
ENDROOT
BRANCH   1   5
ATOM      5  C   UNL     1       6.153   1.600  -0.048  0.00  0.00    +0.221 C 
BRANCH   5  11
ATOM      6  C   UNL     1       7.912   0.148   1.041  0.00  0.00    +0.135 A 
ATOM      7  N   UNL     1       8.856  -0.645   0.649  0.00  0.00    -0.133 NA
ATOM      8  N   UNL     1       8.865  -0.656  -0.752  0.00  0.00    -0.122 NA
ATOM      9  C   UNL     1       7.876   0.165  -1.165  0.00  0.00    +0.203 A 
ATOM     10  S   UNL     1       7.456   0.509  -2.789  0.00  0.00    -0.009 SA
ATOM     11  N   UNL     1       7.280   0.663  -0.064  0.00  0.00    -0.296 N 
BRANCH   6  12
ATOM     12  C   UNL     1       7.561   0.453   2.474  0.00  0.00    +0.076 C 
BRANCH  12  14
ATOM     13  C   UNL     1       6.163  -0.243   4.425  0.00  0.00    +0.004 C 
ATOM     14  C   UNL     1       6.519  -0.553   2.970  0.00  0.00    +0.004 C 
ENDBRANCH  12  14
ENDBRANCH   6  12
ENDBRANCH   5  11
ENDBRANCH   1   5
BRANCH   3  15
ATOM     15  C   UNL     1       2.424   0.737  -0.017  0.00  0.00    +0.123 C 
BRANCH  15  16
ATOM     16  C   UNL     1       1.248   1.716  -0.001  0.00  0.00    +0.123 C 
BRANCH  16  17
ATOM     17  N   UNL     1      -0.011   0.966   0.007  0.00  0.00    -0.310 N 
ATOM     18  C   UNL     1      -1.187   1.624   0.017  0.00  0.00    +0.244 C 
ATOM     19  O   UNL     1      -1.204   2.839   0.023  0.00  0.00    -0.270 OA
ATOM     20  H   UNL     1       0.004  -0.134   0.006  0.00  0.00    +0.149 HD
BRANCH  18  21
ATOM     21  C   UNL     1      -2.457   0.868   0.018  0.00  0.00    +0.038 A 
ATOM     22  C   UNL     1      -2.441  -0.529   0.005  0.00  0.00    +0.014 A 
ATOM     23  C   UNL     1      -3.629  -1.229   0.012  0.00  0.00    +0.022 A 
ATOM     24  C   UNL     1      -4.836  -0.551   0.021  0.00  0.00    +0.059 A 
ATOM     25  C   UNL     1      -4.859   0.834   0.029  0.00  0.00    +0.060 A 
ATOM     26  C   UNL     1      -3.677   1.546   0.028  0.00  0.00    +0.034 A 
ATOM     27 CL   UNL     1      -6.378   1.676   0.042  0.00  0.00    -0.082 Cl
ATOM     28 CL   UNL     1      -6.327  -1.441   0.023  0.00  0.00    -0.082 Cl
ENDBRANCH  18  21
ENDBRANCH  16  17
ENDBRANCH  15  16
ENDBRANCH   3  15
TORSDOF 8
