REMARK  Name = ZINC36071979
REMARK  7 active torsions:
REMARK  status: ('A' for Active; 'I' for Inactive)
REMARK    1  A    between atoms: C_1  and  C_2
REMARK    2  A    between atoms: C_3  and  C_26
REMARK    3  A    between atoms: C_4  and  C_19
REMARK    4  A    between atoms: C_7  and  C_12
REMARK    5  A    between atoms: C_13  and  N_15
REMARK    6  A    between atoms: N_15  and  C_16
REMARK    7  A    between atoms: N_28  and  C_29
REMARK                            x       y       z     vdW  Elec       q    Type
REMARK                         _______ _______ _______ _____ _____    ______ ____
ROOT
ATOM      1  C   UNL     1      -1.824   1.196   1.457  0.00  0.00    +0.066 C 
ATOM      2  C   UNL     1      -1.116  -0.018   0.911  0.00  0.00    +0.051 C 
ATOM      3  C   UNL     1      -1.852  -1.076   0.418  0.00  0.00    +0.061 C 
ATOM      4  C   UNL     1      -1.096  -2.271  -0.120  0.00  0.00    +0.148 C 
ATOM      5  N   UNL     1       0.389  -2.208  -0.074  0.00  0.00    -0.267 N 
ATOM      6  C   UNL     1       1.276  -3.175  -0.506  0.00  0.00    +0.048 C 
ATOM      7  C   UNL     1       2.596  -2.919  -0.373  0.00  0.00    +0.072 C 
ATOM      8  S   UNL     1       2.585  -1.299   0.369  0.00  0.00    -0.060 S 
ATOM      9  C   UNL     1       0.925  -1.067   0.456  0.00  0.00    +0.166 C 
ATOM     10  N   UNL     1       0.207  -0.058   0.903  0.00  0.00    -0.230 NA
ENDROOT
BRANCH   4  11
ATOM     11  C   UNL     1      -1.534  -3.485   0.658  0.00  0.00    -0.021 A 
ATOM     12  C   UNL     1      -1.147  -3.637   1.977  0.00  0.00    +0.006 A 
ATOM     13  C   UNL     1      -1.548  -4.750   2.691  0.00  0.00    +0.002 A 
ATOM     14  C   UNL     1      -2.335  -5.713   2.087  0.00  0.00    +0.020 A 
ATOM     15  C   UNL     1      -2.722  -5.561   0.767  0.00  0.00    +0.041 A 
ATOM     16  C   UNL     1      -2.325  -4.443   0.055  0.00  0.00    +0.025 A 
ATOM     17 CL   UNL     1      -3.710  -6.770   0.008  0.00  0.00    -0.084 Cl
ENDBRANCH   4  11
BRANCH   3  18
ATOM     18  C   UNL     1      -3.254  -1.045   0.415  0.00  0.00    +0.248 C 
ATOM     19  O   UNL     1      -3.845  -0.132   0.967  0.00  0.00    -0.270 OA
ATOM     20  N   UNL     1      -3.949  -2.024  -0.197  0.00  0.00    -0.282 N 
ATOM     21  H   UNL     1      -3.485  -2.798  -0.554  0.00  0.00    +0.155 HD
BRANCH  20  22
ATOM     22  C   UNL     1      -5.338  -1.926  -0.317  0.00  0.00    +0.034 A 
ATOM     23  C   UNL     1      -5.937  -0.683  -0.478  0.00  0.00    +0.023 A 
ATOM     24  C   UNL     1      -7.309  -0.589  -0.596  0.00  0.00    +0.002 A 
ATOM     25  C   UNL     1      -8.088  -1.731  -0.555  0.00  0.00    +0.000 A 
ATOM     26  C   UNL     1      -7.496  -2.970  -0.394  0.00  0.00    +0.002 A 
ATOM     27  C   UNL     1      -6.123  -3.071  -0.280  0.00  0.00    +0.023 A 
ENDBRANCH  20  22
ENDBRANCH   3  18
BRANCH   6  28
ATOM     28  C   UNL     1       0.800  -4.438  -1.089  0.00  0.00    +0.091 C 
ATOM     29  C   UNL     1       1.677  -5.419  -1.378  0.00  0.00    +0.239 C 
ATOM     30  O   UNL     1       3.007  -5.203  -1.233  0.00  0.00    -0.271 OA
BRANCH  29  31
ATOM     31  N   UNL     1       1.219  -6.648  -1.822  0.00  0.00    -0.309 N 
ATOM     32  H   UNL     1       0.274  -6.779  -1.997  0.00  0.00    +0.149 HD
BRANCH  31  33
ATOM     33  C   UNL     1       2.162  -7.750  -2.028  0.00  0.00    +0.073 C 
ATOM     34  C   UNL     1       2.061  -8.530  -3.340  0.00  0.00    +0.024 C 
ATOM     35  C   UNL     1       1.597  -9.172  -2.030  0.00  0.00    +0.024 C 
ENDBRANCH  31  33
ENDBRANCH  29  31
ENDBRANCH   6  28
TORSDOF 6
