REMARK  Name = ZINC16866137
REMARK  14 active torsions:
REMARK  status: ('A' for Active; 'I' for Inactive)
REMARK    1  A    between atoms: C_1  and  C_2
REMARK    2  A    between atoms: C_2  and  N_3
REMARK    3  A    between atoms: C_4  and  C_25
REMARK    4  A    between atoms: C_7  and  S_8
REMARK    5  A    between atoms: S_8  and  C_9
REMARK    6  A    between atoms: C_9  and  C_11
REMARK    7  A    between atoms: C_9  and  C_12
REMARK    8  A    between atoms: N_14  and  C_15
REMARK    9  A    between atoms: C_19  and  S_21
REMARK   10  A    between atoms: S_21  and  N_24
REMARK   11  A    between atoms: C_28  and  C_31
REMARK   12  A    between atoms: C_31  and  C_32
REMARK   13  A    between atoms: C_31  and  C_33
REMARK   14  A    between atoms: C_31  and  C_34
REMARK                            x       y       z     vdW  Elec       q    Type
REMARK                         _______ _______ _______ _____ _____    ______ ____
ROOT
ATOM      1  S   UNL     1       1.609   1.619  -0.018  0.00  0.00    -0.074 S 
ENDROOT
BRANCH   1   6
ATOM      2  N   UNL     1       3.554   0.976  -1.922  0.00  0.00    -0.302 N 
ATOM      3  C   UNL     1       3.608   0.212  -3.065  0.00  0.00    +0.165 A 
ATOM      4  N   UNL     1       2.417  -0.311  -3.236  0.00  0.00    -0.128 NA
ATOM      5  N   UNL     1       1.633   0.063  -2.289  0.00  0.00    -0.122 NA
ATOM      6  C   UNL     1       2.274   0.857  -1.460  0.00  0.00    +0.193 A 
BRANCH   3   7
ATOM      7  C   UNL     1       4.787   0.017  -3.936  0.00  0.00    +0.019 A 
ATOM      8  C   UNL     1       6.069   0.276  -3.449  0.00  0.00    +0.012 A 
ATOM      9  C   UNL     1       7.165   0.086  -4.265  0.00  0.00    +0.005 A 
ATOM     10  C   UNL     1       6.995  -0.349  -5.567  0.00  0.00    -0.042 A 
ATOM     11  C   UNL     1       5.726  -0.602  -6.058  0.00  0.00    +0.005 A 
ATOM     12  C   UNL     1       4.622  -0.422  -5.251  0.00  0.00    +0.012 A 
BRANCH  10  13
ATOM     13  C   UNL     1       8.196  -0.547  -6.455  0.00  0.00    -0.013 C 
ATOM     14  C   UNL     1       8.083   0.364  -7.678  0.00  0.00    +0.015 C 
ATOM     15  C   UNL     1       9.468  -0.202  -5.677  0.00  0.00    +0.015 C 
ATOM     16  C   UNL     1       8.258  -2.007  -6.910  0.00  0.00    +0.015 C 
ENDBRANCH  10  13
ENDBRANCH   3   7
BRANCH   2  18
ATOM     17  C   UNL     1       5.334   0.922  -0.247  0.00  0.00    +0.027 C 
ATOM     18  C   UNL     1       4.641   1.756  -1.326  0.00  0.00    +0.122 C 
ENDBRANCH   2  18
ENDBRANCH   1   6
BRANCH   1  19
ATOM     19  C   UNL     1      -0.088   0.993  -0.086  0.00  0.00    +0.137 C 
ATOM     20  C   UNL     1      -0.787   1.550  -1.328  0.00  0.00    +0.029 C 
BRANCH  19  21
ATOM     21  C   UNL     1      -0.835   1.429   1.149  0.00  0.00    +0.230 C 
ATOM     22  O   UNL     1      -0.483   2.421   1.751  0.00  0.00    -0.274 OA
ATOM     23  N   UNL     1      -1.893   0.716   1.583  0.00  0.00    -0.285 N 
ATOM     24  H   UNL     1      -2.123  -0.122   1.152  0.00  0.00    +0.155 HD
BRANCH  23  25
ATOM     25  C   UNL     1      -2.660   1.185   2.655  0.00  0.00    +0.035 A 
ATOM     26  C   UNL     1      -2.716   2.546   2.928  0.00  0.00    +0.023 A 
ATOM     27  C   UNL     1      -3.473   3.006   3.987  0.00  0.00    +0.004 A 
ATOM     28  C   UNL     1      -4.176   2.113   4.776  0.00  0.00    +0.028 A 
ATOM     29  C   UNL     1      -4.122   0.758   4.507  0.00  0.00    +0.107 A 
ATOM     30  C   UNL     1      -3.371   0.292   3.445  0.00  0.00    +0.051 A 
BRANCH  29  31
ATOM     31  S   UNL     1      -5.020  -0.376   5.514  0.00  0.00    +0.056 S 
ATOM     32  O   UNL     1      -4.370  -1.633   5.389  0.00  0.00    -0.153 OA
ATOM     33  O   UNL     1      -5.213   0.261   6.769  0.00  0.00    -0.153 OA
BRANCH  31  34
ATOM     34  N   UNL     1      -6.521  -0.550   4.836  0.00  0.00    -0.204 NA
ATOM     35  H   UNL     1      -7.003  -1.387   4.933  0.00  0.00    +0.144 HD
ATOM     36  H   UNL     1      -6.919   0.185   4.343  0.00  0.00    +0.144 HD
ENDBRANCH  31  34
ENDBRANCH  29  31
ENDBRANCH  23  25
ENDBRANCH  19  21
ENDBRANCH   1  19
TORSDOF 9
