REMARK  Name = ZINC08663676
REMARK  4 active torsions:
REMARK  status: ('A' for Active; 'I' for Inactive)
REMARK    1  A    between atoms: C_1  and  S_2
REMARK    2  A    between atoms: S_2  and  N_5
REMARK    3  A    between atoms: C_6  and  C_17
REMARK    4  A    between atoms: C_9  and  C_11
REMARK                            x       y       z     vdW  Elec       q    Type
REMARK                         _______ _______ _______ _____ _____    ______ ____
ROOT
ATOM      1  N   UNL     1       0.002  -0.004   0.002  0.00  0.00    -0.120 N 
ATOM      2  C   UNL     1      -0.073  -0.868   1.191  0.00  0.00    +0.156 C 
ATOM      3  C   UNL     1      -0.014  -2.293   0.607  0.00  0.00    +0.088 C 
ATOM      4  C   UNL     1       0.100  -2.071  -0.884  0.00  0.00    +0.070 C 
ATOM      5  N   UNL     1       0.102  -0.807  -1.132  0.00  0.00    -0.167 NA
ENDROOT
BRANCH   2   6
ATOM      6  C   UNL     1      -1.373  -0.651   1.923  0.00  0.00    +0.014 A 
ATOM      7  C   UNL     1      -2.457  -0.153   1.257  0.00  0.00    +0.018 A 
ATOM      8  C   UNL     1      -3.651   0.035   1.978  0.00  0.00    +0.004 A 
ATOM      9  C   UNL     1      -4.804   0.544   1.359  0.00  0.00    +0.059 A 
ATOM     10  C   UNL     1      -5.946   0.714   2.087  0.00  0.00    +0.167 A 
ATOM     11  C   UNL     1      -5.979   0.385   3.453  0.00  0.00    +0.168 A 
ATOM     12  C   UNL     1      -4.872  -0.112   4.079  0.00  0.00    +0.078 A 
ATOM     13  C   UNL     1      -3.682  -0.298   3.355  0.00  0.00    +0.076 A 
ATOM     14  N   UNL     1      -2.585  -0.783   3.948  0.00  0.00    -0.235 NA
ATOM     15  C   UNL     1      -1.471  -0.963   3.277  0.00  0.00    +0.135 A 
ATOM     16 CL   UNL     1      -0.083  -1.601   4.101  0.00  0.00    -0.062 Cl
ATOM     17  O   UNL     1      -7.231   0.652   3.930  0.00  0.00    -0.453 OA
ATOM     18  C   UNL     1      -7.834   1.528   2.960  0.00  0.00    +0.466 C 
ATOM     19  O   UNL     1      -7.176   1.184   1.726  0.00  0.00    -0.453 OA
ENDBRANCH   2   6
BRANCH   4  20
ATOM     20  C   UNL     1       0.194  -3.137  -1.899  0.00  0.00    -0.002 A 
ATOM     21  C   UNL     1       0.188  -4.479  -1.510  0.00  0.00    +0.010 A 
ATOM     22  C   UNL     1       0.272  -5.471  -2.464  0.00  0.00    +0.001 A 
ATOM     23  C   UNL     1       0.372  -5.140  -3.804  0.00  0.00    +0.000 A 
ATOM     24  C   UNL     1       0.383  -3.813  -4.197  0.00  0.00    +0.001 A 
ATOM     25  C   UNL     1       0.295  -2.810  -3.253  0.00  0.00    +0.010 A 
ENDBRANCH   4  20
BRANCH   1  27
ATOM     26  C   UNL     1       1.726   2.142  -0.003  0.00  0.00    +0.220 C 
ATOM     27  S   UNL     1      -0.020   1.652   0.011  0.00  0.00    +0.057 S 
ATOM     28  O   UNL     1      -0.640   2.013  -1.216  0.00  0.00    -0.154 OA
ATOM     29  O   UNL     1      -0.616   2.000   1.253  0.00  0.00    -0.154 OA
ENDBRANCH   1  27
TORSDOF 3
