REMARK  Name = ZINC35425775
REMARK  3 active torsions:
REMARK  status: ('A' for Active; 'I' for Inactive)
REMARK    1  A    between atoms: N_13  and  C_15
REMARK    2  A    between atoms: C_15  and  C_16
REMARK    3  A    between atoms: N_18  and  C_19
REMARK                            x       y       z     vdW  Elec       q    Type
REMARK                         _______ _______ _______ _____ _____    ______ ____
ROOT
ATOM      1  C   UNL     1      -0.224   0.918  -0.374  0.00  0.00    +0.002 A 
ATOM      2  C   UNL     1       0.846   1.786  -0.528  0.00  0.00    +0.002 A 
ATOM      3  C   UNL     1       2.142   1.317  -0.446  0.00  0.00    +0.028 A 
ATOM      4  C   UNL     1       2.379  -0.028  -0.207  0.00  0.00    +0.078 A 
ATOM      5  C   UNL     1       1.302  -0.912  -0.049  0.00  0.00    +0.090 A 
ATOM      6  C   UNL     1      -0.006  -0.421  -0.136  0.00  0.00    +0.030 A 
ATOM      7  N   UNL     1       1.512  -2.236   0.185  0.00  0.00    -0.227 NA
ATOM      8  C   UNL     1       2.721  -2.734   0.272  0.00  0.00    +0.167 A 
ATOM      9  C   UNL     1       3.891  -1.855   0.116  0.00  0.00    +0.203 A 
ATOM     10  N   UNL     1       3.686  -0.505  -0.124  0.00  0.00    -0.239 N 
ATOM     11  C   UNL     1       4.888   0.091  -0.231  0.00  0.00    +0.352 A 
ATOM     12  O   UNL     1       5.086   1.275  -0.441  0.00  0.00    -0.244 OA
ATOM     13  N   UNL     1       5.833  -0.857  -0.064  0.00  0.00    -0.203 N 
ATOM     14  N   UNL     1       5.177  -2.076   0.154  0.00  0.00    -0.145 NA
ATOM     15  N   UNL     1       2.897  -4.082   0.511  0.00  0.00    -0.311 N 
ATOM     16  C   UNL     1       4.245  -4.652   0.478  0.00  0.00    +0.117 C 
ATOM     17  C   UNL     1       4.628  -5.139   1.881  0.00  0.00    +0.088 C 
ATOM     18  S   UNL     1       3.385  -6.343   2.438  0.00  0.00    -0.158 S 
ATOM     19  C   UNL     1       1.818  -5.443   2.234  0.00  0.00    +0.088 C 
ATOM     20  C   UNL     1       1.735  -4.923   0.799  0.00  0.00    +0.117 C 
ENDROOT
BRANCH  13  21
ATOM     21  C   UNL     1       7.283  -0.649  -0.104  0.00  0.00    +0.244 C 
BRANCH  21  22
ATOM     22  C   UNL     1       7.783  -0.329   1.281  0.00  0.00    +0.239 C 
ATOM     23  O   UNL     1       7.005  -0.279   2.210  0.00  0.00    -0.273 OA
ATOM     24  N   UNL     1       9.094  -0.098   1.488  0.00  0.00    -0.284 N 
ATOM     25  H   UNL     1       9.705  -0.062   0.735  0.00  0.00    +0.155 HD
BRANCH  24  26
ATOM     26  C   UNL     1       9.575   0.091   2.789  0.00  0.00    +0.034 A 
ATOM     27  C   UNL     1      10.617   0.979   3.023  0.00  0.00    +0.024 A 
ATOM     28  C   UNL     1      11.090   1.164   4.308  0.00  0.00    +0.017 A 
ATOM     29  C   UNL     1      10.525   0.466   5.361  0.00  0.00    +0.018 A 
ATOM     30  C   UNL     1       9.487  -0.419   5.130  0.00  0.00    +0.017 A 
ATOM     31  C   UNL     1       9.007  -0.604   3.848  0.00  0.00    +0.024 A 
ATOM     32 BR   UNL     1      11.175   0.721   7.118  0.00  0.00    -0.050 Br
ENDBRANCH  24  26
ENDBRANCH  21  22
ENDBRANCH  13  21
TORSDOF 3
