REMARK  Name = ZINC39596754
REMARK  6 active torsions:
REMARK  status: ('A' for Active; 'I' for Inactive)
REMARK    1  A    between atoms: C_1  and  C_2
REMARK    2  A    between atoms: C_2  and  C_4
REMARK    3  A    between atoms: C_2  and  N_10
REMARK    4  A    between atoms: C_11  and  C_13
REMARK    5  A    between atoms: C_24  and  C_26
REMARK    6  A    between atoms: C_30  and  C_32
REMARK                            x       y       z     vdW  Elec       q    Type
REMARK                         _______ _______ _______ _____ _____    ______ ____
ROOT
ATOM      1  C   UNL     1      -2.982  -1.546  -1.334  0.00  0.00    +0.100 C 
ATOM      2  C   UNL     1      -3.288  -2.938  -0.738  0.00  0.00    +0.121 C 
ATOM      3  N   UNL     1      -4.376  -3.478  -1.586  0.00  0.00    -0.296 N 
ATOM      4  C   UNL     1      -4.015  -3.057  -2.961  0.00  0.00    +0.115 C 
ATOM      5  C   UNL     1      -3.460  -1.628  -2.794  0.00  0.00    -0.004 C 
ATOM      6  C   UNL     1      -2.290  -1.403  -3.747  0.00  0.00    -0.010 C 
ATOM      7  C   UNL     1      -2.800  -1.430  -5.190  0.00  0.00    -0.082 C 
ATOM      8  N   UNL     1      -3.815  -0.385  -5.373  0.00  0.00    +0.379 N 
ATOM      9  C   UNL     1      -4.977  -0.661  -4.520  0.00  0.00    -0.082 C 
ATOM     10  C   UNL     1      -4.559  -0.601  -3.048  0.00  0.00    -0.010 C 
ATOM     11  C   UNL     1      -5.451  -4.192  -1.196  0.00  0.00    +0.247 C 
ATOM     12  O   UNL     1      -5.668  -4.366  -0.013  0.00  0.00    -0.270 OA
ATOM     13  H   UNL     1      -3.422   0.510  -5.124  0.00  0.00    -0.086 HD
ATOM     14  H   UNL     1      -4.105  -0.365  -6.339  0.00  0.00    -0.086 HD
ENDROOT
BRANCH  11  15
ATOM     15  C   UNL     1      -6.365  -4.762  -2.207  0.00  0.00    +0.038 A 
ATOM     16  C   UNL     1      -5.922  -4.969  -3.515  0.00  0.00    +0.016 A 
ATOM     17  C   UNL     1      -6.779  -5.501  -4.454  0.00  0.00    +0.039 A 
ATOM     18  C   UNL     1      -8.079  -5.831  -4.102  0.00  0.00    +0.135 A 
ATOM     19  C   UNL     1      -8.524  -5.628  -2.805  0.00  0.00    +0.091 A 
ATOM     20  C   UNL     1      -7.673  -5.101  -1.856  0.00  0.00    +0.028 A 
ATOM     21  F   UNL     1      -8.916  -6.352  -5.026  0.00  0.00    -0.205 F 
BRANCH  19  22
ATOM     22  C   UNL     1      -9.938  -5.988  -2.429  0.00  0.00    +0.420 C 
ATOM     23  F   UNL     1     -10.152  -5.694  -1.078  0.00  0.00    -0.166 F 
ATOM     24  F   UNL     1     -10.832  -5.250  -3.213  0.00  0.00    -0.166 F 
ATOM     25  F   UNL     1     -10.145  -7.354  -2.648  0.00  0.00    -0.166 F 
ENDBRANCH  19  22
ENDBRANCH  11  15
BRANCH   1  27
ATOM     26  N   UNL     1      -1.059   0.003  -1.188  0.00  0.00    -0.308 N 
ATOM     27  C   UNL     1      -1.502  -1.267  -1.282  0.00  0.00    +0.219 C 
ATOM     28  O   UNL     1      -0.710  -2.184  -1.324  0.00  0.00    -0.275 OA
ATOM     29  H   UNL     1      -1.692   0.736  -1.154  0.00  0.00    +0.149 HD
BRANCH  26  31
ATOM     30  C   UNL     1       0.937   0.340  -2.561  0.00  0.00    +0.033 C 
ATOM     31  C   UNL     1       0.380   0.274  -1.137  0.00  0.00    +0.100 C 
BRANCH  31  32
ATOM     32  C   UNL     1       0.618   1.591  -0.443  0.00  0.00    -0.027 A 
ATOM     33  C   UNL     1      -0.225   2.660  -0.681  0.00  0.00    +0.005 A 
ATOM     34  C   UNL     1      -0.006   3.867  -0.044  0.00  0.00    +0.000 A 
ATOM     35  C   UNL     1       1.055   4.005   0.831  0.00  0.00    +0.000 A 
ATOM     36  C   UNL     1       1.898   2.935   1.069  0.00  0.00    +0.000 A 
ATOM     37  C   UNL     1       1.677   1.727   0.436  0.00  0.00    +0.005 A 
ENDBRANCH  31  32
ENDBRANCH  26  31
ENDBRANCH   1  27
TORSDOF 5
