REMARK  Name = ZINC25582949
REMARK  8 active torsions:
REMARK  status: ('A' for Active; 'I' for Inactive)
REMARK    1  A    between atoms: C_1  and  C_2
REMARK    2  A    between atoms: C_5  and  O_30
REMARK    3  A    between atoms: C_6  and  N_8
REMARK    4  A    between atoms: C_10  and  C_15
REMARK    5  A    between atoms: N_17  and  C_18
REMARK    6  A    between atoms: C_18  and  C_19
REMARK    7  A    between atoms: C_22  and  C_24
REMARK    8  A    between atoms: O_30  and  C_31
REMARK                            x       y       z     vdW  Elec       q    Type
REMARK                         _______ _______ _______ _____ _____    ______ ____
ROOT
ATOM      1  C   UNL     1      -7.148   4.469   2.156  0.00  0.00    +0.218 C 
ATOM      2  O   UNL     1      -6.687   5.503   2.592  0.00  0.00    -0.275 OA
ATOM      3  N   UNL     1      -8.484   4.301   2.094  0.00  0.00    -0.309 N 
ATOM      4  H   UNL     1      -8.903   3.364   1.699  0.00  0.00    +0.149 HD
ENDROOT
BRANCH   1   7
ATOM      5  N   UNL     1      -4.119   2.445   2.347  0.00  0.00    -0.267 N 
ATOM      6  C   UNL     1      -4.754   3.721   1.995  0.00  0.00    +0.127 C 
ATOM      7  C   UNL     1      -6.228   3.373   1.684  0.00  0.00    +0.101 C 
ATOM      8  C   UNL     1      -6.429   2.086   2.516  0.00  0.00    +0.110 C 
ATOM      9  C   UNL     1      -5.036   1.511   2.653  0.00  0.00    +0.221 C 
ATOM     10  O   UNL     1      -4.783   0.374   2.990  0.00  0.00    -0.275 OA
BRANCH   5  16
ATOM     11  C   UNL     1      -0.013   1.086   0.008  0.00  0.00    +0.044 C 
ATOM     12  C   UNL     1      -0.718   1.572   1.248  0.00  0.00    -0.048 A 
ATOM     13  C   UNL     1       0.003   1.805   2.405  0.00  0.00    +0.007 A 
ATOM     14  C   UNL     1      -0.639   2.251   3.545  0.00  0.00    +0.048 A 
ATOM     15  C   UNL     1      -2.008   2.465   3.532  0.00  0.00    +0.141 A 
ATOM     16  C   UNL     1      -2.734   2.230   2.367  0.00  0.00    +0.078 A 
ATOM     17  C   UNL     1      -2.083   1.789   1.224  0.00  0.00    +0.030 A 
BRANCH  15  18
ATOM     18  O   UNL     1      -2.640   2.903   4.653  0.00  0.00    -0.493 OA
ATOM     19  C   UNL     1      -1.832   3.122   5.810  0.00  0.00    +0.277 C 
ENDBRANCH  15  18
ENDBRANCH   5  16
ENDBRANCH   1   7
BRANCH   3  20
ATOM     20  C   UNL     1      -9.379   5.367   2.553  0.00  0.00    +0.160 C 
BRANCH  20  21
ATOM     21  C   UNL     1     -10.810   4.931   2.378  0.00  0.00    +0.066 A 
ATOM     22  C   UNL     1     -11.480   4.361   3.414  0.00  0.00    +0.072 A 
ATOM     23  S   UNL     1     -13.072   4.064   2.655  0.00  0.00    -0.075 S 
ATOM     24  C   UNL     1     -12.670   4.722   1.042  0.00  0.00    +0.109 A 
ATOM     25  N   UNL     1     -11.411   5.097   1.223  0.00  0.00    -0.242 NA
BRANCH  24  26
ATOM     26  C   UNL     1     -13.514   4.822  -0.169  0.00  0.00    +0.007 A 
ATOM     27  C   UNL     1     -12.998   5.381  -1.338  0.00  0.00    +0.010 A 
ATOM     28  C   UNL     1     -13.789   5.466  -2.466  0.00  0.00    +0.001 A 
ATOM     29  C   UNL     1     -15.094   5.008  -2.435  0.00  0.00    +0.000 A 
ATOM     30  C   UNL     1     -15.613   4.457  -1.277  0.00  0.00    +0.001 A 
ATOM     31  C   UNL     1     -14.831   4.361  -0.144  0.00  0.00    +0.010 A 
ENDBRANCH  24  26
ENDBRANCH  20  21
ENDBRANCH   3  20
TORSDOF 6
