REMARK  Name = ZINC06242994
REMARK  10 active torsions:
REMARK  status: ('A' for Active; 'I' for Inactive)
REMARK    1  A    between atoms: C_1  and  C_2
REMARK    2  A    between atoms: C_2  and  C_3
REMARK    3  A    between atoms: C_3  and  C_5
REMARK    4  A    between atoms: C_3  and  C_6
REMARK    5  A    between atoms: C_13  and  C_15
REMARK    6  A    between atoms: C_19  and  N_21
REMARK    7  A    between atoms: N_21  and  C_22
REMARK    8  A    between atoms: C_22  and  N_24
REMARK    9  A    between atoms: C_25  and  C_27
REMARK   10  A    between atoms: C_27  and  C_28
REMARK                            x       y       z     vdW  Elec       q    Type
REMARK                         _______ _______ _______ _____ _____    ______ ____
ROOT
ATOM      1  C   UNL     1      -4.744   1.380  -0.159  0.00  0.00    +0.039 A 
ATOM      2  C   UNL     1      -4.627  -0.011  -0.140  0.00  0.00    +0.013 A 
ATOM      3  C   UNL     1      -3.379  -0.597  -0.068  0.00  0.00    +0.003 A 
ATOM      4  C   UNL     1      -2.243   0.189  -0.020  0.00  0.00    +0.023 A 
ATOM      5  C   UNL     1      -2.350   1.575  -0.033  0.00  0.00    +0.033 A 
ATOM      6  C   UNL     1      -3.599   2.173  -0.105  0.00  0.00    +0.036 A 
ENDROOT
BRANCH   1  14
ATOM      7  C   UNL     1     -10.400   3.272  -0.477  0.00  0.00    -0.042 A 
ATOM      8  C   UNL     1      -9.815   4.530  -0.458  0.00  0.00    +0.007 A 
ATOM      9  C   UNL     1      -8.444   4.663  -0.386  0.00  0.00    +0.049 A 
ATOM     10  C   UNL     1      -7.642   3.534  -0.334  0.00  0.00    +0.156 A 
ATOM     11  C   UNL     1      -8.230   2.258  -0.353  0.00  0.00    +0.110 A 
ATOM     12  C   UNL     1      -9.620   2.139  -0.426  0.00  0.00    +0.035 A 
ATOM     13  N   UNL     1      -7.214   1.360  -0.290  0.00  0.00    -0.209 NA
ATOM     14  C   UNL     1      -6.080   2.010  -0.236  0.00  0.00    +0.228 A 
ATOM     15  O   UNL     1      -6.307   3.337  -0.255  0.00  0.00    -0.435 OA
BRANCH   7  16
ATOM     16  C   UNL     1     -11.900   3.146  -0.555  0.00  0.00    +0.016 C 
ATOM     17  C   UNL     1     -12.402   3.810  -1.839  0.00  0.00    +0.012 C 
BRANCH  16  19
ATOM     18  C   UNL     1     -14.045   3.598   0.643  0.00  0.00    +0.004 C 
ATOM     19  C   UNL     1     -12.534   3.833   0.656  0.00  0.00    +0.004 C 
ENDBRANCH  16  19
ENDBRANCH   7  16
ENDBRANCH   1  14
BRANCH   5  20
ATOM     20  N   UNL     1      -1.197   2.366   0.021  0.00  0.00    -0.297 N 
ATOM     21  H   UNL     1      -1.122   3.151  -0.543  0.00  0.00    +0.154 HD
BRANCH  20  22
ATOM     22  C   UNL     1      -0.192   2.036   0.856  0.00  0.00    +0.141 C 
ATOM     23  S   UNL     1      -0.381   0.735   1.952  0.00  0.00    -0.018 S 
BRANCH  22  24
ATOM     24  N   UNL     1       0.964   2.728   0.824  0.00  0.00    -0.268 N 
ATOM     25  C   UNL     1       1.972   2.395   1.655  0.00  0.00    +0.218 C 
ATOM     26  O   UNL     1       1.837   1.473   2.431  0.00  0.00    -0.275 OA
ATOM     27  H   UNL     1       1.071   3.465   0.203  0.00  0.00    +0.156 HD
BRANCH  25  28
ATOM     28  C   UNL     1       3.264   3.168   1.620  0.00  0.00    +0.093 C 
ATOM     29  C   UNL     1       4.232   2.591   2.655  0.00  0.00    +0.013 C 
ENDBRANCH  25  28
ENDBRANCH  22  24
ENDBRANCH  20  22
ENDBRANCH   5  20
TORSDOF 7
