REMARK  Name = ZINC28049011
REMARK  7 active torsions:
REMARK  status: ('A' for Active; 'I' for Inactive)
REMARK    1  A    between atoms: C_1  and  C_2
REMARK    2  A    between atoms: C_2  and  N_3
REMARK    3  A    between atoms: C_12  and  O_13
REMARK    4  A    between atoms: C_14  and  N_15
REMARK    5  A    between atoms: N_15  and  S_16
REMARK    6  A    between atoms: S_16  and  C_19
REMARK    7  A    between atoms: C_24  and  C_25
REMARK                            x       y       z     vdW  Elec       q    Type
REMARK                         _______ _______ _______ _____ _____    ______ ____
ROOT
ATOM      1  N   UNL     1      -4.623   2.085   4.001  0.00  0.00    -0.382 N 
ATOM      2  C   UNL     1      -4.426   3.115   3.099  0.00  0.00    +0.076 A 
ATOM      3  C   UNL     1      -4.608   4.520   3.499  0.00  0.00    +0.042 A 
ATOM      4  C   UNL     1      -4.984   4.853   4.801  0.00  0.00    +0.013 A 
ATOM      5  C   UNL     1      -5.146   6.177   5.145  0.00  0.00    +0.001 A 
ATOM      6  C   UNL     1      -4.937   7.175   4.205  0.00  0.00    +0.004 A 
ATOM      7  C   UNL     1      -4.565   6.859   2.915  0.00  0.00    +0.047 A 
ATOM      8  C   UNL     1      -4.397   5.530   2.547  0.00  0.00    +0.141 A 
ATOM      9  O   UNL     1      -4.034   5.206   1.287  0.00  0.00    -0.424 OA
ATOM     10  C   UNL     1      -3.858   3.932   0.904  0.00  0.00    +0.310 A 
ATOM     11  C   UNL     1      -4.054   2.858   1.792  0.00  0.00    +0.152 A 
ATOM     12  H   UNL     1      -5.638   1.701   4.185  0.00  0.00    +0.160 HD
ENDROOT
BRANCH   1  14
ATOM     13  C   UNL     1      -3.591   0.440   5.494  0.00  0.00    +0.026 C 
ATOM     14  C   UNL     1      -3.350   1.655   4.595  0.00  0.00    +0.109 C 
ENDBRANCH   1  14
BRANCH  10  15
ATOM     15  O   UNL     1      -3.525   3.698  -0.245  0.00  0.00    -0.479 OA
ATOM     16  H   UNL     1      -3.377   2.659  -0.574  0.00  0.00    +0.295 HD
ENDBRANCH  10  15
BRANCH  11  17
ATOM     17  N   UNL     1      -3.866   1.534   1.355  0.00  0.00    -0.208 N 
ATOM     18  H   UNL     1      -3.105   0.900   1.834  0.00  0.00    +0.174 HD
BRANCH  17  19
ATOM     19  S   UNL     1      -4.790   0.930   0.121  0.00  0.00    +0.073 S 
ATOM     20  O   UNL     1      -4.445  -0.442  -0.011  0.00  0.00    -0.150 OA
ATOM     21  O   UNL     1      -4.681   1.851  -0.956  0.00  0.00    -0.150 OA
BRANCH  19  22
ATOM     22  C   UNL     1      -6.469   0.978   0.656  0.00  0.00    +0.111 A 
ATOM     23  C   UNL     1      -7.383   1.775  -0.008  0.00  0.00    +0.030 A 
ATOM     24  C   UNL     1      -8.701   1.808   0.407  0.00  0.00    +0.017 A 
ATOM     25  C   UNL     1      -9.104   1.048   1.491  0.00  0.00    +0.018 A 
ATOM     26  C   UNL     1      -8.187   0.256   2.158  0.00  0.00    +0.020 A 
ATOM     27  C   UNL     1      -6.869   0.223   1.742  0.00  0.00    -0.023 A 
ATOM     28  C   UNL     1      -5.871  -0.640   2.469  0.00  0.00    +0.046 C 
ATOM     29 BR   UNL     1     -10.906   1.094   2.061  0.00  0.00    -0.050 Br
ENDBRANCH  19  22
ENDBRANCH  17  19
ENDBRANCH  11  17
TORSDOF 5
