REMARK  Name = ZINC02917881
REMARK  11 active torsions:
REMARK  status: ('A' for Active; 'I' for Inactive)
REMARK    1  A    between atoms: CB_1  and  CA_2
REMARK    2  A    between atoms: CA_2  and  C_4
REMARK    3  A    between atoms: CA_2  and  N_6
REMARK    4  A    between atoms: C_7  and  CA_9
REMARK    5  A    between atoms: CA_9  and  N_18
REMARK    6  A    between atoms: C_10  and  C_11
REMARK    7  A    between atoms: C_19  and  C_21
REMARK    8  A    between atoms: C_24  and  C_27
REMARK    9  A    between atoms: C_27  and  C_28
REMARK   10  A    between atoms: C_27  and  C_29
REMARK   11  A    between atoms: C_27  and  C_30
REMARK                            x       y       z     vdW  Elec       q    Type
REMARK                         _______ _______ _______ _____ _____    ______ ____
ROOT
ATOM      1  CA  UNL     1       0.029   0.241  -0.041  0.00  0.00    +0.097 C 
ATOM      2  C   UNL     1       0.238   1.575  -0.132  0.00  0.00    +0.036 C 
ENDROOT
BRANCH   2   3
ATOM      3  C   UNL     1      -0.889   2.479  -0.409  0.00  0.00    -0.023 A 
ATOM      4  C   UNL     1      -2.044   1.992  -1.029  0.00  0.00    +0.009 A 
ATOM      5  C   UNL     1      -3.098   2.844  -1.282  0.00  0.00    +0.020 A 
ATOM      6  C   UNL     1      -3.010   4.182  -0.932  0.00  0.00    +0.041 A 
ATOM      7  C   UNL     1      -1.867   4.673  -0.323  0.00  0.00    +0.020 A 
ATOM      8  C   UNL     1      -0.807   3.831  -0.059  0.00  0.00    +0.009 A 
ATOM      9 CL   UNL     1      -4.340   5.249  -1.260  0.00  0.00    -0.084 Cl
ENDBRANCH   2   3
BRANCH   1  11
ATOM     10  N   UNL     1       2.429  -0.200  -0.018  0.00  0.00    -0.297 N 
ATOM     11  C   UNL     1       1.172  -0.676   0.075  0.00  0.00    +0.259 C 
ATOM     12  O   UNL     1       0.982  -1.864   0.257  0.00  0.00    -0.269 OA
ATOM     13  H   UNL     1       2.580   0.747  -0.163  0.00  0.00    +0.150 HD
BRANCH  10  15
ATOM     14  CB  UNL     1       3.860  -1.742  -1.267  0.00  0.00    +0.040 C 
ATOM     15  CA  UNL     1       3.568  -1.114   0.097  0.00  0.00    +0.183 C 
BRANCH  15  16
ATOM     16  C   UNL     1       4.779  -0.351   0.568  0.00  0.00    +0.376 C 
ATOM     17  O   UNL     1       4.699   0.835   0.785  0.00  0.00    -0.244 OA
ATOM     18  OXT UNL     1       5.947  -0.988   0.747  0.00  0.00    -0.244 OA
ENDBRANCH  15  16
ENDBRANCH  10  15
ENDBRANCH   1  11
BRANCH   1  19
ATOM     19  N   UNL     1      -1.275  -0.264  -0.058  0.00  0.00    -0.277 N 
ATOM     20  C   UNL     1      -1.628  -1.185  -0.976  0.00  0.00    +0.248 C 
ATOM     21  O   UNL     1      -0.791  -1.648  -1.727  0.00  0.00    -0.270 OA
ATOM     22  H   UNL     1      -1.924   0.048   0.592  0.00  0.00    +0.155 HD
BRANCH  20  23
ATOM     23  C   UNL     1      -3.034  -1.634  -1.069  0.00  0.00    +0.037 A 
ATOM     24  C   UNL     1      -3.996  -1.109  -0.205  0.00  0.00    +0.013 A 
ATOM     25  C   UNL     1      -5.307  -1.528  -0.301  0.00  0.00    +0.005 A 
ATOM     26  C   UNL     1      -5.666  -2.474  -1.245  0.00  0.00    -0.042 A 
ATOM     27  C   UNL     1      -4.716  -3.002  -2.102  0.00  0.00    +0.005 A 
ATOM     28  C   UNL     1      -3.403  -2.588  -2.019  0.00  0.00    +0.013 A 
BRANCH  26  29
ATOM     29  C   UNL     1      -7.099  -2.931  -1.341  0.00  0.00    -0.013 C 
ATOM     30  C   UNL     1      -7.171  -4.439  -1.092  0.00  0.00    +0.015 C 
ATOM     31  C   UNL     1      -7.939  -2.201  -0.291  0.00  0.00    +0.015 C 
ATOM     32  C   UNL     1      -7.642  -2.618  -2.736  0.00  0.00    +0.015 C 
ENDBRANCH  26  29
ENDBRANCH  20  23
ENDBRANCH   1  19
TORSDOF 7
