REMARK  Name = ZINC09608115
REMARK  6 active torsions:
REMARK  status: ('A' for Active; 'I' for Inactive)
REMARK    1  A    between atoms: C_6  and  C_7
REMARK    2  A    between atoms: C_7  and  C_9
REMARK    3  A    between atoms: C_7  and  N_24
REMARK    4  A    between atoms: C_9  and  C_10
REMARK    5  A    between atoms: C_17  and  C_18
REMARK    6  A    between atoms: C_17  and  N_50
REMARK                            x       y       z     vdW  Elec       q    Type
REMARK                         _______ _______ _______ _____ _____    ______ ____
ROOT
ATOM      1  C   UNL     1       5.022  -3.640  -5.287  0.00  0.00    +0.123 C 
ENDROOT
BRANCH   1   2
ATOM      2  C   UNL     1       5.823  -2.681  -4.445  0.00  0.00    +0.218 C 
ATOM      3  O   UNL     1       7.035  -2.696  -4.495  0.00  0.00    -0.276 OA
ATOM      4  N   UNL     1       5.193  -1.806  -3.637  0.00  0.00    -0.305 N 
ATOM      5  C   UNL     1       5.955  -0.860  -2.807  0.00  0.00    +0.089 C 
ATOM      6  C   UNL     1       5.453  -0.966  -1.363  0.00  0.00    -0.059 C 
ATOM      7  C   UNL     1       3.310  -1.840  -2.088  0.00  0.00    -0.059 C 
ATOM      8  C   UNL     1       3.724  -1.770  -3.562  0.00  0.00    +0.089 C 
ATOM      9  N   UNL     1       3.990  -0.752  -1.352  0.00  0.00    +0.385 N 
ATOM     10  H   UNL     1       3.781   0.142  -1.812  0.00  0.00    -0.081 HD
BRANCH   9  11
ATOM     11  C   UNL     1       3.498  -0.701   0.041  0.00  0.00    -0.035 C 
BRANCH  11  12
ATOM     12  C   UNL     1       2.055  -0.267   0.030  0.00  0.00    -0.026 A 
ATOM     13  C   UNL     1       0.935  -1.028  -0.029  0.00  0.00    +0.010 A 
ATOM     14  C   UNL     1      -0.299  -0.406  -0.027  0.00  0.00    +0.023 A 
ATOM     15  C   UNL     1      -0.353   0.948   0.033  0.00  0.00    +0.055 A 
ATOM     16  S   UNL     1       1.378   1.384   0.090  0.00  0.00    -0.088 S 
ATOM     17 BR   UNL     1      -1.867   2.081   0.045  0.00  0.00    -0.043 Br
ENDBRANCH  11  12
ENDBRANCH   9  11
ENDBRANCH   1   2
BRANCH   1  18
ATOM     18  C   UNL     1       5.972  -4.517  -6.105  0.00  0.00    +0.113 C 
BRANCH  18  24
ATOM     19  C   UNL     1       5.740  -6.534  -7.568  0.00  0.00    +0.007 A 
ATOM     20  C   UNL     1       5.005  -7.339  -8.418  0.00  0.00    +0.020 A 
ATOM     21  C   UNL     1       3.707  -6.994  -8.747  0.00  0.00    +0.041 A 
ATOM     22  C   UNL     1       3.142  -5.847  -8.220  0.00  0.00    +0.020 A 
ATOM     23  C   UNL     1       3.875  -5.046  -7.364  0.00  0.00    +0.007 A 
ATOM     24  C   UNL     1       5.173  -5.391  -7.037  0.00  0.00    -0.027 A 
ATOM     25 CL   UNL     1       2.786  -8.000  -9.822  0.00  0.00    -0.084 Cl
ENDBRANCH  18  24
BRANCH  18  26
ATOM     26  N   UNL     1       6.760  -5.359  -5.202  0.00  0.00    -0.292 N 
ATOM     27  C   UNL     1       6.144  -6.260  -4.412  0.00  0.00    +0.298 C 
ATOM     28  O   UNL     1       4.945  -6.435  -4.509  0.00  0.00    -0.253 OA
ATOM     29  N   UNL     1       6.858  -6.969  -3.514  0.00  0.00    -0.313 N 
ATOM     30  H   UNL     1       7.726  -5.267  -5.172  0.00  0.00    +0.151 HD
ATOM     31  H   UNL     1       7.815  -6.830  -3.437  0.00  0.00    +0.146 HD
ATOM     32  H   UNL     1       6.414  -7.618  -2.946  0.00  0.00    +0.146 HD
ENDBRANCH  18  26
ENDBRANCH   1  18
TORSDOF 6
