REMARK  Name = ZINC12711447
REMARK  16 active torsions:
REMARK  status: ('A' for Active; 'I' for Inactive)
REMARK    1  A    between atoms: C_1  and  C_2
REMARK    2  A    between atoms: C_6  and  N_9
REMARK    3  A    between atoms: C_7  and  C_8
REMARK    4  A    between atoms: N_9  and  C_10
REMARK    5  A    between atoms: C_10  and  C_12
REMARK    6  A    between atoms: C_10  and  C_20
REMARK    7  A    between atoms: C_15  and  O_18
REMARK    8  A    between atoms: O_18  and  C_19
REMARK    9  A    between atoms: N_22  and  C_23
REMARK   10  A    between atoms: C_23  and  C_24
REMARK   11  A    between atoms: C_24  and  C_25
REMARK   12  A    between atoms: C_25  and  C_26
REMARK   13  A    between atoms: C_25  and  C_27
REMARK   14  A    between atoms: C_28  and  C_30
REMARK   15  A    between atoms: C_31  and  N_38
REMARK   16  A    between atoms: C_32  and  C_35
REMARK                            x       y       z     vdW  Elec       q    Type
REMARK                         _______ _______ _______ _____ _____    ______ ____
ROOT
ATOM      1  N   UNL     1       4.245   2.112   0.080  0.00  0.00    -0.251 N 
ATOM      2  C   UNL     1       4.277   3.016   1.079  0.00  0.00    +0.262 C 
ATOM      3  O   UNL     1       4.247   4.206   0.825  0.00  0.00    -0.269 OA
ENDROOT
BRANCH   1   9
ATOM      4  C   UNL     1       6.840  -2.011   0.739  0.00  0.00    +0.044 C 
ATOM      5  C   UNL     1       5.524  -1.279   0.699  0.00  0.00    -0.046 A 
ATOM      6  C   UNL     1       4.347  -1.960   0.952  0.00  0.00    +0.004 A 
ATOM      7  C   UNL     1       3.136  -1.292   0.916  0.00  0.00    +0.002 A 
ATOM      8  C   UNL     1       3.099   0.058   0.628  0.00  0.00    +0.024 A 
ATOM      9  C   UNL     1       4.279   0.745   0.373  0.00  0.00    +0.041 A 
ATOM     10  C   UNL     1       5.493   0.071   0.409  0.00  0.00    -0.026 A 
ATOM     11  C   UNL     1       6.776   0.812   0.134  0.00  0.00    +0.046 C 
ENDBRANCH   1   9
BRANCH   2  12
ATOM     12  C   UNL     1       4.346   2.567   2.471  0.00  0.00    +0.116 A 
ATOM     13  C   UNL     1       4.388   3.323   3.644  0.00  0.00    +0.076 A 
ATOM     14  C   UNL     1       4.452   2.529   4.789  0.00  0.00    +0.155 A 
ATOM     15  N   UNL     1       4.466   1.221   4.665  0.00  0.00    -0.203 NA
ATOM     16  S   UNL     1       4.393   0.910   3.122  0.00  0.00    +0.019 S 
BRANCH  14  17
ATOM     17  C   UNL     1       4.503   3.151   6.125  0.00  0.00    +0.262 C 
ATOM     18  O   UNL     1       4.490   4.363   6.232  0.00  0.00    -0.269 OA
ATOM     19  N   UNL     1       4.565   2.378   7.227  0.00  0.00    -0.324 N 
ATOM     20  H   UNL     1       4.575   1.412   7.141  0.00  0.00    +0.145 HD
ATOM     21  H   UNL     1       4.598   2.787   8.105  0.00  0.00    +0.145 HD
ENDBRANCH  14  17
BRANCH  13  22
ATOM     22  N   UNL     1       4.368   4.711   3.668  0.00  0.00    -0.355 N 
ATOM     23  H   UNL     1       4.324   5.210   2.837  0.00  0.00    +0.142 HD
ATOM     24  H   UNL     1       4.399   5.182   4.515  0.00  0.00    +0.142 HD
ENDBRANCH  13  22
ENDBRANCH   2  12
BRANCH   1  25
ATOM     25  C   UNL     1       4.175   2.561  -1.312  0.00  0.00    +0.197 C 
BRANCH  25  26
ATOM     26  C   UNL     1       4.295   1.372  -2.230  0.00  0.00    -0.018 A 
ATOM     27  C   UNL     1       3.351   0.363  -2.179  0.00  0.00    +0.009 A 
ATOM     28  C   UNL     1       3.455  -0.726  -3.023  0.00  0.00    +0.046 A 
ATOM     29  C   UNL     1       4.514  -0.811  -3.915  0.00  0.00    +0.120 A 
ATOM     30  C   UNL     1       5.463   0.200  -3.961  0.00  0.00    +0.046 A 
ATOM     31  C   UNL     1       5.351   1.289  -3.119  0.00  0.00    +0.009 A 
BRANCH  29  32
ATOM     32  O   UNL     1       4.623  -1.884  -4.743  0.00  0.00    -0.495 OA
ATOM     33  C   UNL     1       3.610  -2.886  -4.641  0.00  0.00    +0.277 C 
ENDBRANCH  29  32
ENDBRANCH  25  26
BRANCH  25  34
ATOM     34  C   UNL     1       2.857   3.250  -1.552  0.00  0.00    +0.238 C 
ATOM     35  O   UNL     1       2.054   3.356  -0.649  0.00  0.00    -0.273 OA
ATOM     36  N   UNL     1       2.569   3.750  -2.771  0.00  0.00    -0.313 N 
ATOM     37  H   UNL     1       3.211   3.665  -3.493  0.00  0.00    +0.149 HD
BRANCH  36  38
ATOM     38  C   UNL     1       1.288   4.420  -3.004  0.00  0.00    +0.104 C 
BRANCH  38  39
ATOM     39  C   UNL     1       1.215   4.889  -4.458  0.00  0.00    +0.022 C 
BRANCH  39  40
ATOM     40  C   UNL     1      -0.124   5.589  -4.702  0.00  0.00    -0.016 C 
ATOM     41  C   UNL     1      -0.193   6.865  -3.861  0.00  0.00    +0.007 C 
ATOM     42  C   UNL     1      -0.250   5.947  -6.184  0.00  0.00    +0.007 C 
ENDBRANCH  39  40
ENDBRANCH  38  39
ENDBRANCH  36  38
ENDBRANCH  25  34
ENDBRANCH   1  25
TORSDOF 11
