REMARK  Name = ZINC20532169
REMARK  11 active torsions:
REMARK  status: ('A' for Active; 'I' for Inactive)
REMARK    1  A    between atoms: C_1  and  C_2
REMARK    2  A    between atoms: C_5  and  N_9
REMARK    3  A    between atoms: N_12  and  C_13
REMARK    4  A    between atoms: C_13  and  C_15
REMARK    5  A    between atoms: C_13  and  C_20
REMARK    6  A    between atoms: C_15  and  C_16
REMARK    7  A    between atoms: C_16  and  C_17
REMARK    8  A    between atoms: C_17  and  C_18
REMARK    9  A    between atoms: C_17  and  C_19
REMARK   10  A    between atoms: C_24  and  N_25
REMARK   11  A    between atoms: N_31  and  C_34
REMARK                            x       y       z     vdW  Elec       q    Type
REMARK                         _______ _______ _______ _____ _____    ______ ____
ROOT
ATOM      1  C   UNL     1       0.949   0.709   5.072  0.00  0.00    +0.108 C 
ENDROOT
BRANCH   1   2
ATOM      2  C   UNL     1       1.038   1.189   3.646  0.00  0.00    +0.007 A 
ATOM      3  C   UNL     1       0.110   2.105   3.158  0.00  0.00    -0.034 A 
ATOM      4  C   UNL     1       0.254   2.490   1.859  0.00  0.00    -0.021 A 
ATOM      5  S   UNL     1       1.676   1.590   1.306  0.00  0.00    -0.077 S 
ATOM      6  C   UNL     1       2.026   0.729   2.832  0.00  0.00    +0.090 A 
ATOM      7  C   UNL     1      -0.608   3.450   1.108  0.00  0.00    -0.036 C 
ATOM      8  N   UNL     1      -1.849   3.656   1.879  0.00  0.00    +0.381 N 
ATOM      9  C   UNL     1      -1.542   3.946   3.287  0.00  0.00    -0.074 C 
ATOM     10  C   UNL     1      -1.032   2.684   3.989  0.00  0.00    +0.018 C 
ATOM     11  C   UNL     1      -2.666   4.724   1.288  0.00  0.00    -0.096 C 
ATOM     12  H   UNL     1      -2.438   2.727   1.843  0.00  0.00    -0.082 HD
BRANCH   6  13
ATOM     13  N   UNL     1       3.049  -0.182   3.116  0.00  0.00    -0.317 N 
ATOM     14  C   UNL     1       4.385   0.040   2.938  0.00  0.00    +0.092 A 
ATOM     15  C   UNL     1       5.051  -1.067   3.326  0.00  0.00    +0.019 A 
ATOM     16  C   UNL     1       4.094  -2.010   3.750  0.00  0.00    +0.019 A 
ATOM     17  C   UNL     1       2.878  -1.443   3.611  0.00  0.00    +0.092 A 
ENDBRANCH   6  13
ENDBRANCH   1   2
BRANCH   1  21
ATOM     18  N   UNL     1      -1.884  -1.366   6.163  0.00  0.00    -0.269 N 
ATOM     19  C   UNL     1      -0.627  -0.951   5.907  0.00  0.00    +0.304 C 
ATOM     20  O   UNL     1       0.317  -1.668   6.178  0.00  0.00    -0.252 OA
ATOM     21  N   UNL     1      -0.417   0.258   5.350  0.00  0.00    -0.292 N 
ATOM     22  H   UNL     1      -2.741  -0.752   5.848  0.00  0.00    +0.156 HD
ATOM     23  H   UNL     1      -1.271   0.907   5.105  0.00  0.00    +0.151 HD
BRANCH  18  28
ATOM     24  C   UNL     1      -2.759  -6.278   8.867  0.00  0.00    +0.047 C 
ATOM     25  C   UNL     1      -2.526  -4.974   8.149  0.00  0.00    -0.015 A 
ATOM     26  C   UNL     1      -3.376  -3.905   8.365  0.00  0.00    +0.008 A 
ATOM     27  C   UNL     1      -3.162  -2.707   7.713  0.00  0.00    +0.024 A 
ATOM     28  C   UNL     1      -2.099  -2.578   6.829  0.00  0.00    +0.037 A 
ATOM     29  C   UNL     1      -1.246  -3.651   6.612  0.00  0.00    +0.062 A 
ATOM     30  C   UNL     1      -1.461  -4.847   7.272  0.00  0.00    +0.128 A 
ATOM     31  F   UNL     1      -0.632  -5.893   7.062  0.00  0.00    -0.205 F 
ENDBRANCH  18  28
ENDBRANCH   1  21
BRANCH   1  32
ATOM     32  C   UNL     1       1.311   1.855   6.019  0.00  0.00    +0.027 C 
BRANCH  32  33
ATOM     33  C   UNL     1       1.341   1.335   7.458  0.00  0.00    +0.005 C 
BRANCH  33  34
ATOM     34  C   UNL     1       1.703   2.481   8.406  0.00  0.00    -0.017 C 
ATOM     35  C   UNL     1       1.612   1.993   9.853  0.00  0.00    +0.007 C 
ATOM     36  C   UNL     1       3.130   2.952   8.115  0.00  0.00    +0.007 C 
ENDBRANCH  33  34
ENDBRANCH  32  33
ENDBRANCH   1  32
TORSDOF 7
