REMARK  Name = ZINC08740505
REMARK  8 active torsions:
REMARK  status: ('A' for Active; 'I' for Inactive)
REMARK    1  A    between atoms: C_3  and  O_33
REMARK    2  A    between atoms: C_6  and  C_7
REMARK    3  A    between atoms: N_8  and  N_9
REMARK    4  A    between atoms: N_18  and  C1*_19
REMARK    5  A    between atoms: C2*_21  and  O2*_31
REMARK    6  A    between atoms: C3*_23  and  O3*_30
REMARK    7  A    between atoms: C4*_25  and  C5*_28
REMARK    8  A    between atoms: C5*_28  and  O5*_29
REMARK                            x       y       z     vdW  Elec       q    Type
REMARK                         _______ _______ _______ _____ _____    ______ ____
ROOT
ATOM      1  N   UNL     1      -2.446  -2.778   0.011  0.00  0.00    -0.206 N 
ATOM      2  C   UNL     1      -2.425  -4.158   0.004  0.00  0.00    +0.220 A 
ATOM      3  N   UNL     1      -1.341  -4.895  -0.005  0.00  0.00    -0.208 NA
ATOM      4  C   UNL     1      -1.689  -6.206  -0.010  0.00  0.00    +0.149 A 
ATOM      5  C   UNL     1      -0.974  -7.415  -0.020  0.00  0.00    +0.147 A 
ATOM      6  N   UNL     1      -1.656  -8.555  -0.023  0.00  0.00    -0.219 NA
ATOM      7  C   UNL     1      -2.977  -8.561  -0.017  0.00  0.00    +0.225 A 
ATOM      8  N   UNL     1      -3.688  -7.454  -0.008  0.00  0.00    -0.216 NA
ATOM      9  C   UNL     1      -3.092  -6.266  -0.004  0.00  0.00    +0.169 A 
ATOM     10  N   UNL     1      -3.531  -4.963   0.011  0.00  0.00    -0.266 N 
ATOM     11  N   UNL     1       0.412  -7.418  -0.027  0.00  0.00    -0.341 N 
ATOM     12  H   UNL     1      -3.293  -2.306   0.022  0.00  0.00    +0.177 HD
ATOM     13  H   UNL     1       0.899  -6.579  -0.025  0.00  0.00    +0.144 HD
ATOM     14  H   UNL     1       0.895  -8.259  -0.034  0.00  0.00    +0.144 HD
ENDROOT
BRANCH  10  15
ATOM     15  C1* UNL     1      -4.927  -4.518   0.026  0.00  0.00    +0.255 C 
ATOM     16  C2* UNL     1      -5.301  -3.970   1.427  0.00  0.00    +0.195 C 
ATOM     17  C3* UNL     1      -6.473  -3.016   1.067  0.00  0.00    +0.178 C 
ATOM     18  C4* UNL     1      -6.046  -2.480  -0.317  0.00  0.00    +0.177 C 
ATOM     19  O4* UNL     1      -5.108  -3.411  -0.872  0.00  0.00    -0.346 OA
BRANCH  17  20
ATOM     20  O3* UNL     1      -7.705  -3.735   0.980  0.00  0.00    -0.386 OA
ATOM     21  H3* UNL     1      -8.468  -3.183   0.758  0.00  0.00    +0.210 HD
ENDBRANCH  17  20
BRANCH  16  22
ATOM     22  O2* UNL     1      -5.738  -5.021   2.291  0.00  0.00    -0.385 OA
ATOM     23  H2* UNL     1      -5.983  -4.725   3.178  0.00  0.00    +0.210 HD
ENDBRANCH  16  22
BRANCH  18  24
ATOM     24  C5* UNL     1      -7.269  -2.368  -1.230  0.00  0.00    +0.190 C 
BRANCH  24  25
ATOM     25  O5* UNL     1      -6.886  -1.764  -2.466  0.00  0.00    -0.392 OA
ATOM     26  H5* UNL     1      -7.613  -1.661  -3.096  0.00  0.00    +0.210 HD
ENDBRANCH  24  25
ENDBRANCH  18  24
ENDBRANCH  10  15
BRANCH   1  28
ATOM     27  C   UNL     1      -1.263  -0.761   0.011  0.00  0.00    +0.138 C 
ATOM     28  N   UNL     1      -1.243  -2.059   0.003  0.00  0.00    -0.188 NA
BRANCH  27  34
ATOM     29  C   UNL     1      -0.017   1.393   0.010  0.00  0.00    +0.013 A 
ATOM     30  C   UNL     1       1.168   2.096   0.002  0.00  0.00    +0.046 A 
ATOM     31  C   UNL     1       2.380   1.418  -0.013  0.00  0.00    +0.117 A 
ATOM     32  C   UNL     1       2.404   0.030  -0.022  0.00  0.00    +0.046 A 
ATOM     33  C   UNL     1       1.224  -0.682  -0.014  0.00  0.00    +0.013 A 
ATOM     34  C   UNL     1       0.002  -0.004   0.002  0.00  0.00    -0.005 A 
BRANCH  31  35
ATOM     35  O   UNL     1       3.546   2.116  -0.021  0.00  0.00    -0.507 OA
ATOM     36  H   UNL     1       3.893   2.313   0.860  0.00  0.00    +0.292 HD
ENDBRANCH  31  35
ENDBRANCH  27  34
ENDBRANCH   1  28
TORSDOF 8
