REMARK  Name = ZINC39850541
REMARK  6 active torsions:
REMARK  status: ('A' for Active; 'I' for Inactive)
REMARK    1  A    between atoms: C_1  and  C_2
REMARK    2  A    between atoms: C_5  and  C_13
REMARK    3  A    between atoms: C_6  and  C_7
REMARK    4  A    between atoms: C_6  and  C_8
REMARK    5  A    between atoms: N_11  and  O_12
REMARK    6  A    between atoms: N_15  and  C_16
REMARK                            x       y       z     vdW  Elec       q    Type
REMARK                         _______ _______ _______ _____ _____    ______ ____
ROOT
ATOM      1  C   UNL     1      -0.033   1.525   0.018  0.00  0.00    +0.018 C 
ATOM      2  C   UNL     1      -0.011  -0.005   0.009  0.00  0.00    +0.015 C 
ATOM      3  C   UNL     1       0.724  -0.667  -1.196  0.00  0.00    +0.014 C 
ATOM      4  C   UNL     1       1.048  -2.100  -0.714  0.00  0.00    +0.018 C 
ATOM      5  C   UNL     1       0.468  -2.165   0.732  0.00  0.00    +0.058 C 
ATOM      6  C   UNL     1       0.724  -0.692   1.213  0.00  0.00    -0.010 C 
ATOM      7  C   UNL     1       0.040  -0.396   2.549  0.00  0.00    +0.013 C 
ATOM      8  C   UNL     1       2.214  -0.350   1.249  0.00  0.00    +0.013 C 
ATOM      9  C   UNL     1      -1.078  -2.126   0.530  0.00  0.00    +0.071 C 
ATOM     10  C   UNL     1      -1.381  -0.694   0.075  0.00  0.00    +0.065 C 
ATOM     11  N   UNL     1      -2.521  -0.185  -0.208  0.00  0.00    -0.096 NA
ENDROOT
BRANCH   5  12
ATOM     12  C   UNL     1       1.008  -3.261   1.614  0.00  0.00    +0.224 C 
ATOM     13  O   UNL     1       1.591  -2.982   2.641  0.00  0.00    -0.275 OA
ATOM     14  N   UNL     1       0.845  -4.552   1.262  0.00  0.00    -0.285 N 
ATOM     15  H   UNL     1       0.322  -4.778   0.477  0.00  0.00    +0.155 HD
BRANCH  14  16
ATOM     16  C   UNL     1       1.429  -5.566   2.029  0.00  0.00    +0.033 A 
ATOM     17  C   UNL     1       1.919  -6.710   1.412  0.00  0.00    +0.024 A 
ATOM     18  C   UNL     1       2.496  -7.709   2.171  0.00  0.00    +0.017 A 
ATOM     19  C   UNL     1       2.586  -7.571   3.545  0.00  0.00    +0.018 A 
ATOM     20  C   UNL     1       2.098  -6.433   4.162  0.00  0.00    +0.017 A 
ATOM     21  C   UNL     1       1.525  -5.428   3.407  0.00  0.00    +0.024 A 
ATOM     22 BR   UNL     1       3.376  -8.942   4.582  0.00  0.00    -0.050 Br
ENDBRANCH  14  16
ENDBRANCH   5  12
BRANCH  11  23
ATOM     23  O   UNL     1      -3.695  -0.968  -0.091  0.00  0.00    -0.409 OA
ATOM     24  H   UNL     1      -4.506  -0.497  -0.326  0.00  0.00    +0.328 HD
ENDBRANCH  11  23
TORSDOF 3
