REMARK  Name = ZINC08782552
REMARK  7 active torsions:
REMARK  status: ('A' for Active; 'I' for Inactive)
REMARK    1  A    between atoms: C_3  and  C_10
REMARK    2  A    between atoms: C_10  and  N_11
REMARK    3  A    between atoms: C_13  and  N_16
REMARK    4  A    between atoms: C_17  and  C_19
REMARK    5  A    between atoms: C_19  and  N_20
REMARK    6  A    between atoms: C_21  and  C_28
REMARK    7  A    between atoms: C_23  and  C_25
REMARK                            x       y       z     vdW  Elec       q    Type
REMARK                         _______ _______ _______ _____ _____    ______ ____
ROOT
ATOM      1  N   UNL     1      -0.681   3.169   0.026  0.00  0.00    -0.265 N 
ATOM      2  C   UNL     1       0.676   3.198   0.013  0.00  0.00    +0.132 A 
ATOM      3  C   UNL     1       1.113   1.912   0.002  0.00  0.00    +0.071 A 
ATOM      4  C   UNL     1      -0.013   1.076   0.008  0.00  0.00    +0.157 A 
ATOM      5  N   UNL     1      -1.083   1.827   0.017  0.00  0.00    -0.177 NA
ENDROOT
BRANCH   3   6
ATOM      6  N   UNL     1       2.457   1.494  -0.014  0.00  0.00    -0.282 N 
ATOM      7  C   UNL     1       2.753   0.179  -0.024  0.00  0.00    +0.239 C 
ATOM      8  O   UNL     1       1.861  -0.644  -0.019  0.00  0.00    -0.273 OA
ATOM      9  H   UNL     1       3.170   2.151  -0.017  0.00  0.00    +0.155 HD
BRANCH   7  10
ATOM     10  C   UNL     1       4.192  -0.270  -0.040  0.00  0.00    +0.239 C 
BRANCH  10  11
ATOM     11  N   UNL     1       4.247  -1.734  -0.049  0.00  0.00    -0.254 N 
ATOM     12  C   UNL     1       4.266  -2.521  -1.144  0.00  0.00    +0.105 A 
ATOM     13  C   UNL     1       4.319  -3.807  -0.727  0.00  0.00    +0.054 A 
ATOM     14  C   UNL     1       4.333  -3.805   0.672  0.00  0.00    +0.067 A 
ATOM     15  N   UNL     1       4.295  -2.563   1.079  0.00  0.00    -0.175 NA
BRANCH  14  16
ATOM     16  C   UNL     1       4.388  -5.024   1.556  0.00  0.00    +0.040 C 
ATOM     17  C   UNL     1       4.053  -6.375   0.920  0.00  0.00    +0.010 C 
ATOM     18  C   UNL     1       3.065  -5.718   1.887  0.00  0.00    +0.010 C 
ENDBRANCH  14  16
BRANCH  12  19
ATOM     19  C   UNL     1       4.234  -2.052  -2.576  0.00  0.00    +0.389 C 
ATOM     20  F   UNL     1       3.603  -3.017  -3.368  0.00  0.00    -0.202 F 
ATOM     21  F   UNL     1       3.526  -0.848  -2.656  0.00  0.00    -0.202 F 
ENDBRANCH  12  19
ENDBRANCH  10  11
ENDBRANCH   7  10
ENDBRANCH   3   6
BRANCH   1  22
ATOM     22  C   UNL     1      -1.568   4.335   0.040  0.00  0.00    +0.184 C 
BRANCH  22  25
ATOM     23  C   UNL     1      -3.084   4.726  -3.399  0.00  0.00    +0.080 A 
ATOM     24  C   UNL     1      -2.202   4.811  -2.335  0.00  0.00    +0.134 A 
ATOM     25  C   UNL     1      -2.532   4.247  -1.115  0.00  0.00    +0.047 A 
ATOM     26  C   UNL     1      -3.750   3.609  -0.953  0.00  0.00    +0.169 A 
ATOM     27  C   UNL     1      -4.636   3.529  -2.016  0.00  0.00    +0.194 A 
ATOM     28  C   UNL     1      -4.302   4.088  -3.239  0.00  0.00    +0.164 A 
ATOM     29  F   UNL     1      -5.165   4.010  -4.276  0.00  0.00    -0.202 F 
ATOM     30  F   UNL     1      -5.824   2.905  -1.859  0.00  0.00    -0.199 F 
ATOM     31  F   UNL     1      -4.074   3.065   0.240  0.00  0.00    -0.202 F 
ATOM     32  F   UNL     1      -1.016   5.438  -2.490  0.00  0.00    -0.205 F 
ENDBRANCH  22  25
ENDBRANCH   1  22
TORSDOF 7
