REMARK  Name = ZINC16922991
REMARK  7 active torsions:
REMARK  status: ('A' for Active; 'I' for Inactive)
REMARK    1  A    between atoms: C_1  and  C_2
REMARK    2  A    between atoms: C_7  and  N_8
REMARK    3  A    between atoms: C_11  and  C_16
REMARK    4  A    between atoms: C_16  and  C_17
REMARK    5  A    between atoms: N_19  and  C_20
REMARK    6  A    between atoms: C_22  and  C_28
REMARK    7  A    between atoms: C_24  and  C_26
REMARK                            x       y       z     vdW  Elec       q    Type
REMARK                         _______ _______ _______ _____ _____    ______ ____
ROOT
ATOM      1  C   UNL     1       7.904  -1.692  -1.786  0.00  0.00    +0.219 C 
ATOM      2  O   UNL     1       7.926  -2.830  -1.368  0.00  0.00    -0.275 OA
ATOM      3  N   UNL     1       9.053  -1.077  -2.127  0.00  0.00    -0.285 N 
ATOM      4  H   UNL     1       9.030  -0.196  -2.532  0.00  0.00    +0.155 HD
ENDROOT
BRANCH   3   5
ATOM      5  C   UNL     1      10.281  -1.709  -1.898  0.00  0.00    +0.035 A 
ATOM      6  C   UNL     1      10.439  -2.533  -0.793  0.00  0.00    +0.038 A 
ATOM      7  C   UNL     1      11.660  -3.170  -0.564  0.00  0.00    +0.066 A 
ATOM      8  C   UNL     1      12.725  -2.969  -1.440  0.00  0.00    +0.030 A 
ATOM      9  C   UNL     1      12.564  -2.136  -2.546  0.00  0.00    +0.066 A 
ATOM     10  C   UNL     1      11.338  -1.507  -2.773  0.00  0.00    +0.038 A 
BRANCH   9  11
ATOM     11  C   UNL     1      13.690  -1.919  -3.479  0.00  0.00    +0.387 C 
ATOM     12  O   UNL     1      13.549  -1.193  -4.442  0.00  0.00    -0.241 OA
ATOM     13  O   UNL     1      14.872  -2.526  -3.260  0.00  0.00    -0.241 OA
ENDBRANCH   9  11
BRANCH   7  14
ATOM     14  C   UNL     1      11.826  -4.051   0.611  0.00  0.00    +0.387 C 
ATOM     15  O   UNL     1      10.898  -4.227   1.374  0.00  0.00    -0.241 OA
ATOM     16  O   UNL     1      13.006  -4.661   0.834  0.00  0.00    -0.241 OA
ENDBRANCH   7  14
ENDBRANCH   3   5
BRANCH   1  17
ATOM     17  C   UNL     1       6.591  -0.965  -1.922  0.00  0.00    +0.120 C 
BRANCH  17  21
ATOM     18  N   UNL     1       3.495  -1.030  -0.357  0.00  0.00    -0.200 N 
ATOM     19  C   UNL     1       4.109  -1.166  -1.520  0.00  0.00    +0.241 C 
ATOM     20  O   UNL     1       3.635  -0.748  -2.555  0.00  0.00    -0.274 OA
ATOM     21  C   UNL     1       5.452  -1.881  -1.470  0.00  0.00    +0.151 C 
ATOM     22  S   UNL     1       5.553  -2.235   0.330  0.00  0.00    -0.054 S 
ATOM     23  C   UNL     1       3.999  -1.490   0.803  0.00  0.00    +0.286 C 
ATOM     24  O   UNL     1       3.511  -1.417   1.914  0.00  0.00    -0.262 OA
BRANCH  18  31
ATOM     25  C   UNL     1       1.143  -2.596  -0.697  0.00  0.00    +0.045 C 
ATOM     26  C   UNL     1       1.083  -1.104  -0.494  0.00  0.00    -0.029 A 
ATOM     27  C   UNL     1      -0.138  -0.458  -0.468  0.00  0.00    +0.005 A 
ATOM     28  C   UNL     1      -0.193   0.911  -0.282  0.00  0.00    +0.000 A 
ATOM     29  C   UNL     1       0.972   1.637  -0.120  0.00  0.00    +0.002 A 
ATOM     30  C   UNL     1       2.196   0.997  -0.144  0.00  0.00    +0.024 A 
ATOM     31  C   UNL     1       2.255  -0.377  -0.331  0.00  0.00    +0.048 A 
ENDBRANCH  18  31
ENDBRANCH  17  21
ENDBRANCH   1  17
TORSDOF 6
