REMARK  Name = ZINC44887280
REMARK  6 active torsions:
REMARK  status: ('A' for Active; 'I' for Inactive)
REMARK    1  A    between atoms: C_1  and  C_2
REMARK    2  A    between atoms: C_2  and  C_4
REMARK    3  A    between atoms: C_2  and  N_9
REMARK    4  A    between atoms: N_9  and  S_10
REMARK    5  A    between atoms: S_10  and  C_13
REMARK    6  A    between atoms: C_16  and  N_20
REMARK                            x       y       z     vdW  Elec       q    Type
REMARK                         _______ _______ _______ _____ _____    ______ ____
ROOT
ATOM      1  S   UNL     1       2.300  -0.849  -1.146  0.00  0.00    +0.062 S 
ATOM      2  O   UNL     1       2.660  -1.296  -2.446  0.00  0.00    -0.153 OA
ATOM      3  O   UNL     1       2.947   0.245  -0.511  0.00  0.00    -0.153 OA
ENDROOT
BRANCH   1   4
ATOM      4  C   UNL     1       2.478  -2.233  -0.071  0.00  0.00    +0.142 A 
ATOM      5  C   UNL     1       2.680  -2.034   1.284  0.00  0.00    +0.070 A 
ATOM      6  C   UNL     1       2.819  -3.118   2.130  0.00  0.00    +0.044 A 
ATOM      7  C   UNL     1       2.756  -4.408   1.620  0.00  0.00    +0.027 A 
ATOM      8  C   UNL     1       2.553  -4.605   0.260  0.00  0.00    +0.044 A 
ATOM      9  C   UNL     1       2.409  -3.518  -0.581  0.00  0.00    +0.070 A 
ATOM     10 CL   UNL     1       2.148  -3.763  -2.280  0.00  0.00    -0.081 Cl
ATOM     11 CL   UNL     1       2.759  -0.421   1.921  0.00  0.00    -0.081 Cl
BRANCH   7  12
ATOM     12  N   UNL     1       2.897  -5.505   2.472  0.00  0.00    -0.358 N 
ATOM     13  H   UNL     1       3.039  -5.367   3.422  0.00  0.00    +0.142 HD
ATOM     14  H   UNL     1       2.853  -6.406   2.115  0.00  0.00    +0.142 HD
ENDBRANCH   7  12
ENDBRANCH   1   4
BRANCH   1  15
ATOM     15  N   UNL     1       0.688  -0.476  -1.203  0.00  0.00    -0.180 NA
ATOM     16  H   UNL     1       0.197  -0.571  -2.035  0.00  0.00    +0.149 HD
BRANCH  15  18
ATOM     17  C   UNL     1      -0.019   1.526   0.010  0.00  0.00    +0.034 C 
ATOM     18  C   UNL     1       0.002  -0.004   0.002  0.00  0.00    +0.145 C 
BRANCH  18  19
ATOM     19  C   UNL     1      -1.412  -0.526   0.013  0.00  0.00    +0.195 A 
ATOM     20  N   UNL     1      -2.048  -1.063   1.044  0.00  0.00    -0.109 NA
ATOM     21  N   UNL     1      -3.233  -1.380   0.647  0.00  0.00    -0.021 NA
ATOM     22  N   UNL     1      -3.361  -1.061  -0.593  0.00  0.00    -0.021 NA
ATOM     23  N   UNL     1      -2.260  -0.530  -1.005  0.00  0.00    -0.109 NA
ENDBRANCH  18  19
ENDBRANCH  15  18
ENDBRANCH   1  15
TORSDOF 5
