REMARK  Name = ZINC49500548
REMARK  7 active torsions:
REMARK  status: ('A' for Active; 'I' for Inactive)
REMARK    1  A    between atoms: C_1  and  C_2
REMARK    2  A    between atoms: C_3  and  N_20
REMARK    3  A    between atoms: C_5  and  C_7
REMARK    4  A    between atoms: N_9  and  C_10
REMARK    5  A    between atoms: C_10  and  C_12
REMARK    6  A    between atoms: C_10  and  C_13
REMARK    7  A    between atoms: C_13  and  N_14
REMARK                            x       y       z     vdW  Elec       q    Type
REMARK                         _______ _______ _______ _____ _____    ______ ____
ROOT
ATOM      1  C   UNL     1       0.920  -4.303   0.314  0.00  0.00    +0.251 C 
ATOM      2  O   UNL     1       0.254  -5.319   0.377  0.00  0.00    -0.270 OA
ATOM      3  N   UNL     1       2.252  -4.381   0.125  0.00  0.00    -0.310 N 
ATOM      4  H   UNL     1       2.784  -3.571   0.075  0.00  0.00    +0.149 HD
ENDROOT
BRANCH   1   9
ATOM      5  C   UNL     1      -0.637   1.089   0.689  0.00  0.00    +0.053 C 
ATOM      6  C   UNL     1      -0.479  -0.408   0.623  0.00  0.00    +0.008 A 
ATOM      7  C   UNL     1      -1.436  -1.376   0.729  0.00  0.00    +0.035 A 
ATOM      8  C   UNL     1      -1.066  -2.697   0.638  0.00  0.00    +0.043 A 
ATOM      9  C   UNL     1       0.274  -2.994   0.442  0.00  0.00    +0.076 A 
ATOM     10  S   UNL     1       1.007  -1.367   0.380  0.00  0.00    -0.087 S 
BRANCH   7  11
ATOM     11  N   UNL     1      -2.785  -1.026   0.927  0.00  0.00    -0.357 N 
ATOM     12  H   UNL     1      -3.039  -0.092   0.991  0.00  0.00    +0.142 HD
ATOM     13  H   UNL     1      -3.460  -1.718   1.001  0.00  0.00    +0.142 HD
ENDBRANCH   7  11
ENDBRANCH   1   9
BRANCH   3  14
ATOM     14  C   UNL     1       2.898  -5.689  -0.003  0.00  0.00    +0.054 C 
ATOM     15  C   UNL     1       2.846  -6.143  -1.464  0.00  0.00    +0.026 C 
BRANCH  14  16
ATOM     16  C   UNL     1       4.357  -5.584   0.446  0.00  0.00    -0.057 C 
BRANCH  16  17
ATOM     17  N   UNL     1       4.411  -5.048   1.813  0.00  0.00    +0.381 N 
ATOM     18  C   UNL     1       5.809  -4.806   2.187  0.00  0.00    -0.079 C 
ATOM     19  C   UNL     1       5.867  -4.173   3.579  0.00  0.00    -0.019 C 
ATOM     20  C   UNL     1       5.222  -5.122   4.593  0.00  0.00    -0.004 C 
ATOM     21  C   UNL     1       3.787  -5.426   4.152  0.00  0.00    -0.019 C 
ATOM     22  C   UNL     1       3.807  -6.013   2.740  0.00  0.00    -0.079 C 
ATOM     23  H   UNL     1       3.899  -4.180   1.853  0.00  0.00    -0.082 HD
ENDBRANCH  16  17
ENDBRANCH  14  16
ENDBRANCH   3  14
TORSDOF 5
