REMARK  Name = ZINC13301094
REMARK  7 active torsions:
REMARK  status: ('A' for Active; 'I' for Inactive)
REMARK    1  A    between atoms: C_1  and  C_2
REMARK    2  A    between atoms: C_2  and  C_3
REMARK    3  A    between atoms: N_5  and  C_6
REMARK    4  A    between atoms: C_9  and  C_12
REMARK    5  A    between atoms: N_17  and  S_18
REMARK    6  A    between atoms: S_18  and  C_21
REMARK    7  A    between atoms: C_23  and  C_26
REMARK                            x       y       z     vdW  Elec       q    Type
REMARK                         _______ _______ _______ _____ _____    ______ ____
ROOT
ATOM      1  C   UNL     1      -5.930  -1.192  -0.351  0.00  0.00    +0.080 A 
ATOM      2  C   UNL     1      -5.873  -2.557  -0.352  0.00  0.00    +0.077 A 
ATOM      3  S   UNL     1      -7.608  -2.964  -0.485  0.00  0.00    -0.059 S 
ATOM      4  C   UNL     1      -8.231  -1.289  -0.526  0.00  0.00    +0.178 A 
ATOM      5  N   UNL     1      -7.115  -0.590  -0.433  0.00  0.00    -0.224 NA
ATOM      6  N   UNL     1      -9.539  -0.843  -0.623  0.00  0.00    -0.193 N 
ATOM      7  H   UNL     1      -9.727   0.108  -0.633  0.00  0.00    +0.176 HD
ENDROOT
BRANCH   1  11
ATOM      8  C   UNL     1      -2.364   1.109  -0.073  0.00  0.00    +0.033 A 
ATOM      9  C   UNL     1      -2.295  -0.278  -0.079  0.00  0.00    +0.024 A 
ATOM     10  C   UNL     1      -3.450  -1.027  -0.163  0.00  0.00    +0.012 A 
ATOM     11  C   UNL     1      -4.687  -0.390  -0.254  0.00  0.00    +0.001 A 
ATOM     12  C   UNL     1      -4.753   1.003  -0.254  0.00  0.00    +0.012 A 
ATOM     13  C   UNL     1      -3.595   1.747  -0.164  0.00  0.00    +0.024 A 
BRANCH   8  16
ATOM     14  C   UNL     1      -0.147   1.409   0.737  0.00  0.00    +0.217 C 
ATOM     15  O   UNL     1      -0.257   0.388   1.383  0.00  0.00    -0.275 OA
ATOM     16  N   UNL     1      -1.191   1.867   0.018  0.00  0.00    -0.286 N 
ATOM     17  H   UNL     1      -1.128   2.721  -0.437  0.00  0.00    +0.155 HD
BRANCH  14  19
ATOM     18  C   UNL     1       2.171   1.430   1.619  0.00  0.00    +0.013 C 
ATOM     19  C   UNL     1       1.159   2.161   0.734  0.00  0.00    +0.093 C 
ENDBRANCH  14  19
ENDBRANCH   8  16
ENDBRANCH   1  11
BRANCH   6  20
ATOM     20  S   UNL     1     -10.781  -1.934  -0.721  0.00  0.00    +0.080 S 
ATOM     21  O   UNL     1     -11.982  -1.177  -0.781  0.00  0.00    -0.149 OA
ATOM     22  O   UNL     1     -10.419  -2.872  -1.726  0.00  0.00    -0.149 OA
BRANCH  20  23
ATOM     23  C   UNL     1     -10.819  -2.818   0.803  0.00  0.00    +0.147 A 
ATOM     24  C   UNL     1     -11.495  -2.518   1.929  0.00  0.00    +0.051 A 
ATOM     25  C   UNL     1     -11.351  -3.423   3.042  0.00  0.00    +0.072 A 
ATOM     26  C   UNL     1     -10.525  -4.514   2.860  0.00  0.00    +0.062 A 
ATOM     27  S   UNL     1      -9.967  -4.323   1.231  0.00  0.00    -0.076 S 
BRANCH  25  28
ATOM     28  C   UNL     1     -12.048  -3.192   4.315  0.00  0.00    +0.387 C 
ATOM     29  O   UNL     1     -12.770  -2.223   4.446  0.00  0.00    -0.241 OA
ATOM     30  O   UNL     1     -11.888  -4.055   5.338  0.00  0.00    -0.241 OA
ENDBRANCH  25  28
ENDBRANCH  20  23
ENDBRANCH   6  20
TORSDOF 6
