REMARK  Name = ZINC22824074
REMARK  9 active torsions:
REMARK  status: ('A' for Active; 'I' for Inactive)
REMARK    1  A    between atoms: C_1  and  C_2
REMARK    2  A    between atoms: C_5  and  C_8
REMARK    3  A    between atoms: C_10  and  C_13
REMARK    4  A    between atoms: C_13  and  N_14
REMARK    5  A    between atoms: N_17  and  C_20
REMARK    6  A    between atoms: C_20  and  C_22
REMARK    7  A    between atoms: C_20  and  C_23
REMARK    8  A    between atoms: N_25  and  C_26
REMARK    9  A    between atoms: C_29  and  C_33
REMARK                            x       y       z     vdW  Elec       q    Type
REMARK                         _______ _______ _______ _____ _____    ______ ____
ROOT
ATOM      1  N   UNL     1      -2.811   2.957  -2.553  0.00  0.00    -0.297 NA
ATOM      2  C   UNL     1      -2.756   1.488  -2.541  0.00  0.00    +0.066 C 
ATOM      3  C   UNL     1      -2.079   1.016  -1.252  0.00  0.00    -0.062 C 
ATOM      4  N   UNL     1      -0.729   1.591  -1.172  0.00  0.00    +0.389 N 
ATOM      5  C   UNL     1      -0.784   3.060  -1.184  0.00  0.00    -0.062 C 
ATOM      6  C   UNL     1      -1.460   3.532  -2.473  0.00  0.00    +0.066 C 
ATOM      7  H   UNL     1      -0.167   1.265  -2.059  0.00  0.00    -0.081 HD
ENDROOT
BRANCH   4   8
ATOM      8  C   UNL     1      -0.018   1.101   0.016  0.00  0.00    +0.017 C 
ATOM      9  C   UNL     1      -0.726   1.600   1.277  0.00  0.00    -0.004 C 
BRANCH   8  10
ATOM     10  C   UNL     1       1.400   1.613   0.000  0.00  0.00    +0.203 C 
ATOM     11  O   UNL     1       1.780   2.317  -0.911  0.00  0.00    -0.277 OA
ATOM     12  N   UNL     1       2.245   1.288   0.998  0.00  0.00    -0.286 N 
ATOM     13  H   UNL     1       1.881   0.711   1.861  0.00  0.00    +0.155 HD
BRANCH  12  14
ATOM     14  C   UNL     1       3.586   1.684   0.937  0.00  0.00    +0.047 A 
ATOM     15  C   UNL     1       3.926   2.900   0.359  0.00  0.00    +0.024 A 
ATOM     16  C   UNL     1       5.250   3.288   0.300  0.00  0.00    +0.005 A 
ATOM     17  C   UNL     1       6.237   2.468   0.816  0.00  0.00    -0.049 A 
ATOM     18  C   UNL     1       5.902   1.257   1.392  0.00  0.00    +0.020 A 
ATOM     19  C   UNL     1       4.579   0.865   1.459  0.00  0.00    +0.039 A 
ATOM     20 BR   UNL     1       4.121  -0.789   2.254  0.00  0.00    -0.048 Br
ATOM     21  C   UNL     1       7.681   2.896   0.749  0.00  0.00    +0.044 C 
ENDBRANCH  12  14
ENDBRANCH   8  10
ENDBRANCH   4   8
BRANCH   1  22
ATOM     22  C   UNL     1      -3.522   3.448  -3.741  0.00  0.00    +0.183 C 
BRANCH  22  25
ATOM     23  C   UNL     1      -2.640   6.885  -4.311  0.00  0.00    +0.202 A 
ATOM     24  N   UNL     1      -2.390   5.568  -4.485  0.00  0.00    -0.190 NA
ATOM     25  C   UNL     1      -3.348   4.941  -3.849  0.00  0.00    +0.242 A 
ATOM     26  O   UNL     1      -4.146   5.874  -3.320  0.00  0.00    -0.336 OA
ATOM     27  N   UNL     1      -3.726   6.979  -3.588  0.00  0.00    -0.056 NA
BRANCH  23  32
ATOM     28  C   UNL     1       0.488  11.262  -6.369  0.00  0.00    +0.044 C 
ATOM     29  C   UNL     1      -0.331  10.117  -5.831  0.00  0.00    -0.050 A 
ATOM     30  C   UNL     1      -1.462  10.373  -5.077  0.00  0.00    +0.004 A 
ATOM     31  C   UNL     1      -2.216   9.328  -4.582  0.00  0.00    +0.012 A 
ATOM     32  C   UNL     1      -1.835   8.013  -4.842  0.00  0.00    +0.022 A 
ATOM     33  C   UNL     1      -0.691   7.761  -5.597  0.00  0.00    +0.012 A 
ATOM     34  C   UNL     1       0.052   8.813  -6.091  0.00  0.00    +0.004 A 
ENDBRANCH  23  32
ENDBRANCH  22  25
ENDBRANCH   1  22
TORSDOF 6
