REMARK  Name = ZINC46552388
REMARK  5 active torsions:
REMARK  status: ('A' for Active; 'I' for Inactive)
REMARK    1  A    between atoms: C_1  and  C_2
REMARK    2  A    between atoms: C_4  and  C_31
REMARK    3  A    between atoms: C_6  and  C_26
REMARK    4  A    between atoms: C_10  and  C_11
REMARK    5  A    between atoms: N_16  and  C_19
REMARK                            x       y       z     vdW  Elec       q    Type
REMARK                         _______ _______ _______ _____ _____    ______ ____
ROOT
ATOM      1  C   UNL     1       2.845   0.522  -1.037  0.00  0.00    +0.046 C 
ATOM      2  C   UNL     1       1.870  -0.564  -0.660  0.00  0.00    -0.020 A 
ATOM      3  C   UNL     1       0.977  -1.070  -1.615  0.00  0.00    +0.032 A 
ATOM      4  C   UNL     1       0.823  -0.707  -2.979  0.00  0.00    +0.051 A 
ATOM      5  N   UNL     1      -0.085  -1.311  -3.710  0.00  0.00    -0.229 NA
ATOM      6  C   UNL     1      -0.877  -2.263  -3.218  0.00  0.00    +0.197 A 
ATOM      7  N   UNL     1      -0.782  -2.648  -1.948  0.00  0.00    -0.217 NA
ATOM      8  C   UNL     1       0.102  -2.091  -1.155  0.00  0.00    +0.113 A 
ATOM      9  S   UNL     1       0.563  -2.285   0.548  0.00  0.00    -0.064 S 
ATOM     10  C   UNL     1       1.859  -1.059   0.608  0.00  0.00    +0.080 A 
ATOM     11  C   UNL     1       1.694   0.364  -3.583  0.00  0.00    +0.066 C 
ENDROOT
BRANCH  10  12
ATOM     12  C   UNL     1       2.705  -0.678   1.746  0.00  0.00    +0.254 C 
ATOM     13  O   UNL     1       2.885   0.498   2.003  0.00  0.00    -0.269 OA
ATOM     14  N   UNL     1       3.282  -1.630   2.506  0.00  0.00    -0.294 N 
ATOM     15  C   UNL     1       3.003  -3.052   2.263  0.00  0.00    +0.127 C 
ATOM     16  C   UNL     1       4.333  -3.782   2.044  0.00  0.00    +0.124 C 
ATOM     17  N   UNL     1       5.254  -3.417   3.130  0.00  0.00    -0.326 N 
ATOM     18  C   UNL     1       5.533  -1.995   3.373  0.00  0.00    +0.124 C 
ATOM     19  C   UNL     1       4.207  -1.264   3.588  0.00  0.00    +0.127 C 
BRANCH  17  20
ATOM     20  C   UNL     1       5.852  -4.404   3.918  0.00  0.00    +0.048 A 
ATOM     21  C   UNL     1       7.077  -4.943   3.547  0.00  0.00    +0.024 A 
ATOM     22  C   UNL     1       7.666  -5.918   4.328  0.00  0.00    +0.002 A 
ATOM     23  C   UNL     1       7.037  -6.359   5.478  0.00  0.00    +0.002 A 
ATOM     24  C   UNL     1       5.817  -5.825   5.851  0.00  0.00    +0.022 A 
ATOM     25  C   UNL     1       5.225  -4.845   5.077  0.00  0.00    +0.062 A 
ATOM     26 CL   UNL     1       3.697  -4.170   5.549  0.00  0.00    -0.082 Cl
ENDBRANCH  17  20
ENDBRANCH  10  12
BRANCH   6  27
ATOM     27  C   UNL     1      -1.875  -2.900  -4.096  0.00  0.00    +0.172 A 
ATOM     28  C   UNL     1      -2.752  -3.877  -3.733  0.00  0.00    +0.053 A 
ATOM     29  C   UNL     1      -3.511  -4.186  -4.877  0.00  0.00    +0.042 A 
ATOM     30  C   UNL     1      -3.067  -3.391  -5.873  0.00  0.00    +0.196 A 
ATOM     31  O   UNL     1      -2.084  -2.612  -5.396  0.00  0.00    -0.460 OA
ENDBRANCH   6  27
TORSDOF 3
