REMARK  Name = ZINC00933848
REMARK  5 active torsions:
REMARK  status: ('A' for Active; 'I' for Inactive)
REMARK    1  A    between atoms: C_1  and  C_2
REMARK    2  A    between atoms: C_2  and  C_31
REMARK    3  A    between atoms: C_6  and  C_14
REMARK    4  A    between atoms: C_8  and  C_12
REMARK    5  A    between atoms: C_9  and  N_11
REMARK                            x       y       z     vdW  Elec       q    Type
REMARK                         _______ _______ _______ _____ _____    ______ ____
ROOT
ATOM      1  C   UNL     1       1.682   8.899   2.729  0.00  0.00    +0.012 C 
ATOM      2  C   UNL     1       0.956   7.733   3.404  0.00  0.00    -0.021 C 
ATOM      3  C   UNL     1      -0.096   7.162   2.452  0.00  0.00    +0.081 C 
ATOM      4  C   UNL     1       0.576   6.646   1.202  0.00  0.00    +0.115 C 
ATOM      5  C   UNL     1       1.824   6.145   1.250  0.00  0.00    +0.046 C 
ATOM      6  C   UNL     1       2.489   5.618   0.002  0.00  0.00    +0.104 C 
ATOM      7  C   UNL     1       1.792   6.151  -1.219  0.00  0.00    +0.098 C 
ATOM      8  C   UNL     1       0.539   6.660  -1.125  0.00  0.00    +0.198 C 
ATOM      9  O   UNL     1      -0.114   6.698   0.047  0.00  0.00    -0.445 OA
ATOM     10  C   UNL     1       2.548   6.099   2.457  0.00  0.00    +0.164 C 
ATOM     11  O   UNL     1       3.666   5.624   2.464  0.00  0.00    -0.292 OA
ATOM     12  C   UNL     1       1.961   6.626   3.738  0.00  0.00    +0.086 C 
ATOM     13  C   UNL     1       0.279   8.223   4.686  0.00  0.00    +0.012 C 
ENDROOT
BRANCH   6  14
ATOM     14  C   UNL     1       2.422   4.112  -0.002  0.00  0.00    +0.003 A 
ATOM     15  C   UNL     1       1.210   3.481   0.007  0.00  0.00    +0.017 A 
ATOM     16  C   UNL     1       1.193   2.075   0.002  0.00  0.00    +0.004 A 
ATOM     17  C   UNL     1      -0.016   1.360   0.009  0.00  0.00    +0.059 A 
ATOM     18  C   UNL     1       0.002  -0.004   0.002  0.00  0.00    +0.167 A 
ATOM     19  C   UNL     1       1.221  -0.704  -0.012  0.00  0.00    +0.168 A 
ATOM     20  C   UNL     1       2.410  -0.033  -0.018  0.00  0.00    +0.078 A 
ATOM     21  C   UNL     1       2.424   1.372  -0.012  0.00  0.00    +0.076 A 
ATOM     22  N   UNL     1       3.576   2.049  -0.019  0.00  0.00    -0.235 NA
ATOM     23  C   UNL     1       3.596   3.362  -0.015  0.00  0.00    +0.134 A 
ATOM     24 CL   UNL     1       5.125   4.184  -0.027  0.00  0.00    -0.062 Cl
ATOM     25  O   UNL     1       0.950  -2.042  -0.017  0.00  0.00    -0.453 OA
ATOM     26  C   UNL     1      -0.426  -2.155  -0.423  0.00  0.00    +0.466 C 
ATOM     27  O   UNL     1      -1.017  -0.914   0.005  0.00  0.00    -0.453 OA
ENDBRANCH   6  14
BRANCH   8  28
ATOM     28  N   UNL     1      -0.075   7.146  -2.252  0.00  0.00    -0.328 N 
ATOM     29  H   UNL     1       0.388   7.123  -3.104  0.00  0.00    +0.145 HD
ATOM     30  H   UNL     1      -0.971   7.513  -2.197  0.00  0.00    +0.145 HD
ENDBRANCH   8  28
BRANCH   7  31
ATOM     31  C   UNL     1       2.455   6.121  -2.488  0.00  0.00    +0.101 C 
ATOM     32  N   UNL     1       2.981   6.098  -3.494  0.00  0.00    -0.191 NA
ENDBRANCH   7  31
TORSDOF 3
