REMARK  Name = ZINC62641599
REMARK  4 active torsions:
REMARK  status: ('A' for Active; 'I' for Inactive)
REMARK    1  A    between atoms: C_1  and  C_2
REMARK    2  A    between atoms: C_2  and  C_27
REMARK    3  A    between atoms: C_7  and  N_11
REMARK    4  A    between atoms: C_12  and  C_14
REMARK                            x       y       z     vdW  Elec       q    Type
REMARK                         _______ _______ _______ _____ _____    ______ ____
ROOT
ATOM      1  N   UNL     1       1.736  -6.107   4.709  0.00  0.00    -0.278 N 
ATOM      2  C   UNL     1       0.832  -7.075   4.960  0.00  0.00    +0.303 C 
ATOM      3  O   UNL     1       1.037  -7.884   5.841  0.00  0.00    -0.265 OA
ATOM      4  H   UNL     1       1.547  -5.428   4.043  0.00  0.00    +0.155 HD
ENDROOT
BRANCH   2   5
ATOM      5  C   UNL     1      -0.422  -7.152   4.153  0.00  0.00    +0.302 C 
ATOM      6  O   UNL     1      -0.684  -6.278   3.352  0.00  0.00    -0.265 OA
ATOM      7  N   UNL     1      -1.264  -8.192   4.313  0.00  0.00    -0.290 N 
ATOM      8  C   UNL     1      -2.525  -8.162   3.629  0.00  0.00    +0.112 C 
ATOM      9  C   UNL     1      -3.628  -8.816   4.405  0.00  0.00    +0.007 C 
ATOM     10  C   UNL     1      -3.652  -8.397   5.866  0.00  0.00    +0.008 C 
ATOM     11  C   UNL     1      -2.775  -9.241   6.770  0.00  0.00    -0.009 C 
ATOM     12  C   UNL     1      -3.037 -10.733   6.552  0.00  0.00    +0.007 C 
ATOM     13  C   UNL     1      -2.731 -11.037   5.084  0.00  0.00    -0.009 C 
ATOM     14  C   UNL     1      -3.754 -10.301   4.218  0.00  0.00    +0.008 C 
ATOM     15  C   UNL     1      -1.318 -10.646   4.716  0.00  0.00    +0.026 C 
ATOM     16  C   UNL     1      -0.848  -9.293   5.165  0.00  0.00    +0.077 C 
ATOM     17  C   UNL     1      -1.287  -8.973   6.601  0.00  0.00    +0.026 C 
ENDBRANCH   2   5
BRANCH   1  24
ATOM     18  C   UNL     1       6.486  -6.464  10.097  0.00  0.00    +0.104 C 
ATOM     19  C   UNL     1       5.915  -6.933   8.757  0.00  0.00    +0.248 C 
ATOM     20  O   UNL     1       6.381  -6.091   7.686  0.00  0.00    -0.448 OA
ATOM     21  C   UNL     1       5.347  -6.028   6.796  0.00  0.00    +0.167 A 
ATOM     22  C   UNL     1       5.305  -5.644   5.465  0.00  0.00    +0.051 A 
ATOM     23  C   UNL     1       4.109  -5.670   4.773  0.00  0.00    +0.027 A 
ATOM     24  C   UNL     1       2.946  -6.081   5.410  0.00  0.00    +0.038 A 
ATOM     25  C   UNL     1       2.984  -6.468   6.744  0.00  0.00    +0.073 A 
ATOM     26  C   UNL     1       4.182  -6.441   7.438  0.00  0.00    +0.169 A 
ATOM     27  O   UNL     1       4.486  -6.763   8.729  0.00  0.00    -0.448 OA
ATOM     28  C   UNL     1       6.288  -8.394   8.497  0.00  0.00    +0.104 C 
ENDBRANCH   1  24
TORSDOF 2
