REMARK  Name = ZINC13734052
REMARK  16 active torsions:
REMARK  status: ('A' for Active; 'I' for Inactive)
REMARK    1  A    between atoms: C_1  and  C_2
REMARK    2  A    between atoms: C_2  and  C_3
REMARK    3  A    between atoms: C_3  and  C_4
REMARK    4  A    between atoms: C_4  and  N_58
REMARK    5  A    between atoms: C_5  and  C_6
REMARK    6  A    between atoms: C_5  and  N_58
REMARK    7  A    between atoms: C_6  and  C_7
REMARK    8  A    between atoms: C_7  and  C_8
REMARK    9  A    between atoms: C_9  and  C_10
REMARK   10  A    between atoms: C_9  and  N_58
REMARK   11  A    between atoms: C_10  and  C_11
REMARK   12  A    between atoms: C_11  and  N_60
REMARK   13  A    between atoms: C_12  and  C_13
REMARK   14  A    between atoms: C_12  and  N_60
REMARK   15  A    between atoms: C_16  and  C_18
REMARK   16  A    between atoms: C_22  and  C_24
REMARK                            x       y       z     vdW  Elec       q    Type
REMARK                         _______ _______ _______ _____ _____    ______ ____
ROOT
ATOM      1  N   UNL     1       7.259  -2.155   1.315  0.00  0.00    +0.384 N 
ATOM      2  H   UNL     1       7.907  -1.509   1.781  0.00  0.00    -0.085 HD
ATOM      3  H   UNL     1       6.361  -2.155   1.812  0.00  0.00    -0.085 HD
ENDROOT
BRANCH   1   4
ATOM      4  C   UNL     1       7.828  -3.516   1.338  0.00  0.00    -0.084 C 
BRANCH   4   5
ATOM      5  C   UNL     1       8.038  -3.947   2.791  0.00  0.00    -0.038 C 
BRANCH   5   6
ATOM      6  C   UNL     1       8.628  -5.359   2.823  0.00  0.00    -0.081 C 
BRANCH   6   7
ATOM      7  N   UNL     1       8.956  -5.703   4.223  0.00  0.00    +0.380 N 
ATOM      8  H   UNL     1       9.386  -4.887   4.674  0.00  0.00    -0.082 HD
BRANCH   7   9
ATOM      9  C   UNL     1       7.724  -6.063   4.956  0.00  0.00    -0.079 C 
BRANCH   9  10
ATOM     10  C   UNL     1       8.057  -6.195   6.444  0.00  0.00    -0.019 C 
BRANCH  10  12
ATOM     11  C   UNL     1       7.119  -6.679   8.709  0.00  0.00    +0.004 C 
ATOM     12  C   UNL     1       6.787  -6.547   7.221  0.00  0.00    -0.005 C 
ENDBRANCH  10  12
ENDBRANCH   9  10
ENDBRANCH   7   9
BRANCH   7  13
ATOM     13  C   UNL     1       9.911  -6.830   4.255  0.00  0.00    -0.079 C 
BRANCH  13  14
ATOM     14  C   UNL     1      11.306  -6.300   3.917  0.00  0.00    -0.019 C 
BRANCH  14  15
ATOM     15  C   UNL     1      12.333  -7.421   4.088  0.00  0.00    -0.005 C 
ATOM     16  C   UNL     1      13.728  -6.892   3.750  0.00  0.00    +0.004 C 
ENDBRANCH  14  15
ENDBRANCH  13  14
ENDBRANCH   7  13
ENDBRANCH   6   7
ENDBRANCH   5   6
ENDBRANCH   4   5
ENDBRANCH   1   4
BRANCH   1  17
ATOM     17  C   UNL     1       7.046  -1.712  -0.075  0.00  0.00    -0.007 C 
BRANCH  17  18
ATOM     18  C   UNL     1       6.465  -0.321  -0.067  0.00  0.00    +0.089 A 
ATOM     19  C   UNL     1       7.173   0.825  -0.084  0.00  0.00    +0.043 A 
ATOM     20  C   UNL     1       6.243   1.884  -0.068  0.00  0.00    +0.050 A 
ATOM     21  C   UNL     1       5.006   1.319  -0.043  0.00  0.00    +0.135 A 
ATOM     22  O   UNL     1       5.157  -0.019  -0.037  0.00  0.00    -0.462 OA
BRANCH  21  23
ATOM     23  C   UNL     1       3.720   2.048  -0.019  0.00  0.00    +0.018 A 
ATOM     24  C   UNL     1       3.707   3.445  -0.021  0.00  0.00    +0.011 A 
ATOM     25  C   UNL     1       2.507   4.127   0.003  0.00  0.00    +0.001 A 
ATOM     26  C   UNL     1       1.312   3.434   0.022  0.00  0.00    +0.015 A 
ATOM     27  C   UNL     1       1.311   2.037   0.029  0.00  0.00    +0.064 A 
ATOM     28  C   UNL     1       2.519   1.343   0.006  0.00  0.00    +0.026 A 
BRANCH  27  29
ATOM     29  C   UNL     1       0.032   1.298   0.056  0.00  0.00    +0.387 C 
ATOM     30  O   UNL     1       0.032   0.083   0.057  0.00  0.00    -0.241 OA
ATOM     31  O   UNL     1      -1.135   1.971   0.072  0.00  0.00    -0.241 OA
ENDBRANCH  27  29
ENDBRANCH  21  23
ENDBRANCH  17  18
ENDBRANCH   1  17
TORSDOF 14
