REMARK  Name = ZINC01510765
REMARK  7 active torsions:
REMARK  status: ('A' for Active; 'I' for Inactive)
REMARK    1  A    between atoms: C_1  and  C_2
REMARK    2  A    between atoms: C_2  and  N_11
REMARK    3  A    between atoms: C_3  and  C_9
REMARK    4  A    between atoms: C_3  and  C_10
REMARK    5  A    between atoms: N_4  and  C_8
REMARK    6  A    between atoms: N_11  and  O_21
REMARK    7  A    between atoms: N_14  and  C_15
REMARK                            x       y       z     vdW  Elec       q    Type
REMARK                         _______ _______ _______ _____ _____    ______ ____
ROOT
ATOM      1  N   UNL     1       0.481  -0.603  -1.198  0.00  0.00    -0.149 N 
ATOM      2  C   UNL     1       1.769  -0.433  -1.556  0.00  0.00    +0.327 C 
ATOM      3  O   UNL     1       2.532   0.161  -0.820  0.00  0.00    -0.250 OA
ATOM      4  N   UNL     1       2.212  -0.923  -2.732  0.00  0.00    -0.295 N 
ATOM      5  H   UNL     1       1.588  -1.332  -3.352  0.00  0.00    +0.151 HD
ENDROOT
BRANCH   1   7
ATOM      6  C   UNL     1      -1.542  -0.153   0.151  0.00  0.00    +0.049 C 
ATOM      7  C   UNL     1      -0.028   0.024   0.024  0.00  0.00    +0.134 C 
ATOM      8  C   UNL     1       0.714  -0.497   1.283  0.00  0.00    +0.063 C 
ATOM      9  N   UNL     1       1.845   0.349   1.618  0.00  0.00    -0.314 N 
ATOM     10  C   UNL     1       1.903   1.612   1.152  0.00  0.00    +0.112 C 
ATOM     11  S   UNL     1       3.107   2.785   1.477  0.00  0.00    -0.028 S 
ATOM     12  S   UNL     1       0.456   1.800   0.125  0.00  0.00    -0.072 S 
ATOM     13  C   UNL     1       2.924  -0.171   2.462  0.00  0.00    +0.131 C 
ATOM     14  C   UNL     1      -0.260  -0.521   2.464  0.00  0.00    +0.034 C 
ATOM     15  C   UNL     1       1.212  -1.919   1.019  0.00  0.00    +0.034 C 
ENDBRANCH   1   7
BRANCH   4  16
ATOM     16  C   UNL     1       3.634  -0.836  -3.073  0.00  0.00    +0.074 C 
ATOM     17  C   UNL     1       4.378  -2.027  -2.465  0.00  0.00    +0.022 C 
ATOM     18  C   UNL     1       5.863  -1.936  -2.821  0.00  0.00    +0.002 C 
ATOM     19  C   UNL     1       6.025  -1.956  -4.342  0.00  0.00    +0.000 C 
ATOM     20  C   UNL     1       5.281  -0.766  -4.950  0.00  0.00    +0.002 C 
ATOM     21  C   UNL     1       3.796  -0.856  -4.594  0.00  0.00    +0.022 C 
ENDBRANCH   4  16
BRANCH   1  22
ATOM     22  O   UNL     1      -0.381  -1.387  -2.003  0.00  0.00    -0.290 OA
ATOM     23  H   UNL     1       0.023  -1.696  -2.826  0.00  0.00    +0.242 HD
ENDBRANCH   1  22
TORSDOF 3
