REMARK  Name = ZINC39656880
REMARK  5 active torsions:
REMARK  status: ('A' for Active; 'I' for Inactive)
REMARK    1  A    between atoms: C_1  and  C_2
REMARK    2  A    between atoms: C_2  and  C_4
REMARK    3  A    between atoms: C_2  and  N_11
REMARK    4  A    between atoms: C_12  and  C_14
REMARK    5  A    between atoms: C_25  and  C_27
REMARK                            x       y       z     vdW  Elec       q    Type
REMARK                         _______ _______ _______ _____ _____    ______ ____
ROOT
ATOM      1  C   UNL     1       1.237  -1.304  -3.996  0.00  0.00    +0.100 C 
ATOM      2  C   UNL     1       1.631  -2.703  -3.474  0.00  0.00    +0.121 C 
ATOM      3  N   UNL     1       0.556  -3.600  -3.958  0.00  0.00    -0.296 N 
ATOM      4  C   UNL     1       0.255  -3.111  -5.325  0.00  0.00    +0.115 C 
ATOM      5  C   UNL     1       0.338  -1.575  -5.213  0.00  0.00    -0.004 C 
ATOM      6  C   UNL     1       0.963  -0.986  -6.474  0.00  0.00    -0.010 C 
ATOM      7  C   UNL     1       0.022  -1.218  -7.661  0.00  0.00    -0.082 C 
ATOM      8  N   UNL     1      -1.274  -0.584  -7.391  0.00  0.00    +0.379 N 
ATOM      9  C   UNL     1      -1.911  -1.220  -6.231  0.00  0.00    -0.082 C 
ATOM     10  C   UNL     1      -1.052  -0.988  -4.984  0.00  0.00    -0.010 C 
ATOM     11  C   UNL     1      -0.019  -4.629  -3.304  0.00  0.00    +0.247 C 
ATOM     12  O   UNL     1       0.247  -4.832  -2.136  0.00  0.00    -0.270 OA
ATOM     13  H   UNL     1      -1.134   0.397  -7.200  0.00  0.00    -0.086 HD
ATOM     14  H   UNL     1      -1.871  -0.685  -8.198  0.00  0.00    -0.086 HD
ENDROOT
BRANCH  11  15
ATOM     15  C   UNL     1      -0.975  -5.511  -4.008  0.00  0.00    +0.042 A 
ATOM     16  C   UNL     1      -0.969  -5.579  -5.402  0.00  0.00    +0.051 A 
ATOM     17  C   UNL     1      -1.864  -6.405  -6.055  0.00  0.00    +0.127 A 
ATOM     18  C   UNL     1      -2.767  -7.164  -5.328  0.00  0.00    +0.076 A 
ATOM     19  C   UNL     1      -2.778  -7.100  -3.945  0.00  0.00    +0.127 A 
ATOM     20  C   UNL     1      -1.883  -6.282  -3.281  0.00  0.00    +0.051 A 
ATOM     21  F   UNL     1      -3.661  -7.843  -3.242  0.00  0.00    -0.205 F 
ATOM     22  F   UNL     1      -1.859  -6.472  -7.404  0.00  0.00    -0.205 F 
ENDBRANCH  11  15
BRANCH   1  24
ATOM     23  N   UNL     1       0.450   0.803  -2.966  0.00  0.00    -0.308 N 
ATOM     24  C   UNL     1       0.476  -0.544  -2.940  0.00  0.00    +0.219 C 
ATOM     25  O   UNL     1      -0.112  -1.146  -2.067  0.00  0.00    -0.275 OA
ATOM     26  H   UNL     1       0.921   1.284  -3.664  0.00  0.00    +0.149 HD
BRANCH  23  28
ATOM     27  C   UNL     1      -1.760   1.650  -2.349  0.00  0.00    +0.033 C 
ATOM     28  C   UNL     1      -0.290   1.541  -1.939  0.00  0.00    +0.100 C 
BRANCH  28  29
ATOM     29  C   UNL     1       0.295   2.922  -1.794  0.00  0.00    -0.027 A 
ATOM     30  C   UNL     1       0.691   3.627  -2.915  0.00  0.00    +0.006 A 
ATOM     31  C   UNL     1       1.227   4.894  -2.782  0.00  0.00    +0.015 A 
ATOM     32  C   UNL     1       1.368   5.457  -1.527  0.00  0.00    +0.018 A 
ATOM     33  C   UNL     1       0.972   4.751  -0.405  0.00  0.00    +0.015 A 
ATOM     34  C   UNL     1       0.431   3.486  -0.539  0.00  0.00    +0.006 A 
ATOM     35 BR   UNL     1       2.102   7.190  -1.344  0.00  0.00    -0.050 Br
ENDBRANCH  28  29
ENDBRANCH  23  28
ENDBRANCH   1  24
TORSDOF 4
