REMARK  Name = ZINC38959061
REMARK  8 active torsions:
REMARK  status: ('A' for Active; 'I' for Inactive)
REMARK    1  A    between atoms: C_1  and  C_2
REMARK    2  A    between atoms: C_2  and  O_3
REMARK    3  A    between atoms: O_3  and  C_4
REMARK    4  A    between atoms: C_7  and  N_10
REMARK    5  A    between atoms: N_10  and  C_11
REMARK    6  A    between atoms: C_11  and  C_12
REMARK    7  A    between atoms: C_18  and  C_24
REMARK    8  A    between atoms: C_25  and  C_27
REMARK                            x       y       z     vdW  Elec       q    Type
REMARK                         _______ _______ _______ _____ _____    ______ ____
ROOT
ATOM      1  N   UNL     1       0.581  -5.737  -2.099  0.00  0.00    -0.266 N 
ATOM      2  C   UNL     1      -0.009  -6.529  -1.181  0.00  0.00    +0.252 C 
ATOM      3  O   UNL     1      -0.060  -6.176  -0.018  0.00  0.00    -0.270 OA
ENDROOT
BRANCH   2   4
ATOM      4  C   UNL     1      -0.592  -7.824  -1.587  0.00  0.00    +0.051 A 
ATOM      5  C   UNL     1      -0.065  -8.520  -2.677  0.00  0.00    +0.014 A 
ATOM      6  C   UNL     1      -0.614  -9.728  -3.050  0.00  0.00    +0.001 A 
ATOM      7  C   UNL     1      -1.686 -10.252  -2.348  0.00  0.00    +0.001 A 
ATOM      8  C   UNL     1      -2.213  -9.569  -1.268  0.00  0.00    +0.016 A 
ATOM      9  C   UNL     1      -1.670  -8.361  -0.879  0.00  0.00    +0.030 A 
ATOM     10 BR   UNL     1      -2.388  -7.431   0.603  0.00  0.00    -0.050 Br
ENDBRANCH   2   4
BRANCH   1  14
ATOM     11  C   UNL     1       2.670  -2.338  -0.891  0.00  0.00    +0.121 A 
ATOM     12  C   UNL     1       3.055  -3.588  -0.430  0.00  0.00    +0.047 A 
ATOM     13  C   UNL     1       2.363  -4.715  -0.830  0.00  0.00    +0.027 A 
ATOM     14  C   UNL     1       1.282  -4.596  -1.693  0.00  0.00    +0.037 A 
ATOM     15  C   UNL     1       0.897  -3.343  -2.154  0.00  0.00    +0.027 A 
ATOM     16  C   UNL     1       1.587  -2.217  -1.749  0.00  0.00    +0.047 A 
BRANCH  11  17
ATOM     17  O   UNL     1       3.351  -1.229  -0.497  0.00  0.00    -0.492 OA
BRANCH  17  19
ATOM     18  C   UNL     1       5.093  -0.076   0.718  0.00  0.00    +0.048 C 
ATOM     19  C   UNL     1       4.456  -1.427   0.388  0.00  0.00    +0.225 C 
ENDBRANCH  17  19
ENDBRANCH  11  17
ENDBRANCH   1  14
BRANCH   1  20
ATOM     20  C   UNL     1       0.488  -6.072  -3.522  0.00  0.00    +0.131 C 
BRANCH  20  21
ATOM     21  C   UNL     1       1.893  -6.285  -4.089  0.00  0.00    +0.116 C 
ATOM     22  C   UNL     1       1.773  -6.410  -5.595  0.00  0.00    -0.003 C 
ATOM     23  C   UNL     1       2.244  -7.555  -6.167  0.00  0.00    -0.007 A 
ATOM     24  C   UNL     1       2.167  -7.758  -7.614  0.00  0.00    +0.010 A 
ATOM     25  C   UNL     1       2.648  -8.914  -8.139  0.00  0.00    +0.004 A 
ATOM     26  C   UNL     1       3.209  -9.902  -7.329  0.00  0.00    -0.049 A 
ATOM     27  C   UNL     1       3.309  -9.775  -5.980  0.00  0.00    +0.027 A 
ATOM     28  C   UNL     1       2.841  -8.614  -5.336  0.00  0.00    +0.041 A 
ATOM     29  N   UNL     1       2.945  -8.500  -4.012  0.00  0.00    -0.284 N 
ATOM     30  C   UNL     1       2.524  -7.439  -3.345  0.00  0.00    +0.226 C 
ATOM     31  O   UNL     1       2.646  -7.392  -2.135  0.00  0.00    -0.275 OA
ATOM     32  C   UNL     1       3.723 -11.162  -7.976  0.00  0.00    +0.044 C 
ATOM     33  H   UNL     1       3.348  -9.229  -3.515  0.00  0.00    +0.155 HD
ENDBRANCH  20  21
ENDBRANCH   1  20
TORSDOF 6
