REMARK  Name = ZINC09243310
REMARK  10 active torsions:
REMARK  status: ('A' for Active; 'I' for Inactive)
REMARK    1  A    between atoms: C_1  and  C_2
REMARK    2  A    between atoms: C_4  and  C_35
REMARK    3  A    between atoms: C_5  and  O_34
REMARK    4  A    between atoms: C_6  and  C_8
REMARK    5  A    between atoms: N_16  and  C_28
REMARK    6  A    between atoms: C_17  and  C_19
REMARK    7  A    between atoms: C_22  and  O_27
REMARK    8  A    between atoms: C_23  and  O_25
REMARK    9  A    between atoms: O_25  and  C_26
REMARK   10  A    between atoms: C_28  and  C_29
REMARK                            x       y       z     vdW  Elec       q    Type
REMARK                         _______ _______ _______ _____ _____    ______ ____
ROOT
ATOM      1  C   UNL     1      -0.214  -2.941   2.675  0.00  0.00    +0.075 A 
ATOM      2  C   UNL     1       0.856  -3.599   3.192  0.00  0.00    +0.035 A 
ATOM      3  C   UNL     1       0.449  -4.067   4.462  0.00  0.00    +0.153 A 
ATOM      4  N   UNL     1      -0.799  -3.678   4.632  0.00  0.00    -0.168 NA
ATOM      5  N   UNL     1      -1.208  -3.016   3.609  0.00  0.00    -0.276 N 
ATOM      6  H   UNL     1      -2.092  -2.628   3.514  0.00  0.00    +0.189 HD
ATOM      7  C   UNL     1       1.584  -4.789   5.063  0.00  0.00    +0.268 C 
ATOM      8  O   UNL     1       1.568  -5.319   6.157  0.00  0.00    -0.268 OA
ATOM      9  N   UNL     1       2.640  -4.781   4.231  0.00  0.00    -0.278 N 
ATOM     10  C   UNL     1       2.280  -4.048   3.011  0.00  0.00    +0.142 C 
ENDROOT
BRANCH   1  16
ATOM     11  C   UNL     1      -2.138  -2.646  -1.919  0.00  0.00    +0.044 C 
ATOM     12  C   UNL     1      -1.210  -2.123  -0.853  0.00  0.00    -0.049 A 
ATOM     13  C   UNL     1      -0.425  -1.012  -1.108  0.00  0.00    +0.010 A 
ATOM     14  C   UNL     1       0.430  -0.524  -0.137  0.00  0.00    -0.008 A 
ATOM     15  C   UNL     1       0.505  -1.146   1.098  0.00  0.00    +0.129 A 
ATOM     16  C   UNL     1      -0.288  -2.269   1.359  0.00  0.00    +0.042 A 
ATOM     17  C   UNL     1      -1.150  -2.750   0.374  0.00  0.00    +0.017 A 
ATOM     18  C   UNL     1       1.281   0.686  -0.423  0.00  0.00    +0.047 C 
BRANCH  15  19
ATOM     19  O   UNL     1       1.345  -0.667   2.053  0.00  0.00    -0.506 OA
ATOM     20  H   UNL     1       0.945  -0.002   2.630  0.00  0.00    +0.292 HD
ENDBRANCH  15  19
ENDBRANCH   1  16
BRANCH  10  21
ATOM     21  C   UNL     1       2.388  -4.955   1.812  0.00  0.00    -0.019 A 
ATOM     22  C   UNL     1       1.815  -6.212   1.844  0.00  0.00    +0.009 A 
ATOM     23  C   UNL     1       1.911  -7.048   0.747  0.00  0.00    +0.049 A 
ATOM     24  C   UNL     1       2.583  -6.625  -0.389  0.00  0.00    +0.158 A 
ATOM     25  C   UNL     1       3.160  -5.359  -0.421  0.00  0.00    +0.162 A 
ATOM     26  C   UNL     1       3.055  -4.525   0.681  0.00  0.00    +0.055 A 
BRANCH  25  27
ATOM     27  O   UNL     1       3.821  -4.939  -1.533  0.00  0.00    -0.491 OA
ATOM     28  C   UNL     1       4.387  -3.628  -1.495  0.00  0.00    +0.277 C 
ENDBRANCH  25  27
BRANCH  24  29
ATOM     29  O   UNL     1       2.679  -7.445  -1.469  0.00  0.00    -0.503 OA
ATOM     30  H   UNL     1       1.955  -7.348  -2.102  0.00  0.00    +0.292 HD
ENDBRANCH  24  29
ENDBRANCH  10  21
BRANCH   9  31
ATOM     31  C   UNL     1       3.939  -5.402   4.499  0.00  0.00    +0.183 C 
BRANCH  31  32
ATOM     32  C   UNL     1       3.929  -6.823   3.999  0.00  0.00    +0.122 A 
ATOM     33  C   UNL     1       4.291  -7.227   2.768  0.00  0.00    +0.046 A 
ATOM     34  C   UNL     1       4.128  -8.631   2.733  0.00  0.00    +0.041 A 
ATOM     35  C   UNL     1       3.676  -9.001   3.945  0.00  0.00    +0.195 A 
ATOM     36  O   UNL     1       3.563  -7.903   4.710  0.00  0.00    -0.466 OA
ENDBRANCH  31  32
ENDBRANCH   9  31
TORSDOF 7
