REMARK  Name = ZINC10337038
REMARK  3 active torsions:
REMARK  status: ('A' for Active; 'I' for Inactive)
REMARK    1  A    between atoms: C_1  and  C_2
REMARK    2  A    between atoms: C_5  and  C_8
REMARK    3  A    between atoms: C_26  and  C_28
REMARK                            x       y       z     vdW  Elec       q    Type
REMARK                         _______ _______ _______ _____ _____    ______ ____
ROOT
ATOM      1  C   UNL     1       0.059  -4.275  -0.021  0.00  0.00    +0.234 C 
ATOM      2  C   UNL     1       1.463  -4.755   0.204  0.00  0.00    +0.027 C 
ATOM      3  C   UNL     1       1.920  -4.981   1.453  0.00  0.00    +0.083 C 
ATOM      4  C   UNL     1       0.980  -4.748   2.579  0.00  0.00    +0.044 A 
ATOM      5  C   UNL     1       1.428  -4.635   3.887  0.00  0.00    +0.033 A 
ATOM      6  C   UNL     1       0.517  -4.418   4.905  0.00  0.00    +0.042 A 
ATOM      7  C   UNL     1      -0.834  -4.312   4.619  0.00  0.00    +0.023 A 
ATOM      8  C   UNL     1      -1.288  -4.425   3.318  0.00  0.00    +0.048 A 
ATOM      9  C   UNL     1      -0.387  -4.644   2.291  0.00  0.00    +0.131 A 
ATOM     10  O   UNL     1      -0.803  -4.765   1.008  0.00  0.00    -0.479 OA
ATOM     11 CL   UNL     1       1.069  -4.276   6.545  0.00  0.00    -0.084 Cl
ATOM     12  N   UNL     1       3.188  -5.408   1.679  0.00  0.00    -0.213 NA
ATOM     13  C   UNL     1       4.063  -5.642   0.736  0.00  0.00    +0.232 C 
ATOM     14  N   UNL     1       5.355  -6.068   0.750  0.00  0.00    -0.231 N 
ATOM     15  N   UNL     1       5.800  -6.148  -0.453  0.00  0.00    -0.086 NA
ATOM     16  N   UNL     1       4.900  -5.805  -1.311  0.00  0.00    -0.165 N 
ATOM     17  N   UNL     1       3.751  -5.464  -0.599  0.00  0.00    -0.193 N 
ATOM     18  C   UNL     1       2.406  -4.999  -0.954  0.00  0.00    +0.162 C 
ATOM     19  H   UNL     1       5.004  -5.787  -2.275  0.00  0.00    +0.195 HD
ATOM     20  H   UNL     1       5.865  -6.279   1.548  0.00  0.00    +0.193 HD
ENDROOT
BRANCH   1  25
ATOM     21  C   UNL     1      -0.018   1.503   0.010  0.00  0.00    +0.044 C 
ATOM     22  C   UNL     1       0.002  -0.004   0.002  0.00  0.00    -0.050 A 
ATOM     23  C   UNL     1       0.006  -0.689  -1.199  0.00  0.00    +0.004 A 
ATOM     24  C   UNL     1       0.025  -2.071  -1.206  0.00  0.00    +0.008 A 
ATOM     25  C   UNL     1       0.040  -2.768  -0.013  0.00  0.00    -0.003 A 
ATOM     26  C   UNL     1       0.037  -2.084   1.188  0.00  0.00    +0.008 A 
ATOM     27  C   UNL     1       0.023  -0.702   1.195  0.00  0.00    +0.004 A 
ENDBRANCH   1  25
BRANCH  18  28
ATOM     28  C   UNL     1       1.779  -6.023  -1.864  0.00  0.00    -0.003 A 
ATOM     29  C   UNL     1       1.131  -5.629  -3.025  0.00  0.00    +0.009 A 
ATOM     30  C   UNL     1       0.569  -6.606  -3.831  0.00  0.00    +0.020 A 
ATOM     31  C   UNL     1       0.671  -7.932  -3.454  0.00  0.00    +0.111 A 
ATOM     32  N   UNL     1       1.294  -8.271  -2.342  0.00  0.00    -0.263 NA
ATOM     33  C   UNL     1       1.846  -7.368  -1.554  0.00  0.00    +0.116 A 
ENDBRANCH  18  28
TORSDOF 2
