REMARK  Name = ZINC63374967
REMARK  6 active torsions:
REMARK  status: ('A' for Active; 'I' for Inactive)
REMARK    1  A    between atoms: C_1  and  C_2
REMARK    2  A    between atoms: C_2  and  C_3
REMARK    3  A    between atoms: C_2  and  C_4
REMARK    4  A    between atoms: C_4  and  N_5
REMARK    5  A    between atoms: C_11  and  C_27
REMARK    6  A    between atoms: C_23  and  C_26
REMARK                            x       y       z     vdW  Elec       q    Type
REMARK                         _______ _______ _______ _____ _____    ______ ____
ROOT
ATOM      1  N   UNL     1      -1.416  -1.993  -0.116  0.00  0.00    -0.291 N 
ATOM      2  C   UNL     1      -1.453  -2.566  -1.451  0.00  0.00    +0.203 C 
ATOM      3  C   UNL     1      -1.453  -4.058  -1.424  0.00  0.00    +0.234 C 
ATOM      4  O   UNL     1      -1.485  -4.639  -2.488  0.00  0.00    -0.274 OA
ATOM      5  N   UNL     1      -1.419  -4.802  -0.313  0.00  0.00    -0.283 N 
ATOM      6  C   UNL     1      -1.463  -6.271  -0.459  0.00  0.00    +0.121 C 
ATOM      7  C   UNL     1      -0.206  -6.883   0.184  0.00  0.00    +0.065 C 
ATOM      8  C   UNL     1      -0.043  -6.224   1.530  0.00  0.00    -0.027 C 
ATOM      9  C   UNL     1       0.114  -6.730   2.746  0.00  0.00    -0.000 A 
ATOM     10  C   UNL     1       0.303  -8.112   3.216  0.00  0.00    +0.010 A 
ATOM     11  C   UNL     1       0.411  -8.279   4.560  0.00  0.00    +0.001 A 
ATOM     12  C   UNL     1       0.351  -7.223   5.474  0.00  0.00    +0.002 A 
ATOM     13  C   UNL     1       0.189  -5.920   5.131  0.00  0.00    +0.026 A 
ATOM     14  C   UNL     1       0.073  -5.617   3.743  0.00  0.00    +0.043 A 
ATOM     15  N   UNL     1      -0.063  -4.472   3.140  0.00  0.00    -0.375 N 
ATOM     16  C   UNL     1      -0.059  -4.708   1.696  0.00  0.00    +0.139 C 
ATOM     17  C   UNL     1      -1.345  -4.215   1.026  0.00  0.00    +0.135 C 
ATOM     18  C   UNL     1      -1.363  -2.722   0.997  0.00  0.00    +0.242 C 
ATOM     19  O   UNL     1      -1.330  -2.135   2.058  0.00  0.00    -0.273 OA
ATOM     20  C   UNL     1      -2.545  -4.696   1.844  0.00  0.00    +0.044 C 
ATOM     21  H   UNL     1      -0.151  -3.609   3.574  0.00  0.00    +0.160 HD
ENDROOT
BRANCH   7  22
ATOM     22  C   UNL     1       0.999  -6.608  -0.678  0.00  0.00    -0.039 A 
ATOM     23  C   UNL     1       1.377  -5.305  -0.942  0.00  0.00    +0.005 A 
ATOM     24  C   UNL     1       2.483  -5.052  -1.732  0.00  0.00    +0.015 A 
ATOM     25  C   UNL     1       3.212  -6.104  -2.257  0.00  0.00    +0.018 A 
ATOM     26  C   UNL     1       2.834  -7.408  -1.992  0.00  0.00    +0.015 A 
ATOM     27  C   UNL     1       1.731  -7.660  -1.198  0.00  0.00    +0.005 A 
ATOM     28 BR   UNL     1       4.725  -5.759  -3.338  0.00  0.00    -0.050 Br
ENDBRANCH   7  22
BRANCH   1  29
ATOM     29  C   UNL     1      -1.433  -0.534   0.013  0.00  0.00    +0.111 C 
BRANCH  29  31
ATOM     30  C   UNL     1      -0.019   1.526   0.010  0.00  0.00    +0.009 C 
ATOM     31  C   UNL     1       0.002  -0.004   0.002  0.00  0.00    +0.000 C 
ATOM     32  C   UNL     1       0.742  -0.511   1.242  0.00  0.00    +0.009 C 
ENDBRANCH  29  31
ENDBRANCH   1  29
TORSDOF 3
