REMARK  Name = ZINC35179597
REMARK  3 active torsions:
REMARK  status: ('A' for Active; 'I' for Inactive)
REMARK    1  A    between atoms: C_1  and  C_2
REMARK    2  A    between atoms: C_6  and  N_9
REMARK    3  A    between atoms: C_10  and  C_12
REMARK                            x       y       z     vdW  Elec       q    Type
REMARK                         _______ _______ _______ _____ _____    ______ ____
ROOT
ATOM      1  N   UNL     1       0.051  -2.799   2.393  0.00  0.00    -0.278 N 
ATOM      2  C   UNL     1       0.272  -4.129   2.391  0.00  0.00    +0.265 C 
ATOM      3  O   UNL     1       0.547  -4.698   1.351  0.00  0.00    -0.268 OA
ATOM      4  H   UNL     1      -0.097  -2.333   3.232  0.00  0.00    +0.155 HD
ENDROOT
BRANCH   1  10
ATOM      5  C   UNL     1       2.455  -0.202  -1.022  0.00  0.00    +0.045 C 
ATOM      6  C   UNL     1       1.187  -0.821  -0.492  0.00  0.00    -0.030 A 
ATOM      7  C   UNL     1       0.006  -0.688  -1.200  0.00  0.00    +0.006 A 
ATOM      8  C   UNL     1      -1.159  -1.254  -0.718  0.00  0.00    +0.022 A 
ATOM      9  C   UNL     1      -1.148  -1.954   0.474  0.00  0.00    +0.064 A 
ATOM     10  C   UNL     1       0.036  -2.090   1.187  0.00  0.00    +0.071 A 
ATOM     11  C   UNL     1       1.207  -1.525   0.697  0.00  0.00    +0.066 A 
ATOM     12 CL   UNL     1       2.692  -1.697   1.580  0.00  0.00    -0.081 Cl
ATOM     13 CL   UNL     1      -2.613  -2.664   1.079  0.00  0.00    -0.082 Cl
ENDBRANCH   1  10
BRANCH   2  14
ATOM     14  C   UNL     1       0.179  -4.889   3.642  0.00  0.00    +0.103 A 
ATOM     15  C   UNL     1       0.384  -6.245   3.788  0.00  0.00    +0.047 A 
ATOM     16  C   UNL     1       0.196  -6.546   5.141  0.00  0.00    +0.036 A 
ATOM     17  C   UNL     1      -0.114  -5.394   5.783  0.00  0.00    +0.098 A 
ATOM     18  N   UNL     1      -0.122  -4.379   4.884  0.00  0.00    -0.356 N 
ATOM     19  H   UNL     1      -0.311  -3.449   5.082  0.00  0.00    +0.165 HD
ATOM     20 BR   UNL     1       0.346  -8.257   5.932  0.00  0.00    -0.049 Br
ENDBRANCH   2  14
TORSDOF 2
