REMARK  Name = ZINC10108676
REMARK  10 active torsions:
REMARK  status: ('A' for Active; 'I' for Inactive)
REMARK    1  A    between atoms: C_1  and  C_2
REMARK    2  A    between atoms: N_9  and  C_10
REMARK    3  A    between atoms: C_15  and  O_16
REMARK    4  A    between atoms: O_16  and  C_17
REMARK    5  A    between atoms: N_19  and  C_35
REMARK    6  A    between atoms: N_22  and  C_25
REMARK    7  A    between atoms: C_25  and  C_26
REMARK    8  A    between atoms: C_26  and  C_28
REMARK    9  A    between atoms: C_26  and  C_29
REMARK   10  A    between atoms: C_29  and  N_66
REMARK                            x       y       z     vdW  Elec       q    Type
REMARK                         _______ _______ _______ _____ _____    ______ ____
ROOT
ATOM      1  C   UNL     1      12.751  -2.811  -0.146  0.00  0.00    +0.065 C 
ATOM      2  C   UNL     1      11.815  -1.900   0.606  0.00  0.00    +0.041 A 
ATOM      3  C   UNL     1      10.531  -2.137   0.859  0.00  0.00    +0.116 A 
ATOM      4  N   UNL     1      10.021  -1.065   1.570  0.00  0.00    -0.277 N 
ATOM      5  C   UNL     1       8.888  -0.543   2.176  0.00  0.00    +0.157 A 
ATOM      6  C   UNL     1       9.263   0.689   2.710  0.00  0.00    +0.170 A 
ATOM      7  N   UNL     1      10.550   0.873   2.428  0.00  0.00    -0.193 NA
ATOM      8  C   UNL     1      11.016  -0.165   1.748  0.00  0.00    +0.223 A 
ATOM      9  N   UNL     1      12.142  -0.672   1.152  0.00  0.00    -0.279 N 
ATOM     10  N   UNL     1       8.312   1.442   3.383  0.00  0.00    -0.279 N 
ATOM     11  C   UNL     1       7.054   0.978   3.511  0.00  0.00    +0.333 A 
ATOM     12  O   UNL     1       6.232   1.650   4.104  0.00  0.00    -0.246 OA
ATOM     13  N   UNL     1       6.684  -0.208   3.000  0.00  0.00    -0.259 N 
ATOM     14  C   UNL     1       7.566  -0.987   2.339  0.00  0.00    +0.283 A 
ATOM     15  O   UNL     1       7.217  -2.062   1.885  0.00  0.00    -0.265 OA
ATOM     16  C   UNL     1       8.675   2.740   3.956  0.00  0.00    +0.155 C 
ENDROOT
BRANCH   9  17
ATOM     17  C   UNL     1      13.400  -0.056   1.105  0.00  0.00    +0.093 A 
ATOM     18  C   UNL     1      13.723   0.787   0.052  0.00  0.00    +0.050 A 
ATOM     19  C   UNL     1      14.965   1.394   0.008  0.00  0.00    +0.043 A 
ATOM     20  C   UNL     1      15.888   1.161   1.012  0.00  0.00    +0.024 A 
ATOM     21  C   UNL     1      15.573   0.322   2.064  0.00  0.00    +0.049 A 
ATOM     22  C   UNL     1      14.328  -0.285   2.118  0.00  0.00    +0.144 A 
ATOM     23 CL   UNL     1      15.367   2.449  -1.311  0.00  0.00    -0.083 Cl
BRANCH  22  24
ATOM     24  O   UNL     1      14.015  -1.107   3.156  0.00  0.00    -0.493 OA
ATOM     25  C   UNL     1      15.016  -1.295   4.159  0.00  0.00    +0.277 C 
ENDBRANCH  22  24
ENDBRANCH   9  17
BRANCH  13  26
ATOM     26  C   UNL     1       5.303  -0.666   3.167  0.00  0.00    +0.131 C 
BRANCH  26  27
ATOM     27  C   UNL     1       4.457  -0.179   1.989  0.00  0.00    -0.011 C 
ATOM     28  C   UNL     1       4.949  -0.841   0.700  0.00  0.00    +0.007 C 
BRANCH  27  29
ATOM     29  C   UNL     1       2.991  -0.550   2.226  0.00  0.00    -0.074 C 
BRANCH  29  35
ATOM     30  C   UNL     1       0.793  -0.505   1.212  0.00  0.00    -0.079 C 
ATOM     31  C   UNL     1       0.002  -0.004   0.002  0.00  0.00    -0.019 C 
ATOM     32  C   UNL     1      -0.019   1.527   0.010  0.00  0.00    -0.004 C 
ATOM     33  C   UNL     1       1.421   2.049  -0.001  0.00  0.00    -0.019 C 
ATOM     34  C   UNL     1       2.171   1.488   1.210  0.00  0.00    -0.079 C 
ATOM     35  N   UNL     1       2.176   0.012   1.129  0.00  0.00    +0.380 N 
ATOM     36  H   UNL     1       2.584  -0.271   0.231  0.00  0.00    -0.082 HD
ENDBRANCH  29  35
ENDBRANCH  27  29
ENDBRANCH  26  27
ENDBRANCH  13  26
TORSDOF 6
