REMARK  Name = ZINC34756421
REMARK  7 active torsions:
REMARK  status: ('A' for Active; 'I' for Inactive)
REMARK    1  A    between atoms: C_1  and  C_2
REMARK    2  A    between atoms: C_5  and  C_37
REMARK    3  A    between atoms: C_6  and  C_8
REMARK    4  A    between atoms: C_8  and  S_9
REMARK    5  A    between atoms: S_9  and  C_10
REMARK    6  A    between atoms: N_26  and  C_29
REMARK    7  A    between atoms: C_29  and  C_30
REMARK                            x       y       z     vdW  Elec       q    Type
REMARK                         _______ _______ _______ _____ _____    ______ ____
ROOT
ATOM      1  C   UNL     1       1.621  -4.003   4.524  0.00  0.00    +0.191 A 
ATOM      2  N   UNL     1       2.720  -4.368   5.176  0.00  0.00    -0.206 NA
ATOM      3  C   UNL     1       2.671  -5.046   6.310  0.00  0.00    +0.134 A 
ATOM      4  C   UNL     1       1.405  -5.401   6.854  0.00  0.00    +0.051 A 
ATOM      5  C   UNL     1       1.112  -6.144   8.082  0.00  0.00    -0.025 A 
ATOM      6  C   UNL     1      -0.186  -6.350   8.378  0.00  0.00    -0.004 A 
ATOM      7  S   UNL     1      -1.089  -5.579   7.061  0.00  0.00    -0.073 S 
ATOM      8  C   UNL     1       0.284  -4.981   6.110  0.00  0.00    +0.115 A 
ATOM      9  N   UNL     1       0.415  -4.301   4.987  0.00  0.00    -0.215 NA
ATOM     10  C   UNL     1      -0.743  -7.075   9.565  0.00  0.00    +0.043 C 
ATOM     11  C   UNL     1       0.390  -7.880  10.217  0.00  0.00    +0.005 C 
ATOM     12  C   UNL     1       1.612  -6.970  10.372  0.00  0.00    +0.005 C 
ATOM     13  C   UNL     1       2.213  -6.669   8.999  0.00  0.00    +0.037 C 
ATOM     14  N   UNL     1       3.837  -5.408   6.959  0.00  0.00    -0.318 N 
ATOM     15  C   UNL     1       4.514  -4.475   7.873  0.00  0.00    +0.088 C 
ATOM     16  C   UNL     1       5.994  -4.399   7.482  0.00  0.00    -0.059 C 
ATOM     17  N   UNL     1       6.564  -5.752   7.464  0.00  0.00    +0.387 N 
ATOM     18  C   UNL     1       5.919  -6.553   6.416  0.00  0.00    -0.059 C 
ATOM     19  C   UNL     1       4.433  -6.738   6.759  0.00  0.00    +0.088 C 
ATOM     20  H   UNL     1       6.415  -6.190   8.361  0.00  0.00    -0.081 HD
ENDROOT
BRANCH   1  21
ATOM     21  S   UNL     1       1.770  -3.100   3.018  0.00  0.00    -0.081 S 
BRANCH  21  22
ATOM     22  C   UNL     1       0.053  -2.821   2.502  0.00  0.00    +0.112 C 
BRANCH  22  28
ATOM     23  C   UNL     1      -0.035   1.550   0.067  0.00  0.00    +0.044 C 
ATOM     24  C   UNL     1      -0.006   0.043   0.043  0.00  0.00    -0.050 A 
ATOM     25  C   UNL     1       0.005  -0.630  -1.164  0.00  0.00    +0.003 A 
ATOM     26  C   UNL     1       0.031  -2.012  -1.185  0.00  0.00    +0.004 A 
ATOM     27  C   UNL     1       0.047  -2.721   0.001  0.00  0.00    -0.046 A 
ATOM     28  C   UNL     1       0.037  -2.048   1.209  0.00  0.00    -0.034 A 
ATOM     29  C   UNL     1       0.015  -0.666   1.230  0.00  0.00    +0.008 A 
ATOM     30  C   UNL     1       0.074  -4.228  -0.022  0.00  0.00    +0.044 C 
ENDBRANCH  22  28
ENDBRANCH  21  22
ENDBRANCH   1  21
BRANCH  17  31
ATOM     31  C   UNL     1       8.007  -5.670   7.197  0.00  0.00    +0.019 C 
BRANCH  31  32
ATOM     32  C   UNL     1       8.616  -7.044   7.300  0.00  0.00    +0.199 C 
ATOM     33  O   UNL     1       7.917  -7.998   7.569  0.00  0.00    -0.278 OA
ATOM     34  N   UNL     1       9.937  -7.213   7.092  0.00  0.00    -0.303 N 
ATOM     35  C   UNL     1      10.896  -6.147   6.767  0.00  0.00    +0.108 C 
ATOM     36  C   UNL     1      12.278  -6.812   6.595  0.00  0.00    +0.020 C 
ATOM     37  C   UNL     1      11.917  -8.287   6.276  0.00  0.00    +0.020 C 
ATOM     38  C   UNL     1      10.660  -8.496   7.161  0.00  0.00    +0.108 C 
ENDBRANCH  31  32
ENDBRANCH  17  31
TORSDOF 5
