REMARK  Name = ZINC63105044
REMARK  3 active torsions:
REMARK  status: ('A' for Active; 'I' for Inactive)
REMARK    1  A    between atoms: C_6  and  N_7
REMARK    2  A    between atoms: C_9  and  O_11
REMARK    3  A    between atoms: O_11  and  C_12
REMARK                            x       y       z     vdW  Elec       q    Type
REMARK                         _______ _______ _______ _____ _____    ______ ____
ROOT
ATOM      1  C   UNL     1       0.016   1.332  -0.640  0.00  0.00    +0.025 A 
ATOM      2  C   UNL     1       1.176   2.061  -0.648  0.00  0.00    +0.031 A 
ATOM      3  C   UNL     1       2.421   1.445  -0.389  0.00  0.00    +0.082 A 
ATOM      4  C   UNL     1       2.391   0.057  -0.126  0.00  0.00    +0.044 A 
ATOM      5  C   UNL     1       1.228  -0.671  -0.117  0.00  0.00    +0.040 A 
ATOM      6  C   UNL     1       0.020  -0.036  -0.376  0.00  0.00    +0.026 A 
ATOM      7  S   UNL     1       4.108  -0.315   0.140  0.00  0.00    -0.029 S 
ATOM      8  C   UNL     1       4.737   1.339  -0.107  0.00  0.00    +0.263 A 
ATOM      9  N   UNL     1       3.646   2.019  -0.361  0.00  0.00    -0.206 NA
ENDROOT
BRANCH   6  10
ATOM     10  N   UNL     1      -1.177  -0.760  -0.372  0.00  0.00    -0.358 N 
ATOM     11  H   UNL     1      -2.017  -0.310  -0.553  0.00  0.00    +0.142 HD
ATOM     12  H   UNL     1      -1.167  -1.713  -0.188  0.00  0.00    +0.142 HD
ENDBRANCH   6  10
BRANCH   8  13
ATOM     13  O   UNL     1       6.016   1.778  -0.047  0.00  0.00    -0.433 OA
BRANCH  13  14
ATOM     14  C   UNL     1       6.237   3.115  -0.146  0.00  0.00    +0.132 A 
ATOM     15  C   UNL     1       7.532   3.598  -0.271  0.00  0.00    +0.048 A 
ATOM     16  C   UNL     1       7.755   4.958  -0.372  0.00  0.00    +0.025 A 
ATOM     17  C   UNL     1       6.689   5.839  -0.348  0.00  0.00    +0.059 A 
ATOM     18  C   UNL     1       5.395   5.359  -0.224  0.00  0.00    +0.063 A 
ATOM     19  C   UNL     1       5.168   3.999  -0.129  0.00  0.00    +0.067 A 
ATOM     20 CL   UNL     1       4.059   6.467  -0.194  0.00  0.00    -0.082 Cl
ATOM     21 CL   UNL     1       6.972   7.547  -0.474  0.00  0.00    -0.082 Cl
ENDBRANCH  13  14
ENDBRANCH   8  13
TORSDOF 3
