REMARK  Name = ZINC49150575
REMARK  7 active torsions:
REMARK  status: ('A' for Active; 'I' for Inactive)
REMARK    1  A    between atoms: C_1  and  C_2
REMARK    2  A    between atoms: C_2  and  C_4
REMARK    3  A    between atoms: C_2  and  N_10
REMARK    4  A    between atoms: C_4  and  N_5
REMARK    5  A    between atoms: N_10  and  S_11
REMARK    6  A    between atoms: S_11  and  C_14
REMARK    7  A    between atoms: C_17  and  N_21
REMARK                            x       y       z     vdW  Elec       q    Type
REMARK                         _______ _______ _______ _____ _____    ______ ____
ROOT
ATOM      1  S   UNL     1      -0.188  -0.875  -2.551  0.00  0.00    +0.061 S 
ATOM      2  O   UNL     1       0.751  -1.265  -3.545  0.00  0.00    -0.153 OA
ATOM      3  O   UNL     1      -1.236  -1.730  -2.117  0.00  0.00    -0.153 OA
ENDROOT
BRANCH   1   4
ATOM      4  C   UNL     1      -0.951   0.603  -3.133  0.00  0.00    +0.133 A 
ATOM      5  C   UNL     1      -2.204   0.962  -2.669  0.00  0.00    +0.047 A 
ATOM      6  C   UNL     1      -2.805   2.120  -3.123  0.00  0.00    +0.040 A 
ATOM      7  C   UNL     1      -2.150   2.925  -4.046  0.00  0.00    +0.027 A 
ATOM      8  C   UNL     1      -0.891   2.563  -4.510  0.00  0.00    +0.040 A 
ATOM      9  C   UNL     1      -0.293   1.406  -4.048  0.00  0.00    +0.047 A 
ATOM     10 BR   UNL     1       1.423   0.916  -4.673  0.00  0.00    -0.048 Br
ATOM     11 BR   UNL     1      -3.095  -0.135  -1.413  0.00  0.00    -0.048 Br
BRANCH   7  12
ATOM     12  N   UNL     1      -2.755   4.096  -4.508  0.00  0.00    -0.358 N 
ATOM     13  H   UNL     1      -3.634   4.348  -4.184  0.00  0.00    +0.142 HD
ATOM     14  H   UNL     1      -2.296   4.658  -5.152  0.00  0.00    +0.142 HD
ENDBRANCH   7  12
ENDBRANCH   1   4
BRANCH   1  15
ATOM     15  N   UNL     1       0.688  -0.476  -1.203  0.00  0.00    -0.189 NA
ATOM     16  H   UNL     1       1.655  -0.556  -1.212  0.00  0.00    +0.148 HD
BRANCH  15  18
ATOM     17  C   UNL     1      -0.019   1.526   0.010  0.00  0.00    +0.024 C 
ATOM     18  C   UNL     1       0.002  -0.004   0.002  0.00  0.00    +0.057 C 
BRANCH  18  19
ATOM     19  C   UNL     1       0.742  -0.511   1.242  0.00  0.00    -0.059 C 
BRANCH  19  20
ATOM     20  N   UNL     1       0.867  -1.973   1.174  0.00  0.00    +0.381 N 
ATOM     21  C   UNL     1       1.796  -2.358   0.081  0.00  0.00    -0.079 C 
ATOM     22  C   UNL     1       2.251  -3.782   0.487  0.00  0.00    -0.020 C 
ATOM     23  C   UNL     1       2.366  -3.683   2.025  0.00  0.00    -0.020 C 
ATOM     24  C   UNL     1       1.473  -2.492   2.419  0.00  0.00    -0.079 C 
ATOM     25  H   UNL     1      -0.038  -2.393   1.026  0.00  0.00    -0.082 HD
ENDBRANCH  19  20
ENDBRANCH  18  19
ENDBRANCH  15  18
ENDBRANCH   1  15
TORSDOF 6
