REMARK  Name = ZINC09514918
REMARK  5 active torsions:
REMARK  status: ('A' for Active; 'I' for Inactive)
REMARK    1  A    between atoms: C_1  and  C_2
REMARK    2  A    between atoms: C_11  and  N_21
REMARK    3  A    between atoms: C_13  and  C_15
REMARK    4  A    between atoms: N_24  and  C_27
REMARK    5  A    between atoms: C_28  and  C_32
REMARK                            x       y       z     vdW  Elec       q    Type
REMARK                         _______ _______ _______ _____ _____    ______ ____
ROOT
ATOM      1  C   UNL     1       7.803  -1.854   0.903  0.00  0.00    +0.008 C 
ATOM      2  C   UNL     1       6.403  -1.431   0.451  0.00  0.00    -0.009 C 
ATOM      3  C   UNL     1       5.352  -2.280   1.173  0.00  0.00    +0.008 C 
ATOM      4  C   UNL     1       3.976  -2.040   0.551  0.00  0.00    +0.037 C 
ATOM      5  C   UNL     1       3.703  -0.539   0.522  0.00  0.00    -0.025 A 
ATOM      6  C   UNL     1       4.713   0.347   0.639  0.00  0.00    -0.004 A 
ATOM      7  S   UNL     1       3.942   1.942   0.556  0.00  0.00    -0.073 S 
ATOM      8  C   UNL     1       2.259   1.415   0.364  0.00  0.00    +0.114 A 
ATOM      9  C   UNL     1       2.354   0.007   0.370  0.00  0.00    +0.051 A 
ATOM     10  C   UNL     1       1.122  -0.692   0.229  0.00  0.00    +0.134 A 
ATOM     11  N   UNL     1       0.000  -0.005   0.104  0.00  0.00    -0.212 NA
ATOM     12  C   UNL     1      -0.018   1.324   0.107  0.00  0.00    +0.164 A 
ATOM     13  N   UNL     1       1.101   2.028   0.235  0.00  0.00    -0.220 NA
ATOM     14  C   UNL     1       6.171   0.045   0.803  0.00  0.00    +0.046 C 
ENDROOT
BRANCH  12  15
ATOM     15  C   UNL     1      -1.310   2.035  -0.042  0.00  0.00    +0.037 A 
ATOM     16  C   UNL     1      -1.357   3.432  -0.043  0.00  0.00    +0.014 A 
ATOM     17  C   UNL     1      -2.589   4.047  -0.186  0.00  0.00    +0.020 A 
ATOM     18  C   UNL     1      -3.723   3.267  -0.323  0.00  0.00    +0.111 A 
ATOM     19  N   UNL     1      -3.647   1.950  -0.319  0.00  0.00    -0.263 NA
ATOM     20  C   UNL     1      -2.498   1.320  -0.190  0.00  0.00    +0.122 A 
ENDBRANCH  12  15
BRANCH  10  21
ATOM     21  N   UNL     1       1.099  -2.075   0.222  0.00  0.00    -0.312 N 
ATOM     22  C   UNL     1       0.617  -2.587  -1.068  0.00  0.00    +0.125 C 
ATOM     23  C   UNL     1       0.682  -4.117  -1.063  0.00  0.00    +0.125 C 
ATOM     24  N   UNL     1      -0.133  -4.636   0.044  0.00  0.00    -0.313 N 
ATOM     25  C   UNL     1       0.350  -4.123   1.334  0.00  0.00    +0.125 C 
ATOM     26  C   UNL     1       0.285  -2.594   1.329  0.00  0.00    +0.125 C 
BRANCH  24  27
ATOM     27  C   UNL     1      -0.155  -6.019   0.037  0.00  0.00    +0.117 A 
ATOM     28  C   UNL     1      -1.186  -6.699  -0.635  0.00  0.00    +0.090 A 
ATOM     29  C   UNL     1      -1.187  -8.098  -0.628  0.00  0.00    +0.023 A 
ATOM     30  C   UNL     1      -0.169  -8.753   0.043  0.00  0.00    +0.019 A 
ATOM     31  C   UNL     1       0.811  -8.015   0.681  0.00  0.00    +0.084 A 
ATOM     32  N   UNL     1       0.856  -6.656   0.697  0.00  0.00    -0.349 N 
ATOM     33  H   UNL     1       1.604  -6.141   1.175  0.00  0.00    +0.167 HD
BRANCH  28  34
ATOM     34  C   UNL     1      -2.216  -5.972  -1.314  0.00  0.00    +0.103 C 
ATOM     35  N   UNL     1      -3.034  -5.395  -1.852  0.00  0.00    -0.191 NA
ENDBRANCH  28  34
ENDBRANCH  24  27
ENDBRANCH  10  21
TORSDOF 4
