REMARK  Name = ZINC63987699
REMARK  4 active torsions:
REMARK  status: ('A' for Active; 'I' for Inactive)
REMARK    1  A    between atoms: C_7  and  C_10
REMARK    2  A    between atoms: N_16  and  C_19
REMARK    3  A    between atoms: C_19  and  C_20
REMARK    4  A    between atoms: C_24  and  C_26
REMARK                            x       y       z     vdW  Elec       q    Type
REMARK                         _______ _______ _______ _____ _____    ______ ____
ROOT
ATOM      1  C   UNL     1      -0.076  -3.847  -0.601  0.00  0.00    +0.245 C 
ATOM      2  O   UNL     1       0.471  -2.794  -0.871  0.00  0.00    -0.270 OA
ATOM      3  N   UNL     1       0.664  -4.932  -0.298  0.00  0.00    -0.300 N 
ATOM      4  C   UNL     1       2.127  -4.781  -0.162  0.00  0.00    +0.106 C 
ATOM      5  C   UNL     1       2.658  -5.586   1.038  0.00  0.00    +0.000 C 
ATOM      6  C   UNL     1       1.690  -5.466   2.193  0.00  0.00    -0.077 C 
ATOM      7  N   UNL     1       0.756  -6.589   2.159  0.00  0.00    +0.384 N 
ATOM      8  C   UNL     1      -0.397  -6.382   1.370  0.00  0.00    -0.059 C 
ATOM      9  C   UNL     1      -0.004  -6.203  -0.110  0.00  0.00    +0.089 C 
ATOM     10  H   UNL     1       1.244  -7.398   1.804  0.00  0.00    -0.082 HD
ENDROOT
BRANCH   1  17
ATOM     11  C   UNL     1      -3.354  -0.699  -1.027  0.00  0.00    +0.001 A 
ATOM     12  C   UNL     1      -4.667  -1.193  -0.981  0.00  0.00    +0.002 A 
ATOM     13  C   UNL     1      -4.932  -2.508  -0.821  0.00  0.00    +0.026 A 
ATOM     14  C   UNL     1      -3.811  -3.453  -0.692  0.00  0.00    +0.043 A 
ATOM     15  N   UNL     1      -3.777  -4.746  -0.531  0.00  0.00    -0.380 N 
ATOM     16  C   UNL     1      -2.380  -5.186  -0.461  0.00  0.00    +0.154 C 
ATOM     17  C   UNL     1      -1.540  -3.937  -0.607  0.00  0.00    +0.042 C 
ATOM     18  C   UNL     1      -2.436  -2.899  -0.745  0.00  0.00    +0.008 A 
ATOM     19  C   UNL     1      -2.273  -1.501  -0.916  0.00  0.00    +0.010 A 
ATOM     20  H   UNL     1      -4.552  -5.325  -0.467  0.00  0.00    +0.160 HD
ENDBRANCH   1  17
BRANCH   7  21
ATOM     21  C   UNL     1       0.330  -6.880   3.535  0.00  0.00    -0.011 C 
BRANCH  21  22
ATOM     22  C   UNL     1       1.439  -7.644   4.261  0.00  0.00    +0.260 C 
ATOM     23  N   UNL     1       1.802  -8.861   3.515  0.00  0.00    -0.230 N 
ATOM     24  N   UNL     1       3.154  -8.698   3.176  0.00  0.00    -0.150 NA
ATOM     25  C   UNL     1       3.595  -7.579   3.619  0.00  0.00    +0.210 C 
ATOM     26  O   UNL     1       2.649  -6.872   4.285  0.00  0.00    -0.457 OA
ATOM     27  H   UNL     1       1.229  -9.615   3.303  0.00  0.00    +0.172 HD
BRANCH  25  28
ATOM     28  C   UNL     1       5.011  -7.102   3.424  0.00  0.00    +0.076 C 
ATOM     29  C   UNL     1       5.634  -7.286   2.039  0.00  0.00    +0.013 C 
ATOM     30  C   UNL     1       6.090  -8.165   3.205  0.00  0.00    +0.013 C 
ENDBRANCH  25  28
ENDBRANCH  21  22
ENDBRANCH   7  21
TORSDOF 4
