REMARK  Name = ZINC09692302
REMARK  12 active torsions:
REMARK  status: ('A' for Active; 'I' for Inactive)
REMARK    1  A    between atoms: C_1  and  C_2
REMARK    2  A    between atoms: C_5  and  C_37
REMARK    3  A    between atoms: C_6  and  C_8
REMARK    4  A    between atoms: C_8  and  N_9
REMARK    5  A    between atoms: C_10  and  C_22
REMARK    6  A    between atoms: N_16  and  C_21
REMARK    7  A    between atoms: N_19  and  C_20
REMARK    8  A    between atoms: C_22  and  N_71
REMARK    9  A    between atoms: C_23  and  C_24
REMARK   10  A    between atoms: C_23  and  N_71
REMARK   11  A    between atoms: C_30  and  C_31
REMARK   12  A    between atoms: C_30  and  N_71
REMARK                            x       y       z     vdW  Elec       q    Type
REMARK                         _______ _______ _______ _____ _____    ______ ____
ROOT
ATOM      1  N   UNL     1      -1.735   1.288   1.580  0.00  0.00    -0.319 N 
ATOM      2  C   UNL     1      -1.985   2.598   1.387  0.00  0.00    +0.096 A 
ATOM      3  N   UNL     1      -0.891   3.290   1.583  0.00  0.00    -0.216 NA
ATOM      4  C   UNL     1       0.114   2.468   1.895  0.00  0.00    +0.168 A 
ATOM      5  C   UNL     1      -0.398   1.176   1.903  0.00  0.00    +0.152 A 
ATOM      6  C   UNL     1       0.460   0.099   2.214  0.00  0.00    +0.282 A 
ATOM      7  O   UNL     1       0.034  -1.042   2.232  0.00  0.00    -0.265 OA
ATOM      8  N   UNL     1       1.758   0.347   2.485  0.00  0.00    -0.262 N 
ATOM      9  C   UNL     1       2.241   1.601   2.468  0.00  0.00    +0.333 A 
ATOM     10  O   UNL     1       3.417   1.787   2.717  0.00  0.00    -0.246 OA
ATOM     11  N   UNL     1       1.456   2.657   2.182  0.00  0.00    -0.280 N 
ATOM     12  C   UNL     1       2.022   4.008   2.173  0.00  0.00    +0.155 C 
ATOM     13  C   UNL     1       2.655  -0.768   2.802  0.00  0.00    +0.157 C 
ENDROOT
BRANCH   1  14
ATOM     14  C   UNL     1      -2.700   0.191   1.468  0.00  0.00    +0.159 C 
BRANCH  14  20
ATOM     15  C   UNL     1      -2.406  -1.067   6.303  0.00  0.00    +0.044 C 
ATOM     16  C   UNL     1      -3.225  -0.633   5.115  0.00  0.00    -0.050 A 
ATOM     17  C   UNL     1      -4.587  -0.437   5.248  0.00  0.00    +0.003 A 
ATOM     18  C   UNL     1      -5.338  -0.038   4.159  0.00  0.00    +0.004 A 
ATOM     19  C   UNL     1      -4.726   0.170   2.937  0.00  0.00    -0.046 A 
ATOM     20  C   UNL     1      -3.366  -0.030   2.802  0.00  0.00    -0.025 A 
ATOM     21  C   UNL     1      -2.614  -0.429   3.891  0.00  0.00    +0.009 A 
ATOM     22  C   UNL     1      -5.544   0.611   1.750  0.00  0.00    +0.044 C 
ENDBRANCH  14  20
ENDBRANCH   1  14
BRANCH   2  23
ATOM     23  C   UNL     1      -3.325   3.180   1.016  0.00  0.00    -0.002 C 
BRANCH  23  24
ATOM     24  N   UNL     1      -4.067   3.498   2.254  0.00  0.00    +0.390 N 
ATOM     25  H   UNL     1      -4.087   2.665   2.854  0.00  0.00    -0.080 HD
BRANCH  24  26
ATOM     26  C   UNL     1      -3.394   4.596   2.979  0.00  0.00    -0.042 C 
BRANCH  26  27
ATOM     27  C   UNL     1      -3.723   4.477   4.444  0.00  0.00    -0.064 A 
ATOM     28  C   UNL     1      -4.873   5.057   4.944  0.00  0.00    +0.002 A 
ATOM     29  C   UNL     1      -5.178   4.943   6.288  0.00  0.00    +0.000 A 
ATOM     30  C   UNL     1      -4.326   4.258   7.134  0.00  0.00    +0.000 A 
ATOM     31  C   UNL     1      -3.172   3.683   6.635  0.00  0.00    +0.000 A 
ATOM     32  C   UNL     1      -2.870   3.792   5.290  0.00  0.00    +0.002 A 
ENDBRANCH  26  27
ENDBRANCH  24  26
BRANCH  24  33
ATOM     33  C   UNL     1      -5.455   3.886   1.925  0.00  0.00    -0.042 C 
BRANCH  33  34
ATOM     34  C   UNL     1      -5.467   4.955   0.863  0.00  0.00    -0.064 A 
ATOM     35  C   UNL     1      -5.351   6.286   1.220  0.00  0.00    +0.002 A 
ATOM     36  C   UNL     1      -5.357   7.266   0.246  0.00  0.00    +0.000 A 
ATOM     37  C   UNL     1      -5.489   6.917  -1.085  0.00  0.00    +0.000 A 
ATOM     38  C   UNL     1      -5.610   5.587  -1.442  0.00  0.00    +0.000 A 
ATOM     39  C   UNL     1      -5.599   4.606  -0.468  0.00  0.00    +0.002 A 
ENDBRANCH  33  34
ENDBRANCH  24  33
ENDBRANCH  23  24
ENDBRANCH   2  23
TORSDOF 8
