REMARK  Name = ZINC22876211
REMARK  17 active torsions:
REMARK  status: ('A' for Active; 'I' for Inactive)
REMARK    1  A    between atoms: C_1  and  C_2
REMARK    2  A    between atoms: C_6  and  O_8
REMARK    3  A    between atoms: O_8  and  C_9
REMARK    4  A    between atoms: C_9  and  C_10
REMARK    5  A    between atoms: C_10  and  C_12
REMARK    6  A    between atoms: C_10  and  O_30
REMARK    7  A    between atoms: C_12  and  N_13
REMARK    8  A    between atoms: N_13  and  C_14
REMARK    9  A    between atoms: C_14  and  C_15
REMARK   10  A    between atoms: C_15  and  N_16
REMARK   11  A    between atoms: N_16  and  C_17
REMARK   12  A    between atoms: C_17  and  C_18
REMARK   13  A    between atoms: C_18  and  C_20
REMARK   14  A    between atoms: C_18  and  O_29
REMARK   15  A    between atoms: C_20  and  O_21
REMARK   16  A    between atoms: O_21  and  C_22
REMARK   17  A    between atoms: C_26  and  C_28
REMARK                            x       y       z     vdW  Elec       q    Type
REMARK                         _______ _______ _______ _____ _____    ______ ____
ROOT
ATOM      1  C   UNL     1       0.385  -8.347   4.862  0.00  0.00    -0.102 C 
ENDROOT
BRANCH   1   2
ATOM      2  N   UNL     1       0.245  -6.887   4.948  0.00  0.00    +0.380 N 
ATOM      3  H   UNL     1       1.021  -6.505   5.466  0.00  0.00    -0.086 HD
ATOM      4  H   UNL     1      -0.618  -6.659   5.418  0.00  0.00    -0.086 HD
BRANCH   2   5
ATOM      5  C   UNL     1       0.231  -6.317   3.595  0.00  0.00    -0.048 C 
BRANCH   5   6
ATOM      6  C   UNL     1       0.085  -4.796   3.684  0.00  0.00    +0.135 C 
BRANCH   6   7
ATOM      7  O   UNL     1      -1.138  -4.473   4.349  0.00  0.00    -0.390 OA
ATOM      8  H   UNL     1      -1.928  -4.810   3.906  0.00  0.00    +0.210 HD
ENDBRANCH   6   7
BRANCH   6   9
ATOM      9  C   UNL     1       0.070  -4.202   2.274  0.00  0.00    +0.258 C 
BRANCH   9  10
ATOM     10  O   UNL     1       0.051  -2.775   2.359  0.00  0.00    -0.489 OA
BRANCH  10  16
ATOM     11  C   UNL     1      -0.018   1.503   0.010  0.00  0.00    +0.044 C 
ATOM     12  C   UNL     1       0.002  -0.004   0.002  0.00  0.00    -0.047 A 
ATOM     13  C   UNL     1       0.006  -0.688  -1.200  0.00  0.00    +0.003 A 
ATOM     14  C   UNL     1       0.025  -2.071  -1.210  0.00  0.00    +0.004 A 
ATOM     15  C   UNL     1       0.040  -2.772  -0.020  0.00  0.00    +0.045 A 
ATOM     16  C   UNL     1       0.036  -2.088   1.187  0.00  0.00    +0.121 A 
ATOM     17  C   UNL     1       0.023  -0.701   1.195  0.00  0.00    +0.049 A 
ENDBRANCH  10  16
ENDBRANCH   9  10
ENDBRANCH   6   9
ENDBRANCH   5   6
ENDBRANCH   2   5
ENDBRANCH   1   2
BRANCH   1  18
ATOM     18  C   UNL     1       0.400  -8.942   6.272  0.00  0.00    -0.102 C 
BRANCH  18  19
ATOM     19  N   UNL     1       0.540 -10.402   6.186  0.00  0.00    +0.380 N 
ATOM     20  H   UNL     1      -0.237 -10.784   5.668  0.00  0.00    -0.086 HD
ATOM     21  H   UNL     1       1.403 -10.630   5.716  0.00  0.00    -0.086 HD
BRANCH  19  22
ATOM     22  C   UNL     1       0.554 -10.972   7.540  0.00  0.00    -0.048 C 
BRANCH  22  23
ATOM     23  C   UNL     1       0.700 -12.493   7.451  0.00  0.00    +0.135 C 
BRANCH  23  24
ATOM     24  O   UNL     1      -0.400 -13.034   6.717  0.00  0.00    -0.390 OA
ATOM     25  H   UNL     1      -1.264 -12.854   7.112  0.00  0.00    +0.210 HD
ENDBRANCH  23  24
BRANCH  23  26
ATOM     26  C   UNL     1       0.715 -13.087   8.861  0.00  0.00    +0.258 C 
BRANCH  26  27
ATOM     27  O   UNL     1       0.967 -14.492   8.783  0.00  0.00    -0.489 OA
BRANCH  27  28
ATOM     28  C   UNL     1       1.013 -15.176   9.956  0.00  0.00    +0.121 A 
ATOM     29  C   UNL     1       0.813 -14.511  11.157  0.00  0.00    +0.045 A 
ATOM     30  C   UNL     1       0.860 -15.209  12.348  0.00  0.00    +0.004 A 
ATOM     31  C   UNL     1       1.106 -16.570  12.344  0.00  0.00    +0.003 A 
ATOM     32  C   UNL     1       1.306 -17.235  11.148  0.00  0.00    -0.047 A 
ATOM     33  C   UNL     1       1.254 -16.542   9.954  0.00  0.00    +0.049 A 
ATOM     34  C   UNL     1       1.574 -18.718  11.147  0.00  0.00    +0.044 C 
ENDBRANCH  27  28
ENDBRANCH  26  27
ENDBRANCH  23  26
ENDBRANCH  22  23
ENDBRANCH  19  22
ENDBRANCH  18  19
ENDBRANCH   1  18
TORSDOF 15
