REMARK  Name = ZINC14036150
REMARK  11 active torsions:
REMARK  status: ('A' for Active; 'I' for Inactive)
REMARK    1  A    between atoms: C_1  and  C_2
REMARK    2  A    between atoms: C_2  and  C_3
REMARK    3  A    between atoms: C_3  and  C_4
REMARK    4  A    between atoms: C_4  and  C_5
REMARK    5  A    between atoms: C_5  and  O_6
REMARK    6  A    between atoms: O_6  and  C_7
REMARK    7  A    between atoms: C_12  and  C_13
REMARK    8  A    between atoms: N_15  and  C_16
REMARK    9  A    between atoms: C_16  and  N_18
REMARK   10  A    between atoms: N_18  and  N_19
REMARK   11  A    between atoms: C_20  and  C_22
REMARK                            x       y       z     vdW  Elec       q    Type
REMARK                         _______ _______ _______ _____ _____    ______ ____
ROOT
ATOM      1  C   UNL     1       1.202   0.245  -4.763  0.00  0.00    +0.253 C 
ATOM      2  O   UNL     1       1.684  -0.085  -3.697  0.00  0.00    -0.270 OA
ATOM      3  N   UNL     1       1.778  -0.152  -5.915  0.00  0.00    -0.263 N 
ATOM      4  H   UNL     1       1.394   0.111  -6.766  0.00  0.00    +0.157 HD
ENDROOT
BRANCH   1  10
ATOM      5  C   UNL     1      -0.616   1.496  -3.601  0.00  0.00    +0.133 A 
ATOM      6  C   UNL     1      -1.762   2.276  -3.644  0.00  0.00    +0.046 A 
ATOM      7  C   UNL     1      -2.299   2.650  -4.860  0.00  0.00    +0.004 A 
ATOM      8  C   UNL     1      -1.706   2.242  -6.044  0.00  0.00    +0.001 A 
ATOM      9  C   UNL     1      -0.570   1.462  -6.020  0.00  0.00    +0.017 A 
ATOM     10  C   UNL     1      -0.013   1.080  -4.796  0.00  0.00    +0.079 A 
BRANCH   5  11
ATOM     11  O   UNL     1      -0.084   1.132  -2.407  0.00  0.00    -0.491 OA
BRANCH  11  12
ATOM     12  C   UNL     1      -0.753   1.593  -1.232  0.00  0.00    +0.229 C 
BRANCH  12  13
ATOM     13  C   UNL     1      -0.013   1.086   0.008  0.00  0.00    +0.041 C 
BRANCH  13  14
ATOM     14  C   UNL     1      -0.729   1.579   1.267  0.00  0.00    +0.003 C 
BRANCH  14  16
ATOM     15  C   UNL     1      -0.705   1.566   3.765  0.00  0.00    +0.004 C 
ATOM     16  C   UNL     1       0.011   1.072   2.506  0.00  0.00    -0.003 C 
ENDBRANCH  14  16
ENDBRANCH  13  14
ENDBRANCH  12  13
ENDBRANCH  11  12
ENDBRANCH   5  11
ENDBRANCH   1  10
BRANCH   3  17
ATOM     17  C   UNL     1       2.889  -0.915  -5.884  0.00  0.00    +0.153 C 
ATOM     18  S   UNL     1       3.567  -1.380  -4.383  0.00  0.00    -0.017 S 
BRANCH  17  19
ATOM     19  N   UNL     1       3.465  -1.313  -7.036  0.00  0.00    -0.245 N 
ATOM     20  H   UNL     1       4.264  -1.862  -7.014  0.00  0.00    +0.172 HD
BRANCH  19  21
ATOM     21  N   UNL     1       2.910  -0.932  -8.265  0.00  0.00    -0.231 N 
ATOM     22  C   UNL     1       3.486  -1.330  -9.417  0.00  0.00    +0.262 C 
ATOM     23  O   UNL     1       4.488  -2.018  -9.389  0.00  0.00    -0.269 OA
ATOM     24  H   UNL     1       2.111  -0.383  -8.287  0.00  0.00    +0.173 HD
BRANCH  22  25
ATOM     25  C   UNL     1       2.901  -0.928 -10.713  0.00  0.00    +0.056 A 
ATOM     26  C   UNL     1       1.747  -0.142 -10.748  0.00  0.00    +0.014 A 
ATOM     27  C   UNL     1       1.209   0.233 -11.961  0.00  0.00    +0.001 A 
ATOM     28  C   UNL     1       1.803  -0.176 -13.142  0.00  0.00    +0.001 A 
ATOM     29  C   UNL     1       2.942  -0.959 -13.116  0.00  0.00    +0.021 A 
ATOM     30  C   UNL     1       3.496  -1.338 -11.908  0.00  0.00    +0.053 A 
ATOM     31 CL   UNL     1       4.926  -2.322 -11.877  0.00  0.00    -0.083 Cl
ENDBRANCH  22  25
ENDBRANCH  19  21
ENDBRANCH  17  19
ENDBRANCH   3  17
TORSDOF 10
