REMARK  Name = ZINC20873088
REMARK  10 active torsions:
REMARK  status: ('A' for Active; 'I' for Inactive)
REMARK    1  A    between atoms: C_3  and  S_23
REMARK    2  A    between atoms: C_6  and  C_7
REMARK    3  A    between atoms: C_7  and  C_8
REMARK    4  A    between atoms: C_8  and  N_9
REMARK    5  A    between atoms: N_9  and  C_10
REMARK    6  A    between atoms: C_10  and  C_11
REMARK    7  A    between atoms: C_16  and  O_17
REMARK    8  A    between atoms: O_17  and  C_18
REMARK    9  A    between atoms: C_18  and  C_19
REMARK   10  A    between atoms: S_23  and  N_26
REMARK                            x       y       z     vdW  Elec       q    Type
REMARK                         _______ _______ _______ _____ _____    ______ ____
ROOT
ATOM      1  N   UNL     1       2.981   4.000  -1.370  0.00  0.00    -0.312 NA
ATOM      2  H   UNL     1       2.239   4.491  -2.016  0.00  0.00    +0.122 HD
ENDROOT
BRANCH   1   3
ATOM      3  C   UNL     1       4.243   4.749  -1.417  0.00  0.00    +0.086 C 
BRANCH   3   4
ATOM      4  C   UNL     1       4.763   4.782  -2.855  0.00  0.00    +0.050 C 
BRANCH   4  10
ATOM      5  C   UNL     1       6.046   6.914  -3.128  0.00  0.00    +0.005 A 
ATOM      6  C   UNL     1       7.234   7.620  -3.168  0.00  0.00    +0.029 A 
ATOM      7  C   UNL     1       8.436   6.960  -2.993  0.00  0.00    +0.105 A 
ATOM      8  C   UNL     1       8.449   5.595  -2.774  0.00  0.00    +0.029 A 
ATOM      9  C   UNL     1       7.261   4.890  -2.729  0.00  0.00    +0.005 A 
ATOM     10  C   UNL     1       6.059   5.550  -2.904  0.00  0.00    -0.046 A 
BRANCH   7  11
ATOM     11  S   UNL     1       9.950   7.858  -3.048  0.00  0.00    +0.056 S 
ATOM     12  O   UNL     1       9.636   9.205  -2.723  0.00  0.00    -0.153 OA
ATOM     13  O   UNL     1      10.900   7.099  -2.312  0.00  0.00    -0.153 OA
BRANCH  11  14
ATOM     14  N   UNL     1      10.462   7.858  -4.623  0.00  0.00    -0.204 NA
ATOM     15  H   UNL     1      11.410   8.412  -4.700  0.00  0.00    +0.144 HD
ATOM     16  H   UNL     1       9.703   8.341  -5.255  0.00  0.00    +0.144 HD
ENDBRANCH  11  14
ENDBRANCH   7  11
ENDBRANCH   4  10
ENDBRANCH   3   4
ENDBRANCH   1   3
BRANCH   1  17
ATOM     17  C   UNL     1       2.450   3.947  -0.001  0.00  0.00    +0.120 C 
BRANCH  17  18
ATOM     18  C   UNL     1       1.158   3.173   0.008  0.00  0.00    +0.009 A 
ATOM     19  C   UNL     1      -0.050   3.844   0.023  0.00  0.00    +0.023 A 
ATOM     20  C   UNL     1      -1.237   3.134   0.030  0.00  0.00    +0.018 A 
ATOM     21  C   UNL     1      -1.218   1.751   0.017  0.00  0.00    +0.019 A 
ATOM     22  C   UNL     1      -0.013   1.076   0.008  0.00  0.00    +0.047 A 
ATOM     23  C   UNL     1       1.179   1.786   0.000  0.00  0.00    +0.126 A 
ATOM     24 BR   UNL     1      -2.888   4.055   0.050  0.00  0.00    -0.050 Br
BRANCH  23  25
ATOM     25  O   UNL     1       2.366   1.124  -0.015  0.00  0.00    -0.482 OA
BRANCH  25  26
ATOM     26  C   UNL     1       2.312  -0.304  -0.023  0.00  0.00    +0.324 C 
BRANCH  26  27
ATOM     27  C   UNL     1       3.713  -0.859  -0.040  0.00  0.00    +0.248 C 
ATOM     28  O   UNL     1       4.664  -0.106  -0.044  0.00  0.00    -0.272 OA
ATOM     29  N   UNL     1       3.909  -2.192  -0.049  0.00  0.00    -0.327 N 
ATOM     30  H   UNL     1       4.932  -2.598  -0.061  0.00  0.00    +0.145 HD
ATOM     31  H   UNL     1       3.047  -2.875  -0.045  0.00  0.00    +0.145 HD
ENDBRANCH  26  27
ENDBRANCH  25  26
ENDBRANCH  23  25
ENDBRANCH  17  18
ENDBRANCH   1  17
TORSDOF 10
