REMARK  Name = ZINC13252306
REMARK  7 active torsions:
REMARK  status: ('A' for Active; 'I' for Inactive)
REMARK    1  A    between atoms: C_6  and  N_7
REMARK    2  A    between atoms: N_7  and  S_8
REMARK    3  A    between atoms: S_8  and  C_11
REMARK    4  A    between atoms: C_13  and  N_18
REMARK    5  A    between atoms: C_19  and  C_21
REMARK    6  A    between atoms: C_21  and  C_22
REMARK    7  A    between atoms: C_22  and  C_28
REMARK                            x       y       z     vdW  Elec       q    Type
REMARK                         _______ _______ _______ _____ _____    ______ ____
ROOT
ATOM      1  C   UNL     1      -4.523  -3.722   1.318  0.00  0.00    +0.130 A 
ATOM      2  C   UNL     1      -5.038  -4.412   0.238  0.00  0.00    +0.053 A 
ATOM      3  C   UNL     1      -4.676  -4.050  -1.052  0.00  0.00    +0.035 A 
ATOM      4  C   UNL     1      -3.795  -2.995  -1.254  0.00  0.00    +0.025 A 
ATOM      5  C   UNL     1      -3.283  -2.308  -0.170  0.00  0.00    +0.024 A 
ATOM      6  C   UNL     1      -3.651  -2.668   1.115  0.00  0.00    +0.068 A 
ATOM      7 CL   UNL     1      -3.011  -1.798   2.474  0.00  0.00    -0.082 Cl
ENDROOT
BRANCH   3   8
ATOM      8  N   UNL     1      -5.196  -4.748  -2.149  0.00  0.00    -0.285 N 
ATOM      9  C   UNL     1      -6.445  -5.252  -2.096  0.00  0.00    +0.218 C 
ATOM     10  O   UNL     1      -7.152  -5.020  -1.139  0.00  0.00    -0.275 OA
ATOM     11  H   UNL     1      -4.657  -4.869  -2.947  0.00  0.00    +0.155 HD
BRANCH   9  12
ATOM     12  C   UNL     1      -6.962  -6.104  -3.226  0.00  0.00    +0.114 C 
BRANCH  12  13
ATOM     13  C   UNL     1      -8.395  -6.544  -2.919  0.00  0.00    +0.080 C 
ATOM     14  C   UNL     1      -8.412  -7.354  -1.621  0.00  0.00    +0.019 C 
ATOM     15  C   UNL     1      -7.521  -8.588  -1.778  0.00  0.00    +0.001 C 
ATOM     16  C   UNL     1      -8.047  -9.453  -2.926  0.00  0.00    +0.000 C 
ATOM     17  C   UNL     1      -8.030  -8.643  -4.224  0.00  0.00    +0.001 C 
ATOM     18  C   UNL     1      -8.920  -7.409  -4.066  0.00  0.00    +0.019 C 
BRANCH  13  19
ATOM     19  C   UNL     1      -9.272  -5.328  -2.764  0.00  0.00    +0.362 C 
ATOM     20  O   UNL     1      -8.795  -4.213  -2.888  0.00  0.00    -0.246 OA
ATOM     21  O   UNL     1     -10.458  -5.460  -2.514  0.00  0.00    -0.246 OA
ENDBRANCH  13  19
ENDBRANCH  12  13
ENDBRANCH   9  12
ENDBRANCH   3   8
BRANCH   1  22
ATOM     22  S   UNL     1      -4.983  -4.181   2.956  0.00  0.00    +0.093 S 
ATOM     23  O   UNL     1      -5.854  -5.297   2.836  0.00  0.00    -0.148 OA
ATOM     24  O   UNL     1      -5.365  -2.984   3.621  0.00  0.00    -0.148 OA
BRANCH  22  25
ATOM     25  N   UNL     1      -3.616  -4.727   3.714  0.00  0.00    -0.098 NA
BRANCH  25  31
ATOM     26  C   UNL     1      -2.533  -5.622   5.676  0.00  0.00    +0.028 A 
ATOM     27  C   UNL     1      -2.598  -6.053   6.987  0.00  0.00    +0.022 A 
ATOM     28  C   UNL     1      -3.804  -6.028   7.666  0.00  0.00    +0.041 A 
ATOM     29  C   UNL     1      -4.947  -5.572   7.034  0.00  0.00    +0.022 A 
ATOM     30  C   UNL     1      -4.888  -5.140   5.723  0.00  0.00    +0.028 A 
ATOM     31  C   UNL     1      -3.679  -5.164   5.040  0.00  0.00    +0.074 A 
ATOM     32 CL   UNL     1      -3.882  -6.571   9.313  0.00  0.00    -0.084 Cl
ENDBRANCH  25  31
ENDBRANCH  22  25
ENDBRANCH   1  22
TORSDOF 7
