REMARK  Name = ZINC39224620
REMARK  13 active torsions:
REMARK  status: ('A' for Active; 'I' for Inactive)
REMARK    1  A    between atoms: C_1  and  C_2
REMARK    2  A    between atoms: C_2  and  O_3
REMARK    3  A    between atoms: O_3  and  C_4
REMARK    4  A    between atoms: C_4  and  C_6
REMARK    5  A    between atoms: C_15  and  N_17
REMARK    6  A    between atoms: C_18  and  C_20
REMARK    7  A    between atoms: C_20  and  S_21
REMARK    8  A    between atoms: S_21  and  C_22
REMARK    9  A    between atoms: C_25  and  C_32
REMARK   10  A    between atoms: C_26  and  C_28
REMARK   11  A    between atoms: C_28  and  C_29
REMARK   12  A    between atoms: C_29  and  S_30
REMARK   13  A    between atoms: S_30  and  C_31
REMARK                            x       y       z     vdW  Elec       q    Type
REMARK                         _______ _______ _______ _____ _____    ______ ____
ROOT
ATOM      1  N   UNL     1      -4.324  -0.946  -1.290  0.00  0.00    -0.299 N 
ATOM      2  C   UNL     1      -5.574  -0.931  -1.792  0.00  0.00    +0.224 C 
ATOM      3  O   UNL     1      -6.492  -1.394  -1.148  0.00  0.00    -0.275 OA
ATOM      4  H   UNL     1      -3.590  -0.575  -1.805  0.00  0.00    +0.150 HD
ENDROOT
BRANCH   1  13
ATOM      5  C   UNL     1      -2.847  -2.417   0.016  0.00  0.00    +0.067 C 
ATOM      6  C   UNL     1      -3.014  -3.716   0.016  0.00  0.00    -0.044 C 
ATOM      7  C   UNL     1      -1.893  -4.750   0.119  0.00  0.00    +0.032 C 
ATOM      8  C   UNL     1      -2.522  -6.106  -0.216  0.00  0.00    +0.004 C 
ATOM      9  C   UNL     1      -3.635  -6.472   0.754  0.00  0.00    +0.002 C 
ATOM     10  C   UNL     1      -4.528  -5.287   1.111  0.00  0.00    +0.018 C 
ATOM     11  C   UNL     1      -4.458  -4.241  -0.003  0.00  0.00    +0.075 C 
ATOM     12  S   UNL     1      -5.387  -2.733   0.488  0.00  0.00    -0.126 S 
ATOM     13  C   UNL     1      -4.072  -1.522   0.033  0.00  0.00    +0.169 C 
BRANCH   5  14
ATOM     14  C   UNL     1      -1.497  -1.837   0.006  0.00  0.00    +0.338 C 
ATOM     15  O   UNL     1      -0.523  -2.564  -0.007  0.00  0.00    -0.245 OA
BRANCH  14  16
ATOM     16  O   UNL     1      -1.339  -0.499   0.012  0.00  0.00    -0.462 OA
BRANCH  16  18
ATOM     17  C   UNL     1      -0.019   1.526   0.010  0.00  0.00    +0.048 C 
ATOM     18  C   UNL     1       0.002  -0.004   0.002  0.00  0.00    +0.229 C 
ENDBRANCH  16  18
ENDBRANCH  14  16
ENDBRANCH   5  14
ENDBRANCH   1  13
BRANCH   2  19
ATOM     19  C   UNL     1      -5.833  -0.338  -3.153  0.00  0.00    +0.168 C 
BRANCH  19  20
ATOM     20  S   UNL     1      -7.600  -0.467  -3.543  0.00  0.00    -0.102 S 
BRANCH  20  21
ATOM     21  C   UNL     1      -7.742   0.280  -5.190  0.00  0.00    +0.280 C 
ATOM     22  N   UNL     1      -6.871  -0.422  -6.141  0.00  0.00    -0.250 NA
ATOM     23  C   UNL     1      -6.021   0.439  -6.588  0.00  0.00    +0.057 C 
ATOM     24  C   UNL     1      -6.269   1.752  -5.971  0.00  0.00    +0.061 C 
ATOM     25  N   UNL     1      -7.269   1.670  -5.157  0.00  0.00    -0.250 NA
ATOM     26  C   UNL     1      -4.936   0.145  -7.592  0.00  0.00    +0.067 C 
BRANCH  24  27
ATOM     27  C   UNL     1      -5.477   3.004  -6.248  0.00  0.00    +0.067 C 
BRANCH  27  28
ATOM     28  C   UNL     1      -6.040   4.158  -5.417  0.00  0.00    +0.075 C 
BRANCH  28  29
ATOM     29  S   UNL     1      -5.087   5.665  -5.750  0.00  0.00    -0.164 S 
ATOM     30  C   UNL     1      -5.870   6.920  -4.701  0.00  0.00    +0.084 C 
ENDBRANCH  28  29
ENDBRANCH  27  28
ENDBRANCH  24  27
ENDBRANCH  20  21
ENDBRANCH  19  20
ENDBRANCH   2  19
TORSDOF 10
