REMARK  Name = ZINC32946576
REMARK  8 active torsions:
REMARK  status: ('A' for Active; 'I' for Inactive)
REMARK    1  A    between atoms: C_1  and  C_2
REMARK    2  A    between atoms: C_5  and  N_9
REMARK    3  A    between atoms: C_10  and  C_12
REMARK    4  A    between atoms: C_12  and  S_13
REMARK    5  A    between atoms: S_13  and  C_14
REMARK    6  A    between atoms: C_18  and  S_24
REMARK    7  A    between atoms: N_22  and  C_23
REMARK    8  A    between atoms: S_24  and  N_27
REMARK                            x       y       z     vdW  Elec       q    Type
REMARK                         _______ _______ _______ _____ _____    ______ ____
ROOT
ATOM      1  C   UNL     1      -7.651   3.797  -0.355  0.00  0.00    +0.170 A 
ATOM      2  N   UNL     1      -7.564   5.104  -0.334  0.00  0.00    -0.222 NA
ATOM      3  C   UNL     1      -8.807   5.646  -0.433  0.00  0.00    +0.092 A 
ATOM      4  C   UNL     1      -9.281   6.960  -0.461  0.00  0.00    +0.058 A 
ATOM      5  C   UNL     1     -10.634   7.196  -0.564  0.00  0.00    +0.107 A 
ATOM      6  C   UNL     1     -11.529   6.139  -0.640  0.00  0.00    +0.030 A 
ATOM      7  C   UNL     1     -11.076   4.836  -0.613  0.00  0.00    +0.030 A 
ATOM      8  C   UNL     1      -9.718   4.580  -0.510  0.00  0.00    +0.069 A 
ATOM      9  N   UNL     1      -8.961   3.421  -0.459  0.00  0.00    -0.322 N 
ATOM     10  C   UNL     1      -9.469   2.047  -0.508  0.00  0.00    +0.151 C 
ENDROOT
BRANCH   5  11
ATOM     11  S   UNL     1     -11.232   8.853  -0.599  0.00  0.00    +0.056 S 
ATOM     12  O   UNL     1     -10.160   9.662  -1.064  0.00  0.00    -0.153 OA
ATOM     13  O   UNL     1     -12.495   8.815  -1.249  0.00  0.00    -0.153 OA
BRANCH  11  14
ATOM     14  N   UNL     1     -11.519   9.303   0.968  0.00  0.00    -0.204 NA
ATOM     15  H   UNL     1     -11.895  10.337   0.990  0.00  0.00    +0.144 HD
ATOM     16  H   UNL     1     -10.584   9.241   1.545  0.00  0.00    +0.144 HD
ENDBRANCH  11  14
ENDBRANCH   5  11
BRANCH   1  17
ATOM     17  S   UNL     1      -6.284   2.689  -0.256  0.00  0.00    -0.078 S 
BRANCH  17  18
ATOM     18  C   UNL     1      -4.924   3.878  -0.143  0.00  0.00    +0.173 C 
BRANCH  18  20
ATOM     19  N   UNL     1      -2.458   3.821   0.047  0.00  0.00    -0.285 N 
ATOM     20  C   UNL     1      -3.616   3.137  -0.047  0.00  0.00    +0.227 C 
ATOM     21  O   UNL     1      -3.604   1.924  -0.054  0.00  0.00    -0.275 OA
ATOM     22  H   UNL     1      -2.474   4.917   0.141  0.00  0.00    +0.155 HD
BRANCH  19  27
ATOM     23  C   UNL     1       2.495   1.055  -0.038  0.00  0.00    +0.047 C 
ATOM     24  C   UNL     1       1.179   1.789  -0.016  0.00  0.00    -0.015 A 
ATOM     25  C   UNL     1       1.044   2.939   0.740  0.00  0.00    +0.008 A 
ATOM     26  C   UNL     1      -0.162   3.611   0.767  0.00  0.00    +0.024 A 
ATOM     27  C   UNL     1      -1.238   3.138   0.025  0.00  0.00    +0.036 A 
ATOM     28  C   UNL     1      -1.101   1.983  -0.732  0.00  0.00    +0.062 A 
ATOM     29  C   UNL     1       0.108   1.310  -0.751  0.00  0.00    +0.128 A 
ATOM     30  F   UNL     1       0.243   0.186  -1.488  0.00  0.00    -0.205 F 
ENDBRANCH  19  27
ENDBRANCH  18  20
ENDBRANCH  17  18
ENDBRANCH   1  17
TORSDOF 6
