REMARK  Name = ZINC57291916
REMARK  2 active torsions:
REMARK  status: ('A' for Active; 'I' for Inactive)
REMARK    1  A    between atoms: C_10  and  O_26
REMARK    2  A    between atoms: C_12  and  C_15
REMARK                            x       y       z     vdW  Elec       q    Type
REMARK                         _______ _______ _______ _____ _____    ______ ____
ROOT
ATOM      1  C   UNL     1      -0.017   1.383   0.010  0.00  0.00    +0.023 A 
ATOM      2  C   UNL     1       1.161   2.103   0.002  0.00  0.00    +0.048 A 
ATOM      3  C   UNL     1       2.381   1.443  -0.012  0.00  0.00    +0.132 A 
ATOM      4  C   UNL     1       2.400   0.039  -0.014  0.00  0.00    +0.063 A 
ATOM      5  C   UNL     1       1.204  -0.681  -0.010  0.00  0.00    +0.035 A 
ATOM      6  C   UNL     1       0.002  -0.004   0.002  0.00  0.00    +0.042 A 
ATOM      7 CL   UNL     1      -1.491  -0.890   0.008  0.00  0.00    -0.084 Cl
ATOM      8  C   UNL     1       3.699  -0.659  -0.015  0.00  0.00    +0.199 C 
ATOM      9  O   UNL     1       3.784  -1.849   0.199  0.00  0.00    -0.289 OA
ATOM     10  C   UNL     1       4.924   0.192  -0.299  0.00  0.00    +0.230 C 
ATOM     11  C   UNL     1       4.731   1.526   0.436  0.00  0.00    +0.243 C 
ATOM     12  O   UNL     1       3.534   2.152  -0.026  0.00  0.00    -0.480 OA
ENDROOT
BRANCH  11  13
ATOM     13  C   UNL     1       5.908   2.426   0.163  0.00  0.00    +0.039 A 
ATOM     14  C   UNL     1       5.842   3.361  -0.852  0.00  0.00    +0.026 A 
ATOM     15  C   UNL     1       6.922   4.187  -1.103  0.00  0.00    +0.019 A 
ATOM     16  C   UNL     1       8.071   4.077  -0.340  0.00  0.00    +0.024 A 
ATOM     17  C   UNL     1       8.142   3.143   0.676  0.00  0.00    +0.021 A 
ATOM     18  C   UNL     1       7.056   2.320   0.935  0.00  0.00    +0.136 A 
ATOM     19  O   UNL     1       7.107   1.406   1.942  0.00  0.00    -0.465 OA
ATOM     20  C   UNL     1       8.402   1.086   2.459  0.00  0.00    +0.394 C 
ATOM     21  O   UNL     1       9.111   2.306   2.703  0.00  0.00    -0.339 OA
ATOM     22  C   UNL     1       9.400   3.029   1.499  0.00  0.00    +0.202 C 
ATOM     23 BR   UNL     1       6.830   5.467  -2.492  0.00  0.00    -0.050 Br
ENDBRANCH  11  13
BRANCH  10  24
ATOM     24  O   UNL     1       5.042   0.421  -1.705  0.00  0.00    -0.380 OA
ATOM     25  H   UNL     1       5.132  -0.386  -2.229  0.00  0.00    +0.211 HD
ENDBRANCH  10  24
TORSDOF 2
