REMARK  Name = ZINC04164954
REMARK  4 active torsions:
REMARK  status: ('A' for Active; 'I' for Inactive)
REMARK    1  A    between atoms: C_1  and  C_2
REMARK    2  A    between atoms: C_5  and  C_27
REMARK    3  A    between atoms: C_15  and  C_18
REMARK    4  A    between atoms: C_21  and  N_24
REMARK                            x       y       z     vdW  Elec       q    Type
REMARK                         _______ _______ _______ _____ _____    ______ ____
ROOT
ATOM      1  C   UNL     1       4.282   2.088   0.250  0.00  0.00    +0.044 C 
ATOM      2  C   UNL     1       3.453   1.894   1.493  0.00  0.00    -0.045 A 
ATOM      3  C   UNL     1       4.061   1.923   2.732  0.00  0.00    +0.004 A 
ATOM      4  C   UNL     1       3.307   1.747   3.877  0.00  0.00    +0.005 A 
ATOM      5  C   UNL     1       1.947   1.540   3.778  0.00  0.00    -0.029 A 
ATOM      6  C   UNL     1       1.331   1.509   2.527  0.00  0.00    +0.035 A 
ATOM      7  C   UNL     1       2.084   1.686   1.382  0.00  0.00    -0.016 A 
ATOM      8  C   UNL     1       1.491   1.668  -0.001  0.00  0.00    +0.049 C 
ATOM      9  C   UNL     1       2.078   0.482  -0.750  0.00  0.00    -0.023 C 
ATOM     10  C   UNL     1       1.269  -0.545  -0.691  0.00  0.00    -0.030 C 
ATOM     11  C   UNL     1       0.025  -0.198   0.106  0.00  0.00    +0.033 C 
ATOM     12  C   UNL     1      -0.017   1.348   0.039  0.00  0.00    +0.029 C 
ATOM     13  C   UNL     1      -0.650   1.914   1.300  0.00  0.00    +0.105 C 
ATOM     14  N   UNL     1      -0.048   1.296   2.483  0.00  0.00    -0.336 N 
ATOM     15  C   UNL     1       1.124   1.348   5.025  0.00  0.00    +0.045 C 
ATOM     16  H   UNL     1      -0.492   1.623   3.328  0.00  0.00    +0.147 HD
ENDROOT
BRANCH  13  17
ATOM     17  C   UNL     1      -0.427   3.404   1.347  0.00  0.00    -0.027 A 
ATOM     18  C   UNL     1      -0.333   4.051   2.564  0.00  0.00    +0.008 A 
ATOM     19  C   UNL     1      -0.123   5.417   2.607  0.00  0.00    +0.033 A 
ATOM     20  C   UNL     1      -0.019   6.137   1.431  0.00  0.00    +0.126 A 
ATOM     21  C   UNL     1      -0.118   5.491   0.214  0.00  0.00    +0.033 A 
ATOM     22  C   UNL     1      -0.323   4.124   0.171  0.00  0.00    +0.008 A 
BRANCH  20  23
ATOM     23  N   UNL     1       0.199   7.600   1.477  0.00  0.00    +0.056 N 
ATOM     24  O   UNL     1       0.291   8.235   0.441  0.00  0.00    -0.126 OA
ATOM     25  O   UNL     1       0.287   8.170   2.550  0.00  0.00    -0.126 OA
ENDBRANCH  20  23
ENDBRANCH  13  17
TORSDOF 2
