REMARK  Name = ZINC22419138
REMARK  8 active torsions:
REMARK  status: ('A' for Active; 'I' for Inactive)
REMARK    1  A    between atoms: C_1  and  N_2
REMARK    2  A    between atoms: N_2  and  C_3
REMARK    3  A    between atoms: N_2  and  C_4
REMARK    4  A    between atoms: C_7  and  C_10
REMARK    5  A    between atoms: C_10  and  C_12
REMARK    6  A    between atoms: C_10  and  N_22
REMARK    7  A    between atoms: C_12  and  N_13
REMARK    8  A    between atoms: N_16  and  C_17
REMARK                            x       y       z     vdW  Elec       q    Type
REMARK                         _______ _______ _______ _____ _____    ______ ____
ROOT
ATOM      1  C   UNL     1       7.256   2.013  -0.122  0.00  0.00    -0.020 C 
ENDROOT
BRANCH   1   2
ATOM      2  N   UNL     1       7.221   1.108  -1.279  0.00  0.00    +0.388 N 
ATOM      3  C   UNL     1       6.156   0.102  -1.130  0.00  0.00    -0.073 C 
ATOM      4  C   UNL     1       5.923  -0.562  -2.487  0.00  0.00    +0.017 C 
ATOM      5  C   UNL     1       7.235  -1.022  -3.067  0.00  0.00    -0.048 A 
ATOM      6  C   UNL     1       7.214  -1.947  -4.101  0.00  0.00    +0.004 A 
ATOM      7  C   UNL     1       8.393  -2.392  -4.663  0.00  0.00    +0.000 A 
ATOM      8  C   UNL     1       9.602  -1.914  -4.194  0.00  0.00    +0.000 A 
ATOM      9  C   UNL     1       9.625  -0.994  -3.165  0.00  0.00    +0.002 A 
ATOM     10  C   UNL     1       8.441  -0.547  -2.597  0.00  0.00    -0.061 A 
ATOM     11  C   UNL     1       8.517   0.450  -1.471  0.00  0.00    -0.042 C 
ATOM     12  H   UNL     1       7.007   1.715  -2.170  0.00  0.00    -0.080 HD
ENDBRANCH   1   2
BRANCH   1  16
ATOM     13  C   UNL     1      10.475   4.787  -0.580  0.00  0.00    +0.029 A 
ATOM     14  C   UNL     1      10.201   4.237   0.666  0.00  0.00    +0.023 A 
ATOM     15  C   UNL     1       9.161   3.341   0.811  0.00  0.00    +0.004 A 
ATOM     16  C   UNL     1       8.391   2.991  -0.283  0.00  0.00    -0.059 A 
ATOM     17  C   UNL     1       8.664   3.532  -1.526  0.00  0.00    +0.004 A 
ATOM     18  C   UNL     1       9.700   4.433  -1.677  0.00  0.00    +0.023 A 
BRANCH  13  20
ATOM     19  C   UNL     1      12.267   6.157   0.447  0.00  0.00    +0.129 C 
ATOM     20  N   UNL     1      11.527   5.693  -0.729  0.00  0.00    -0.336 N 
ATOM     21  C   UNL     1      11.891   6.178  -2.063  0.00  0.00    +0.129 C 
ENDBRANCH  13  20
ENDBRANCH   1  16
BRANCH   1  22
ATOM     22  C   UNL     1       5.933   2.776  -0.032  0.00  0.00    +0.095 C 
BRANCH  22  23
ATOM     23  N   UNL     1       5.935   3.616   1.169  0.00  0.00    -0.300 N 
ATOM     24  C   UNL     1       4.911   4.462   1.401  0.00  0.00    +0.304 C 
ATOM     25  O   UNL     1       3.986   4.527   0.615  0.00  0.00    -0.252 OA
ATOM     26  N   UNL     1       4.913   5.234   2.506  0.00  0.00    -0.264 N 
ATOM     27  H   UNL     1       6.772   3.557   1.880  0.00  0.00    +0.150 HD
ATOM     28  H   UNL     1       5.750   5.175   3.217  0.00  0.00    +0.157 HD
BRANCH  26  29
ATOM     29  C   UNL     1       3.851   6.111   2.747  0.00  0.00    +0.073 A 
ATOM     30  C   UNL     1       3.665   6.966   3.791  0.00  0.00    +0.031 A 
ATOM     31  C   UNL     1       2.521   7.742   3.821  0.00  0.00    +0.009 A 
ATOM     32  C   UNL     1       1.627   7.636   2.808  0.00  0.00    +0.047 A 
ATOM     33  S   UNL     1       2.387   6.401   1.768  0.00  0.00    -0.082 S 
ENDBRANCH  26  29
ENDBRANCH  22  23
ENDBRANCH   1  22
TORSDOF 6
