REMARK  Name = ZINC39714232
REMARK  4 active torsions:
REMARK  status: ('A' for Active; 'I' for Inactive)
REMARK    1  A    between atoms: C_1  and  C_2
REMARK    2  A    between atoms: N_11  and  N_25
REMARK    3  A    between atoms: C_12  and  C_14
REMARK    4  A    between atoms: C_26  and  C_27
REMARK                            x       y       z     vdW  Elec       q    Type
REMARK                         _______ _______ _______ _____ _____    ______ ____
ROOT
ATOM      1  C   UNL     1      -0.460   1.498   0.067  0.00  0.00    +0.044 C 
ATOM      2  C   UNL     1      -0.345  -0.004   0.048  0.00  0.00    -0.049 A 
ATOM      3  C   UNL     1      -0.274  -0.686  -1.159  0.00  0.00    +0.005 A 
ATOM      4  C   UNL     1      -0.169  -2.052  -1.204  0.00  0.00    +0.029 A 
ATOM      5  C   UNL     1      -0.130  -2.814  -0.013  0.00  0.00    +0.080 A 
ATOM      6  C   UNL     1      -0.205  -2.086   1.196  0.00  0.00    +0.041 A 
ATOM      7  C   UNL     1      -0.305  -0.717   1.232  0.00  0.00    +0.020 A 
ATOM      8  S   UNL     1      -0.126  -3.373   2.418  0.00  0.00    -0.050 S 
ATOM      9  C   UNL     1      -0.003  -4.750   1.286  0.00  0.00    +0.189 A 
ATOM     10  N   UNL     1      -0.030  -4.154   0.116  0.00  0.00    -0.223 NA
ATOM     11  N   UNL     1       0.096  -6.104   1.570  0.00  0.00    -0.133 N 
ATOM     12  C   UNL     1       0.080  -7.005   0.568  0.00  0.00    +0.285 C 
ATOM     13  O   UNL     1      -0.021  -6.633  -0.582  0.00  0.00    -0.269 OA
ENDROOT
BRANCH  12  14
ATOM     14  C   UNL     1       0.187  -8.477   0.877  0.00  0.00    +0.298 C 
ATOM     15  C   UNL     1       1.567  -8.780   1.476  0.00  0.00    +0.283 C 
ATOM     16  O   UNL     1       1.639 -10.185   1.744  0.00  0.00    -0.484 OA
ATOM     17  C   UNL     1       1.209 -11.019   0.757  0.00  0.00    +0.162 A 
ATOM     18  C   UNL     1       1.576 -12.356   0.788  0.00  0.00    +0.049 A 
ATOM     19  C   UNL     1       1.143 -13.215  -0.204  0.00  0.00    +0.004 A 
ATOM     20  C   UNL     1       0.345 -12.745  -1.230  0.00  0.00    +0.004 A 
ATOM     21  C   UNL     1      -0.023 -11.413  -1.267  0.00  0.00    +0.049 A 
ATOM     22  C   UNL     1       0.408 -10.545  -0.275  0.00  0.00    +0.163 A 
ATOM     23  O   UNL     1       0.043  -9.235  -0.329  0.00  0.00    -0.472 OA
ENDBRANCH  12  14
BRANCH  11  24
ATOM     24  N   UNL     1       0.212  -6.534   2.898  0.00  0.00    -0.178 NA
ATOM     25  C   UNL     1      -0.772  -6.361   3.725  0.00  0.00    +0.139 C 
BRANCH  25  26
ATOM     26  C   UNL     1      -0.609  -6.708   5.149  0.00  0.00    -0.005 A 
ATOM     27  C   UNL     1       0.606  -7.219   5.612  0.00  0.00    +0.010 A 
ATOM     28  C   UNL     1       0.752  -7.542   6.944  0.00  0.00    +0.016 A 
ATOM     29  C   UNL     1      -0.303  -7.360   7.823  0.00  0.00    +0.018 A 
ATOM     30  C   UNL     1      -1.510  -6.854   7.371  0.00  0.00    +0.016 A 
ATOM     31  C   UNL     1      -1.667  -6.522   6.042  0.00  0.00    +0.010 A 
ATOM     32 BR   UNL     1      -0.094  -7.806   9.649  0.00  0.00    -0.050 Br
ENDBRANCH  25  26
ENDBRANCH  11  24
TORSDOF 3
