REMARK  Name = ZINC32622223
REMARK  3 active torsions:
REMARK  status: ('A' for Active; 'I' for Inactive)
REMARK    1  A    between atoms: C_8  and  C_10
REMARK    2  A    between atoms: C_16  and  C_18
REMARK    3  A    between atoms: C_20  and  C_23
REMARK                            x       y       z     vdW  Elec       q    Type
REMARK                         _______ _______ _______ _____ _____    ______ ____
ROOT
ATOM      1  C   UNL     1      -9.297  -4.898   0.786  0.00  0.00    +0.048 C 
ATOM      2  C   UNL     1      -9.954  -3.521   0.907  0.00  0.00    +0.029 C 
ATOM      3  C   UNL     1      -9.395  -2.596  -0.178  0.00  0.00    +0.109 C 
ATOM      4  N   UNL     1      -7.930  -2.576  -0.074  0.00  0.00    -0.296 N 
ATOM      5  C   UNL     1      -7.203  -3.853  -0.094  0.00  0.00    +0.109 C 
ATOM      6  C   UNL     1      -7.787  -4.765   0.996  0.00  0.00    +0.029 C 
ATOM      7  C   UNL     1      -7.264  -1.409   0.032  0.00  0.00    +0.268 C 
ATOM      8  O   UNL     1      -7.879  -0.370   0.167  0.00  0.00    -0.268 OA
ENDROOT
BRANCH   1  16
ATOM      9  C   UNL     1     -12.064  -9.511   3.812  0.00  0.00    +0.002 A 
ATOM     10  C   UNL     1     -11.793  -8.952   5.054  0.00  0.00    +0.001 A 
ATOM     11  C   UNL     1     -11.109  -7.753   5.124  0.00  0.00    +0.017 A 
ATOM     12  C   UNL     1     -10.709  -7.136   3.963  0.00  0.00    +0.039 A 
ATOM     13  C   UNL     1     -10.970  -7.683   2.686  0.00  0.00    +0.078 A 
ATOM     14  C   UNL     1     -11.672  -8.908   2.657  0.00  0.00    +0.029 A 
ATOM     15  N   UNL     1     -10.506  -6.945   1.656  0.00  0.00    -0.244 NA
ATOM     16  C   UNL     1      -9.869  -5.821   1.831  0.00  0.00    +0.083 A 
ATOM     17  S   UNL     1      -9.832  -5.647   3.558  0.00  0.00    -0.072 S 
ENDBRANCH   1  16
BRANCH   7  18
ATOM     18  C   UNL     1      -5.782  -1.393  -0.017  0.00  0.00    +0.168 A 
ATOM     19  C   UNL     1      -4.935  -0.279   0.215  0.00  0.00    +0.086 A 
ATOM     20  C   UNL     1      -3.675  -0.786   0.049  0.00  0.00    +0.168 A 
ATOM     21  O   UNL     1      -3.828  -2.089  -0.245  0.00  0.00    -0.354 OA
ATOM     22  N   UNL     1      -4.993  -2.408  -0.277  0.00  0.00    -0.073 NA
BRANCH  20  23
ATOM     23  C   UNL     1      -2.401  -0.049   0.173  0.00  0.00    +0.024 A 
ATOM     24  C   UNL     1      -2.406   1.312   0.485  0.00  0.00    +0.015 A 
ATOM     25  C   UNL     1      -1.216   1.998   0.596  0.00  0.00    +0.050 A 
ATOM     26  C   UNL     1      -0.008   1.339   0.404  0.00  0.00    +0.162 A 
ATOM     27  C   UNL     1       0.004  -0.018   0.094  0.00  0.00    +0.163 A 
ATOM     28  C   UNL     1      -1.188  -0.711  -0.022  0.00  0.00    +0.061 A 
ATOM     29  O   UNL     1       1.180  -0.678  -0.096  0.00  0.00    -0.485 OA
ATOM     30  C   UNL     1       2.338   0.128  -0.341  0.00  0.00    +0.270 C 
ATOM     31  C   UNL     1       2.353   1.271   0.683  0.00  0.00    +0.270 C 
ATOM     32  O   UNL     1       1.155   2.037   0.517  0.00  0.00    -0.485 OA
ENDBRANCH  20  23
ENDBRANCH   7  18
TORSDOF 3
