REMARK  Name = ZINC04188977
REMARK  12 active torsions:
REMARK  status: ('A' for Active; 'I' for Inactive)
REMARK    1  A    between atoms: C_1  and  C_2
REMARK    2  A    between atoms: C_2  and  N_65
REMARK    3  A    between atoms: C_3  and  C_4
REMARK    4  A    between atoms: C_3  and  N_65
REMARK    5  A    between atoms: C_5  and  C_6
REMARK    6  A    between atoms: C_5  and  N_65
REMARK    7  A    between atoms: C_6  and  N_7
REMARK    8  A    between atoms: C_8  and  C_10
REMARK    9  A    between atoms: C_12  and  N_21
REMARK   10  A    between atoms: C_15  and  N_16
REMARK   11  A    between atoms: N_24  and  C_25
REMARK   12  A    between atoms: C_28  and  C_31
REMARK                            x       y       z     vdW  Elec       q    Type
REMARK                         _______ _______ _______ _____ _____    ______ ____
ROOT
ATOM      1  C   UNL     1       4.636  -7.348  -0.642  0.00  0.00    +0.059 A 
ATOM      2  C   UNL     1       3.417  -6.665  -0.663  0.00  0.00    +0.038 A 
ATOM      3  C   UNL     1       3.399  -5.285  -0.580  0.00  0.00    +0.036 A 
ATOM      4  C   UNL     1       4.591  -4.574  -0.480  0.00  0.00    +0.025 A 
ATOM      5  C   UNL     1       5.799  -5.239  -0.453  0.00  0.00    +0.026 A 
ATOM      6  C   UNL     1       5.834  -6.626  -0.536  0.00  0.00    +0.042 A 
ENDROOT
BRANCH   3   7
ATOM      7  N   UNL     1       2.176  -4.599  -0.601  0.00  0.00    -0.269 N 
ATOM      8  C   UNL     1       2.018  -3.481   0.135  0.00  0.00    +0.308 C 
ATOM      9  O   UNL     1       2.960  -3.019   0.750  0.00  0.00    -0.252 OA
ATOM     10  N   UNL     1       0.816  -2.875   0.190  0.00  0.00    -0.269 N 
ATOM     11  H   UNL     1       1.445  -4.929  -1.146  0.00  0.00    +0.156 HD
ATOM     12  H   UNL     1       0.048  -3.280  -0.244  0.00  0.00    +0.156 HD
BRANCH  10  13
ATOM     13  C   UNL     1       0.674  -1.665   0.870  0.00  0.00    +0.035 A 
ATOM     14  C   UNL     1      -0.203  -0.697   0.391  0.00  0.00    +0.024 A 
ATOM     15  C   UNL     1      -0.345   0.498   1.060  0.00  0.00    +0.020 A 
ATOM     16  C   UNL     1       0.393   0.738   2.223  0.00  0.00    +0.052 A 
ATOM     17  C   UNL     1       1.273  -0.237   2.701  0.00  0.00    +0.020 A 
ATOM     18  C   UNL     1       1.410  -1.429   2.027  0.00  0.00    +0.024 A 
BRANCH  16  19
ATOM     19  C   UNL     1       0.248   1.979   2.921  0.00  0.00    +0.099 C 
ATOM     20  N   UNL     1       0.133   2.964   3.475  0.00  0.00    -0.191 NA
ENDBRANCH  16  19
ENDBRANCH  10  13
ENDBRANCH   3   7
BRANCH   6  21
ATOM     21  N   UNL     1       7.052  -7.296  -0.513  0.00  0.00    -0.329 N 
ATOM     22  C   UNL     1       7.974  -6.759  -1.547  0.00  0.00    +0.105 C 
ATOM     23  C   UNL     1       9.369  -7.210  -1.046  0.00  0.00    +0.020 C 
ATOM     24  C   UNL     1       9.252  -7.059   0.487  0.00  0.00    +0.020 C 
ATOM     25  C   UNL     1       7.741  -7.101   0.781  0.00  0.00    +0.105 C 
ENDBRANCH   6  21
BRANCH   1  27
ATOM     26  N   UNL     1       3.520  -9.503  -0.940  0.00  0.00    -0.313 N 
ATOM     27  C   UNL     1       4.662  -8.819  -0.731  0.00  0.00    +0.246 C 
ATOM     28  O   UNL     1       5.715  -9.416  -0.616  0.00  0.00    -0.270 OA
ATOM     29  H   UNL     1       2.680  -9.027  -1.032  0.00  0.00    +0.149 HD
BRANCH  26  30
ATOM     30  C   UNL     1       3.546 -10.965  -1.028  0.00  0.00    +0.086 C 
BRANCH  30  31
ATOM     31  C   UNL     1       2.128 -11.488  -1.267  0.00  0.00    -0.060 C 
BRANCH  31  32
ATOM     32  N   UNL     1       2.175 -12.961  -1.375  0.00  0.00    +0.380 N 
ATOM     33  H   UNL     1       2.887 -13.222  -2.068  0.00  0.00    -0.082 HD
BRANCH  32  35
ATOM     34  C   UNL     1       1.456 -13.253   0.972  0.00  0.00    -0.017 C 
ATOM     35  C   UNL     1       2.536 -13.552  -0.070  0.00  0.00    -0.082 C 
ENDBRANCH  32  35
BRANCH  32  36
ATOM     36  C   UNL     1       0.862 -13.477  -1.818  0.00  0.00    -0.082 C 
ATOM     37  C   UNL     1       0.973 -14.987  -2.038  0.00  0.00    -0.017 C 
ENDBRANCH  32  36
ENDBRANCH  31  32
ENDBRANCH  30  31
ENDBRANCH  26  30
ENDBRANCH   1  27
TORSDOF 10
