REMARK  Name = ZINC44881413
REMARK  8 active torsions:
REMARK  status: ('A' for Active; 'I' for Inactive)
REMARK    1  A    between atoms: C_1  and  C_2
REMARK    2  A    between atoms: C_2  and  C_3
REMARK    3  A    between atoms: C_2  and  C_4
REMARK    4  A    between atoms: C_4  and  C_6
REMARK    5  A    between atoms: C_4  and  S_9
REMARK    6  A    between atoms: S_9  and  C_10
REMARK    7  A    between atoms: N_18  and  C_19
REMARK    8  A    between atoms: C_19  and  C_20
REMARK                            x       y       z     vdW  Elec       q    Type
REMARK                         _______ _______ _______ _____ _____    ______ ____
ROOT
ATOM      1  C   UNL     1       0.852  -0.566   4.057  0.00  0.00    +0.172 A 
ATOM      2  N   UNL     1       2.023  -1.139   3.920  0.00  0.00    -0.217 NA
ATOM      3  C   UNL     1       2.544  -1.399   5.145  0.00  0.00    +0.148 A 
ATOM      4  C   UNL     1       3.735  -1.984   5.604  0.00  0.00    +0.147 A 
ATOM      5  N   UNL     1       3.927  -2.084   6.916  0.00  0.00    -0.219 NA
ATOM      6  C   UNL     1       3.025  -1.645   7.774  0.00  0.00    +0.225 A 
ATOM      7  N   UNL     1       1.895  -1.090   7.389  0.00  0.00    -0.216 NA
ATOM      8  C   UNL     1       1.616  -0.948   6.098  0.00  0.00    +0.166 A 
ATOM      9  N   UNL     1       0.561  -0.423   5.386  0.00  0.00    -0.299 N 
ATOM     10  N   UNL     1       4.687  -2.448   4.711  0.00  0.00    -0.341 N 
ATOM     11  H   UNL     1       4.535  -2.370   3.756  0.00  0.00    +0.144 HD
ATOM     12  H   UNL     1       5.506  -2.851   5.041  0.00  0.00    +0.144 HD
ENDROOT
BRANCH   1  13
ATOM     13  S   UNL     1      -0.187  -0.052   2.730  0.00  0.00    -0.072 S 
BRANCH  13  14
ATOM     14  C   UNL     1       0.742  -0.511   1.242  0.00  0.00    +0.170 C 
BRANCH  14  16
ATOM     15  C   UNL     1      -0.019   1.526   0.010  0.00  0.00    +0.009 C 
ATOM     16  C   UNL     1       0.002  -0.004   0.002  0.00  0.00    +0.007 C 
ATOM     17  C   UNL     1       0.718  -0.497  -1.257  0.00  0.00    +0.009 C 
ENDBRANCH  14  16
BRANCH  14  18
ATOM     18  C   UNL     1       0.870  -2.011   1.172  0.00  0.00    +0.369 C 
ATOM     19  O   UNL     1       1.794  -2.516   0.557  0.00  0.00    -0.245 OA
ATOM     20  O   UNL     1       0.050  -2.719   1.730  0.00  0.00    -0.245 OA
ENDBRANCH  14  18
ENDBRANCH  13  14
ENDBRANCH   1  13
BRANCH   9  21
ATOM     21  C   UNL     1      -0.651   0.176   5.949  0.00  0.00    +0.162 C 
BRANCH  21  22
ATOM     22  C   UNL     1      -1.696  -0.893   6.143  0.00  0.00    -0.009 A 
ATOM     23  C   UNL     1      -2.649  -1.113   5.165  0.00  0.00    +0.007 A 
ATOM     24  C   UNL     1      -3.607  -2.093   5.343  0.00  0.00    +0.000 A 
ATOM     25  C   UNL     1      -3.614  -2.854   6.497  0.00  0.00    +0.001 A 
ATOM     26  C   UNL     1      -2.662  -2.635   7.475  0.00  0.00    +0.020 A 
ATOM     27  C   UNL     1      -1.699  -1.657   7.295  0.00  0.00    +0.046 A 
ATOM     28 CL   UNL     1      -0.499  -1.386   8.520  0.00  0.00    -0.083 Cl
ENDBRANCH  21  22
ENDBRANCH   9  21
TORSDOF 6
