REMARK  Name = ZINC33938644
REMARK  12 active torsions:
REMARK  status: ('A' for Active; 'I' for Inactive)
REMARK    1  A    between atoms: C_1  and  C_2
REMARK    2  A    between atoms: C_2  and  O_3
REMARK    3  A    between atoms: O_3  and  C_4
REMARK    4  A    between atoms: C_7  and  N_10
REMARK    5  A    between atoms: C_15  and  C_33
REMARK    6  A    between atoms: C_18  and  C_23
REMARK    7  A    between atoms: C_18  and  C_29
REMARK    8  A    between atoms: C_29  and  O_31
REMARK    9  A    between atoms: O_31  and  C_32
REMARK   10  A    between atoms: C_36  and  N_39
REMARK   11  A    between atoms: N_39  and  C_40
REMARK   12  A    between atoms: N_39  and  C_41
REMARK                            x       y       z     vdW  Elec       q    Type
REMARK                         _______ _______ _______ _____ _____    ______ ____
ROOT
ATOM      1  N   UNL     1       1.248  -5.488  -0.768  0.00  0.00    -0.210 N 
ATOM      2  C   UNL     1       0.876  -6.448   0.087  0.00  0.00    +0.232 C 
ATOM      3  O   UNL     1       0.455  -6.262   1.209  0.00  0.00    -0.274 OA
ATOM      4  C   UNL     1       1.063  -7.800  -0.563  0.00  0.00    +0.112 C 
ATOM      5  C   UNL     1       2.204  -8.554   0.151  0.00  0.00    +0.098 C 
ATOM      6  N   UNL     1       3.442  -8.095  -0.528  0.00  0.00    -0.290 NA
ATOM      7  C   UNL     1       3.066  -8.023  -1.963  0.00  0.00    +0.155 C 
ATOM      8  C   UNL     1       1.617  -7.447  -1.970  0.00  0.00    +0.125 C 
ATOM      9  C   UNL     1       1.675  -5.936  -1.954  0.00  0.00    +0.233 C 
ATOM     10  O   UNL     1       2.051  -5.239  -2.872  0.00  0.00    -0.274 OA
ATOM     11  H   UNL     1       3.730  -7.192  -0.184  0.00  0.00    +0.124 HD
ENDROOT
BRANCH   1  15
ATOM     12  C   UNL     1       1.071  -1.429   0.181  0.00  0.00    +0.121 A 
ATOM     13  C   UNL     1      -0.099  -2.163   0.054  0.00  0.00    +0.047 A 
ATOM     14  C   UNL     1      -0.041  -3.506  -0.260  0.00  0.00    +0.027 A 
ATOM     15  C   UNL     1       1.188  -4.122  -0.449  0.00  0.00    +0.044 A 
ATOM     16  C   UNL     1       2.359  -3.388  -0.321  0.00  0.00    +0.027 A 
ATOM     17  C   UNL     1       2.300  -2.043  -0.012  0.00  0.00    +0.047 A 
BRANCH  12  18
ATOM     18  O   UNL     1       1.014  -0.106   0.490  0.00  0.00    -0.492 OA
BRANCH  18  20
ATOM     19  C   UNL     1      -0.148   1.946   1.015  0.00  0.00    +0.048 C 
ATOM     20  C   UNL     1      -0.284   0.461   0.676  0.00  0.00    +0.225 C 
ENDBRANCH  18  20
ENDBRANCH  12  18
ENDBRANCH   1  15
BRANCH   7  21
ATOM     21  C   UNL     1       4.001  -7.103  -2.705  0.00  0.00    -0.016 A 
ATOM     22  C   UNL     1       5.010  -6.447  -2.025  0.00  0.00    +0.006 A 
ATOM     23  C   UNL     1       5.868  -5.604  -2.706  0.00  0.00    +0.000 A 
ATOM     24  C   UNL     1       5.716  -5.416  -4.067  0.00  0.00    +0.000 A 
ATOM     25  C   UNL     1       4.708  -6.072  -4.748  0.00  0.00    +0.000 A 
ATOM     26  C   UNL     1       3.853  -6.919  -4.067  0.00  0.00    +0.006 A 
ENDBRANCH   7  21
BRANCH   5  27
ATOM     27  C   UNL     1       2.239  -8.190   1.613  0.00  0.00    -0.030 A 
ATOM     28  C   UNL     1       2.825  -7.004   2.015  0.00  0.00    +0.007 A 
ATOM     29  C   UNL     1       2.858  -6.668   3.354  0.00  0.00    +0.023 A 
ATOM     30  C   UNL     1       2.302  -7.523   4.298  0.00  0.00    +0.029 A 
ATOM     31  C   UNL     1       1.714  -8.713   3.890  0.00  0.00    +0.023 A 
ATOM     32  C   UNL     1       1.679  -9.041   2.549  0.00  0.00    +0.007 A 
BRANCH  30  33
ATOM     33  N   UNL     1       2.335  -7.186   5.653  0.00  0.00    -0.336 N 
ATOM     34  C   UNL     1       2.850  -5.880   6.071  0.00  0.00    +0.129 C 
ATOM     35  C   UNL     1       1.855  -8.139   6.656  0.00  0.00    +0.129 C 
ENDBRANCH  30  33
ENDBRANCH   5  27
BRANCH   7  36
ATOM     36  C   UNL     1       3.080  -9.397  -2.580  0.00  0.00    +0.333 C 
ATOM     37  O   UNL     1       2.257  -9.694  -3.413  0.00  0.00    -0.248 OA
BRANCH  36  38
ATOM     38  O   UNL     1       4.007 -10.292  -2.203  0.00  0.00    -0.466 OA
ATOM     39  C   UNL     1       3.961 -11.576  -2.829  0.00  0.00    +0.280 C 
ENDBRANCH  36  38
ENDBRANCH   7  36
TORSDOF 8
