REMARK  Name = ZINC16009777
REMARK  4 active torsions:
REMARK  status: ('A' for Active; 'I' for Inactive)
REMARK    1  A    between atoms: C_1  and  C_2
REMARK    2  A    between atoms: C_4  and  N_35
REMARK    3  A    between atoms: C_7  and  N_8
REMARK    4  A    between atoms: C_28  and  C_33
REMARK                            x       y       z     vdW  Elec       q    Type
REMARK                         _______ _______ _______ _____ _____    ______ ____
ROOT
ATOM      1  N   UNL     1       0.065   2.569   2.014  0.00  0.00    -0.210 N 
ATOM      2  C   UNL     1      -1.093   2.278   1.411  0.00  0.00    +0.228 C 
ATOM      3  O   UNL     1      -2.195   2.476   1.877  0.00  0.00    -0.275 OA
ATOM      4  C   UNL     1      -0.814   1.662   0.059  0.00  0.00    +0.074 C 
ATOM      5  C   UNL     1      -1.234   0.180   0.076  0.00  0.00    -0.054 C 
ATOM      6  C   UNL     1      -2.320  -0.030   1.146  0.00  0.00    -0.016 C 
ATOM      7  C   UNL     1      -1.523  -0.413   2.438  0.00  0.00    -0.020 C 
ATOM      8  C   UNL     1      -0.036  -0.369   2.029  0.00  0.00    -0.076 C 
ATOM      9  N   UNL     1      -0.030  -0.562   0.559  0.00  0.00    +0.395 N 
ATOM     10  C   UNL     1       1.109   0.158  -0.034  0.00  0.00    +0.053 C 
ATOM     11  C   UNL     1       0.737   1.645  -0.014  0.00  0.00    +0.089 C 
ATOM     12  C   UNL     1       1.155   2.257   1.304  0.00  0.00    +0.229 C 
ATOM     13  O   UNL     1       2.300   2.438   1.661  0.00  0.00    -0.275 OA
ATOM     14  C   UNL     1       1.399  -0.320  -1.429  0.00  0.00    -0.026 A 
ATOM     15  C   UNL     1       0.659  -0.360  -2.589  0.00  0.00    +0.024 A 
ATOM     16  C   UNL     1       1.216  -0.873  -3.749  0.00  0.00    +0.042 A 
ATOM     17  C   UNL     1       2.518  -1.343  -3.737  0.00  0.00    +0.025 A 
ATOM     18  C   UNL     1       3.262  -1.303  -2.577  0.00  0.00    -0.028 A 
ATOM     19  C   UNL     1       2.709  -0.790  -1.407  0.00  0.00    +0.039 A 
ATOM     20  N   UNL     1       3.252  -0.645  -0.128  0.00  0.00    -0.286 N 
ATOM     21  C   UNL     1       2.377  -0.097   0.737  0.00  0.00    +0.212 C 
ATOM     22  O   UNL     1       2.573   0.144   1.909  0.00  0.00    -0.277 OA
ATOM     23  C   UNL     1       4.679  -1.816  -2.576  0.00  0.00    +0.046 C 
ATOM     24 CL   UNL     1       0.283  -0.927  -5.212  0.00  0.00    -0.084 Cl
ATOM     25  H   UNL     1       4.285  -0.967   0.070  0.00  0.00    +0.155 HD
ATOM     26  H   UNL     1       0.014  -1.632   0.305  0.00  0.00    -0.079 HD
ENDROOT
BRANCH   1  33
ATOM     27  C   UNL     1      -0.068   5.406   2.202  0.00  0.00    +0.046 C 
ATOM     28  C   UNL     1       0.070   4.533   3.423  0.00  0.00    -0.026 A 
ATOM     29  C   UNL     1       0.131   5.106   4.678  0.00  0.00    +0.038 A 
ATOM     30  C   UNL     1       0.263   4.306   5.799  0.00  0.00    +0.127 A 
ATOM     31  C   UNL     1       0.329   2.932   5.666  0.00  0.00    +0.034 A 
ATOM     32  C   UNL     1       0.264   2.353   4.414  0.00  0.00    +0.026 A 
ATOM     33  C   UNL     1       0.131   3.153   3.287  0.00  0.00    +0.047 A 
BRANCH  30  34
ATOM     34  N   UNL     1       0.333   4.923   7.142  0.00  0.00    +0.056 N 
ATOM     35  O   UNL     1       0.449   4.220   8.130  0.00  0.00    -0.126 OA
ATOM     36  O   UNL     1       0.275   6.134   7.260  0.00  0.00    -0.126 OA
ENDBRANCH  30  34
ENDBRANCH   1  33
TORSDOF 2
