REMARK  Name = ZINC10029632
REMARK  3 active torsions:
REMARK  status: ('A' for Active; 'I' for Inactive)
REMARK    1  A    between atoms: C_1  and  C_2
REMARK    2  A    between atoms: C_8  and  C_10
REMARK    3  A    between atoms: C_13  and  C_16
REMARK                            x       y       z     vdW  Elec       q    Type
REMARK                         _______ _______ _______ _____ _____    ______ ____
ROOT
ATOM      1  C   UNL     1       0.421  -5.045   0.252  0.00  0.00    +0.037 A 
ATOM      2  C   UNL     1       1.819  -5.033   0.247  0.00  0.00    +0.013 A 
ATOM      3  C   UNL     1       2.492  -3.848   0.156  0.00  0.00    +0.009 A 
ATOM      4  C   UNL     1       1.781  -2.644   0.068  0.00  0.00    -0.024 A 
ATOM      5  C   UNL     1       0.381  -2.657   0.079  0.00  0.00    +0.009 A 
ATOM      6  C   UNL     1      -0.290  -3.844   0.165  0.00  0.00    +0.013 A 
ENDROOT
BRANCH   1  14
ATOM      7  C   UNL     1      -5.114 -10.607   0.685  0.00  0.00    +0.053 C 
ATOM      8  C   UNL     1      -3.988  -9.609   0.607  0.00  0.00    +0.008 A 
ATOM      9  C   UNL     1      -2.648  -9.815   0.618  0.00  0.00    +0.124 A 
ATOM     10  N   UNL     1      -1.851  -8.768   0.537  0.00  0.00    -0.233 NA
ATOM     11  C   UNL     1      -2.337  -7.544   0.447  0.00  0.00    +0.165 A 
ATOM     12  S   UNL     1      -4.049  -7.828   0.481  0.00  0.00    -0.057 S 
ATOM     13  N   UNL     1      -1.653  -6.339   0.355  0.00  0.00    -0.261 N 
ATOM     14  C   UNL     1      -0.306  -6.327   0.350  0.00  0.00    +0.250 C 
ATOM     15  O   UNL     1       0.312  -7.371   0.426  0.00  0.00    -0.270 OA
ATOM     16  H   UNL     1      -2.146  -5.505   0.295  0.00  0.00    +0.157 HD
ENDBRANCH   1  14
BRANCH   4  17
ATOM     17  C   UNL     1       2.504  -1.369  -0.029  0.00  0.00    +0.028 C 
ATOM     18  C   UNL     1       1.857  -0.252  -0.444  0.00  0.00    +0.080 C 
ATOM     19  C   UNL     1       2.323   1.153  -0.476  0.00  0.00    +0.258 C 
ATOM     20  O   UNL     1       3.435   1.467  -0.097  0.00  0.00    -0.269 OA
ATOM     21  N   UNL     1       1.466   2.048  -0.938  0.00  0.00    -0.243 N 
ATOM     22  C   UNL     1       0.234   1.696  -1.357  0.00  0.00    +0.283 C 
ATOM     23  O   UNL     1      -0.644   2.408  -1.804  0.00  0.00    -0.262 OA
ATOM     24  S   UNL     1       0.205  -0.072  -1.104  0.00  0.00    -0.026 S 
ATOM     25  H   UNL     1       1.730   2.981  -0.976  0.00  0.00    +0.159 HD
ENDBRANCH   4  17
TORSDOF 2
