REMARK  Name = ZINC34997950
REMARK  11 active torsions:
REMARK  status: ('A' for Active; 'I' for Inactive)
REMARK    1  A    between atoms: C_1  and  C_2
REMARK    2  A    between atoms: N_8  and  C_9
REMARK    3  A    between atoms: C_9  and  C_10
REMARK    4  A    between atoms: C_10  and  C_11
REMARK    5  A    between atoms: C_11  and  N_12
REMARK    6  A    between atoms: N_12  and  C_13
REMARK    7  A    between atoms: N_12  and  S_22
REMARK    8  A    between atoms: C_13  and  C_14
REMARK    9  A    between atoms: C_19  and  O_20
REMARK   10  A    between atoms: O_20  and  C_21
REMARK   11  A    between atoms: S_22  and  C_25
REMARK                            x       y       z     vdW  Elec       q    Type
REMARK                         _______ _______ _______ _____ _____    ______ ____
ROOT
ATOM      1  N   UNL     1       4.860  -0.100   3.844  0.00  0.00    -0.172 NA
ENDROOT
BRANCH   1   2
ATOM      2  S   UNL     1       4.861   0.876   5.182  0.00  0.00    +0.061 S 
ATOM      3  O   UNL     1       5.992   0.504   5.956  0.00  0.00    -0.153 OA
ATOM      4  O   UNL     1       4.660   2.204   4.716  0.00  0.00    -0.153 OA
BRANCH   2   5
ATOM      5  C   UNL     1       3.439   0.456   6.134  0.00  0.00    +0.106 A 
ATOM      6  C   UNL     1       2.239   1.105   5.907  0.00  0.00    +0.029 A 
ATOM      7  C   UNL     1       1.123   0.775   6.653  0.00  0.00    +0.017 A 
ATOM      8  C   UNL     1       1.207  -0.203   7.627  0.00  0.00    +0.018 A 
ATOM      9  C   UNL     1       2.408  -0.852   7.853  0.00  0.00    +0.017 A 
ATOM     10  C   UNL     1       3.522  -0.526   7.103  0.00  0.00    +0.029 A 
ATOM     11 BR   UNL     1      -0.319  -0.654   8.649  0.00  0.00    -0.050 Br
ENDBRANCH   2   5
ENDBRANCH   1   2
BRANCH   1  12
ATOM     12  C   UNL     1       4.275   0.378   2.589  0.00  0.00    +0.108 C 
BRANCH  12  13
ATOM     13  C   UNL     1       2.840  -0.139   2.466  0.00  0.00    -0.001 C 
BRANCH  13  14
ATOM     14  C   UNL     1       2.229   0.361   1.155  0.00  0.00    -0.077 C 
BRANCH  14  21
ATOM     15  C   UNL     1       0.286   1.967  -0.082  0.00  0.00    -0.013 C 
ATOM     16  C   UNL     1       0.227   0.440  -0.161  0.00  0.00    -0.072 C 
ATOM     17  C   UNL     1      -1.234  -0.009  -0.244  0.00  0.00    -0.016 C 
ATOM     18  C   UNL     1      -1.288  -1.537  -0.323  0.00  0.00    -0.003 C 
ATOM     19  C   UNL     1      -0.568  -2.127   0.893  0.00  0.00    -0.019 C 
ATOM     20  C   UNL     1       0.868  -1.600   0.934  0.00  0.00    -0.078 C 
ATOM     21  N   UNL     1       0.851  -0.136   1.036  0.00  0.00    +0.381 N 
ATOM     22  H   UNL     1       0.326   0.138   1.853  0.00  0.00    -0.081 HD
ENDBRANCH  14  21
ENDBRANCH  13  14
ENDBRANCH  12  13
ENDBRANCH   1  12
BRANCH   1  23
ATOM     23  C   UNL     1       5.445  -1.441   3.916  0.00  0.00    +0.148 C 
BRANCH  23  24
ATOM     24  C   UNL     1       6.878  -1.390   3.453  0.00  0.00    +0.010 A 
ATOM     25  C   UNL     1       7.901  -1.310   4.378  0.00  0.00    +0.008 A 
ATOM     26  C   UNL     1       9.216  -1.262   3.953  0.00  0.00    +0.001 A 
ATOM     27  C   UNL     1       9.511  -1.295   2.603  0.00  0.00    +0.004 A 
ATOM     28  C   UNL     1       8.492  -1.376   1.674  0.00  0.00    +0.046 A 
ATOM     29  C   UNL     1       7.171  -1.429   2.097  0.00  0.00    +0.125 A 
BRANCH  29  30
ATOM     30  O   UNL     1       6.167  -1.514   1.186  0.00  0.00    -0.495 OA
ATOM     31  C   UNL     1       6.543  -1.549  -0.193  0.00  0.00    +0.277 C 
ENDBRANCH  29  30
ENDBRANCH  23  24
ENDBRANCH   1  23
TORSDOF 9
