REMARK  Name = ZINC39321704
REMARK  16 active torsions:
REMARK  status: ('A' for Active; 'I' for Inactive)
REMARK    1  A    between atoms: CG2_1  and  CB_2
REMARK    2  A    between atoms: CB_2  and  CA_4
REMARK    3  A    between atoms: CB_2  and  OG1_27
REMARK    4  A    between atoms: CA_4  and  C_6
REMARK    5  A    between atoms: CA_4  and  N_26
REMARK    6  A    between atoms: N_8  and  CA_9
REMARK    7  A    between atoms: CA_9  and  CB_11
REMARK    8  A    between atoms: CA_9  and  C_14
REMARK    9  A    between atoms: CB_11  and  CG1_12
REMARK   10  A    between atoms: CB_11  and  CG2_13
REMARK   11  A    between atoms: N_16  and  CA_17
REMARK   12  A    between atoms: CA_17  and  CB_19
REMARK   13  A    between atoms: CA_17  and  C_23
REMARK   14  A    between atoms: CB_19  and  CG_20
REMARK   15  A    between atoms: CG_20  and  CD1_21
REMARK   16  A    between atoms: CG_20  and  CD2_22
REMARK                            x       y       z     vdW  Elec       q    Type
REMARK                         _______ _______ _______ _____ _____    ______ ____
ROOT
ATOM      1  CA  VAL A   2       1.582  -3.907  -0.018  0.00  0.00    +0.161 C 
ENDROOT
BRANCH   1   4
ATOM      2  C   THR A   1       0.120  -1.983  -0.333  0.00  0.00    +0.202 C 
ATOM      3  O   THR A   1      -0.546  -2.373   0.603  0.00  0.00    -0.278 OA
ATOM      4  N   VAL A   2       1.206  -2.679  -0.723  0.00  0.00    -0.305 N 
ATOM      5  H   VAL A   2       1.739  -2.367  -1.471  0.00  0.00    +0.149 HD
BRANCH   2   6
ATOM      6  CA  THR A   1      -0.266  -0.720  -1.058  0.00  0.00    +0.041 C 
BRANCH   6   7
ATOM      7  N   THR A   1      -1.141   0.090  -0.200  0.00  0.00    +0.387 N 
ATOM      8  H1  THR A   1      -1.972  -0.436   0.025  0.00  0.00    -0.089 HD
ATOM      9  H2  THR A   1      -0.652   0.327   0.651  0.00  0.00    -0.089 HD
ATOM     10  H3  THR A   1      -1.400   0.936  -0.685  0.00  0.00    -0.089 HD
ENDBRANCH   6   7
BRANCH   6  12
ATOM     11  CG2 THR A   1      -1.399   0.204  -3.084  0.00  0.00    +0.036 C 
ATOM     12  CB  THR A   1      -1.007  -1.079  -2.348  0.00  0.00    +0.106 C 
BRANCH  12  13
ATOM     13  OG1 THR A   1      -0.156  -1.866  -3.183  0.00  0.00    -0.393 OA
ATOM     14  HG1 THR A   1       0.664  -1.422  -3.439  0.00  0.00    +0.210 HD
ENDBRANCH  12  13
ENDBRANCH   6  12
ENDBRANCH   2   6
ENDBRANCH   1   4
BRANCH   1  15
ATOM     15  C   VAL A   2       2.377  -4.793  -0.941  0.00  0.00    +0.234 C 
ATOM     16  O   VAL A   2       2.892  -4.327  -1.936  0.00  0.00    -0.274 OA
ATOM     17  N   LEU A   3       2.518  -6.104  -0.662  0.00  0.00    -0.301 N 
ATOM     18  H   LEU A   3       2.169  -6.463   0.169  0.00  0.00    +0.150 HD
BRANCH  17  19
ATOM     19  CA  LEU A   3       3.196  -6.987  -1.613  0.00  0.00    +0.186 C 
BRANCH  19  20
ATOM     20  C   LEU A   3       4.684  -6.927  -1.382  0.00  0.00    +0.376 C 
ATOM     21  O   LEU A   3       5.125  -6.361  -0.396  0.00  0.00    -0.244 OA
ATOM     22  OXT LEU A   3       5.447  -7.444  -2.180  0.00  0.00    -0.244 OA
ENDBRANCH  19  20
BRANCH  19  23
ATOM     23  CB  LEU A   3       2.707  -8.423  -1.414  0.00  0.00    +0.037 C 
BRANCH  23  24
ATOM     24  CG  LEU A   3       1.216  -8.505  -1.747  0.00  0.00    -0.015 C 
ATOM     25  CD1 LEU A   3       1.009  -8.217  -3.236  0.00  0.00    +0.007 C 
ATOM     26  CD2 LEU A   3       0.697  -9.907  -1.422  0.00  0.00    +0.007 C 
ENDBRANCH  23  24
ENDBRANCH  19  23
ENDBRANCH  17  19
ENDBRANCH   1  15
BRANCH   1  27
ATOM     27  CB  VAL A   2       2.430  -3.553   1.206  0.00  0.00    +0.012 C 
ATOM     28  CG1 VAL A   2       3.627  -2.706   0.769  0.00  0.00    +0.009 C 
ATOM     29  CG2 VAL A   2       1.581  -2.761   2.203  0.00  0.00    +0.009 C 
ENDBRANCH   1  27
TORSDOF 11
