REMARK  Name = ZINC22853723
REMARK  6 active torsions:
REMARK  status: ('A' for Active; 'I' for Inactive)
REMARK    1  A    between atoms: C_1  and  C_2
REMARK    2  A    between atoms: C_2  and  C_3
REMARK    3  A    between atoms: C_9  and  C_11
REMARK    4  A    between atoms: C_11  and  C_13
REMARK    5  A    between atoms: C_11  and  N_20
REMARK    6  A    between atoms: C_23  and  C_26
REMARK                            x       y       z     vdW  Elec       q    Type
REMARK                         _______ _______ _______ _____ _____    ______ ____
ROOT
ATOM      1  C   UNL     1      -0.013   1.086   0.008  0.00  0.00    +0.006 C 
ENDROOT
BRANCH   1   8
ATOM      2  C   UNL     1      -2.205   3.609   4.946  0.00  0.00    +0.152 A 
ATOM      3  N   UNL     1      -2.127   4.361   3.850  0.00  0.00    -0.205 NA
ATOM      4  C   UNL     1      -1.628   3.652   2.875  0.00  0.00    +0.199 A 
ATOM      5  N   UNL     1      -1.362   2.392   3.315  0.00  0.00    -0.170 N 
ATOM      6  N   UNL     1      -1.757   2.412   4.678  0.00  0.00    -0.146 NA
ATOM      7  C   UNL     1      -0.828   1.508   2.409  0.00  0.00    +0.282 A 
ATOM      8  C   UNL     1      -0.587   1.886   1.148  0.00  0.00    +0.050 A 
ATOM      9  S   UNL     1      -1.117   3.592   1.174  0.00  0.00    -0.050 S 
ATOM     10  O   UNL     1      -0.543   0.236   2.797  0.00  0.00    -0.265 OA
BRANCH   2  12
ATOM     11  C   UNL     1      -4.235   3.808   6.356  0.00  0.00    +0.012 C 
ATOM     12  C   UNL     1      -2.728   4.066   6.283  0.00  0.00    +0.075 C 
ENDBRANCH   2  12
ENDBRANCH   1   8
BRANCH   1  13
ATOM     13  C   UNL     1       1.401   1.535  -0.259  0.00  0.00    -0.056 A 
ATOM     14  C   UNL     1       1.635   2.743  -0.889  0.00  0.00    +0.004 A 
ATOM     15  C   UNL     1       2.931   3.158  -1.129  0.00  0.00    +0.020 A 
ATOM     16  C   UNL     1       3.994   2.358  -0.749  0.00  0.00    +0.041 A 
ATOM     17  C   UNL     1       3.760   1.147  -0.124  0.00  0.00    +0.020 A 
ATOM     18  C   UNL     1       2.463   0.736   0.120  0.00  0.00    +0.004 A 
ATOM     19 CL   UNL     1       5.623   2.876  -1.057  0.00  0.00    -0.084 Cl
ENDBRANCH   1  13
BRANCH   1  20
ATOM     20  N   UNL     1      -0.828   1.294  -1.196  0.00  0.00    +0.387 N 
ATOM     21  C   UNL     1      -2.233   0.945  -0.947  0.00  0.00    -0.077 C 
ATOM     22  C   UNL     1      -3.075   1.310  -2.171  0.00  0.00    -0.006 C 
ATOM     23  C   UNL     1      -2.550   0.549  -3.392  0.00  0.00    +0.071 C 
ATOM     24  C   UNL     1      -1.072   0.893  -3.600  0.00  0.00    -0.006 C 
ATOM     25  C   UNL     1      -0.288   0.540  -2.334  0.00  0.00    -0.077 C 
ATOM     26  H   UNL     1      -0.789   2.363  -1.452  0.00  0.00    -0.080 HD
BRANCH  23  27
ATOM     27  C   UNL     1      -3.337   0.948  -4.613  0.00  0.00    +0.213 C 
ATOM     28  O   UNL     1      -2.773   1.458  -5.558  0.00  0.00    -0.276 OA
ATOM     29  N   UNL     1      -4.668   0.739  -4.655  0.00  0.00    -0.329 N 
ATOM     30  H   UNL     1      -5.242   1.030  -5.547  0.00  0.00    +0.145 HD
ATOM     31  H   UNL     1      -5.179   0.276  -3.798  0.00  0.00    +0.145 HD
ENDBRANCH  23  27
ENDBRANCH   1  20
TORSDOF 5
