REMARK  Name = ZINC06149303
REMARK  13 active torsions:
REMARK  status: ('A' for Active; 'I' for Inactive)
REMARK    1  A    between atoms: C_1  and  C_2
REMARK    2  A    between atoms: C_2  and  C_3
REMARK    3  A    between atoms: C_3  and  C_4
REMARK    4  A    between atoms: C_3  and  C_5
REMARK    5  A    between atoms: C_3  and  N_6
REMARK    6  A    between atoms: C_7  and  C_11
REMARK    7  A    between atoms: C_11  and  C_13
REMARK    8  A    between atoms: C_11  and  N_69
REMARK    9  A    between atoms: C_19  and  C_25
REMARK   10  A    between atoms: C_26  and  C_27
REMARK   11  A    between atoms: C_26  and  N_69
REMARK   12  A    between atoms: C_34  and  C_35
REMARK   13  A    between atoms: C_34  and  N_69
REMARK                            x       y       z     vdW  Elec       q    Type
REMARK                         _______ _______ _______ _____ _____    ______ ____
ROOT
ATOM      1  C   UNL     1       0.585  -2.777   4.755  0.00  0.00    +0.040 C 
ENDROOT
BRANCH   1   2
ATOM      2  C   UNL     1       0.898  -2.078   3.458  0.00  0.00    +0.011 A 
ATOM      3  C   UNL     1       1.255  -2.802   2.369  0.00  0.00    +0.017 A 
ATOM      4  C   UNL     1       1.552  -2.092   1.123  0.00  0.00    -0.001 A 
ATOM      5  C   UNL     1       1.926  -2.785  -0.033  0.00  0.00    +0.010 A 
ATOM      6  C   UNL     1       2.197  -2.093  -1.179  0.00  0.00    +0.001 A 
ATOM      7  C   UNL     1       2.098  -0.709  -1.209  0.00  0.00    +0.005 A 
ATOM      8  C   UNL     1       1.738  -0.005  -0.080  0.00  0.00    -0.026 A 
ATOM      9  C   UNL     1       1.458  -0.688   1.099  0.00  0.00    +0.052 A 
ATOM     10  N   UNL     1       1.089  -0.010   2.242  0.00  0.00    -0.322 N 
ATOM     11  H   UNL     1       1.023   0.988   2.223  0.00  0.00    +0.169 HD
ATOM     12  C   UNL     1       0.818  -0.671   3.381  0.00  0.00    +0.251 A 
ATOM     13  O   UNL     1       0.495  -0.039   4.372  0.00  0.00    -0.268 OA
ATOM     14  C   UNL     1       1.643   1.498  -0.124  0.00  0.00    +0.046 C 
ENDBRANCH   1   2
BRANCH   1  16
ATOM     15  N   UNL     1      -1.862  -3.466   4.966  0.00  0.00    -0.225 N 
ATOM     16  C   UNL     1      -0.867  -2.570   5.101  0.00  0.00    +0.143 A 
ATOM     17  N   UNL     1      -1.405  -1.482   5.597  0.00  0.00    -0.115 NA
ATOM     18  N   UNL     1      -2.667  -1.697   5.750  0.00  0.00    -0.023 NA
ATOM     19  N   UNL     1      -2.945  -2.896   5.373  0.00  0.00    -0.043 NA
BRANCH  15  20
ATOM     20  C   UNL     1      -1.737  -4.833   4.454  0.00  0.00    +0.061 C 
ATOM     21  C   UNL     1      -1.115  -4.800   3.057  0.00  0.00    +0.036 C 
ATOM     22  C   UNL     1      -0.845  -5.650   5.390  0.00  0.00    +0.036 C 
BRANCH  20  24
ATOM     23  C   UNL     1      -2.993  -6.905   3.844  0.00  0.00    +0.006 C 
ATOM     24  C   UNL     1      -3.123  -5.478   4.379  0.00  0.00    +0.026 C 
ENDBRANCH  20  24
ENDBRANCH  15  20
ENDBRANCH   1  16
BRANCH   1  25
ATOM     25  N   UNL     1       1.418  -2.198   5.830  0.00  0.00    +0.397 N 
ATOM     26  H   UNL     1       1.106  -1.237   6.013  0.00  0.00    -0.079 HD
BRANCH  25  27
ATOM     27  C   UNL     1       1.272  -2.994   7.067  0.00  0.00    -0.041 C 
BRANCH  27  28
ATOM     28  C   UNL     1       0.004  -2.573   7.764  0.00  0.00    -0.064 A 
ATOM     29  C   UNL     1      -0.060  -1.349   8.402  0.00  0.00    +0.003 A 
ATOM     30  C   UNL     1      -1.224  -0.960   9.037  0.00  0.00    +0.020 A 
ATOM     31  C   UNL     1      -2.323  -1.801   9.043  0.00  0.00    +0.041 A 
ATOM     32  C   UNL     1      -2.256  -3.029   8.408  0.00  0.00    +0.020 A 
ATOM     33  C   UNL     1      -1.093  -3.414   7.769  0.00  0.00    +0.003 A 
ATOM     34 CL   UNL     1      -3.784  -1.316   9.845  0.00  0.00    -0.084 Cl
ENDBRANCH  27  28
ENDBRANCH  25  27
BRANCH  25  35
ATOM     35  C   UNL     1       2.835  -2.171   5.411  0.00  0.00    -0.001 C 
BRANCH  35  36
ATOM     36  C   UNL     1       3.598  -1.263   6.342  0.00  0.00    +0.089 A 
ATOM     37  C   UNL     1       4.309  -1.653   7.415  0.00  0.00    +0.042 A 
ATOM     38  C   UNL     1       4.853  -0.484   7.993  0.00  0.00    +0.041 A 
ATOM     39  C   UNL     1       4.442   0.551   7.239  0.00  0.00    +0.195 A 
ATOM     40  O   UNL     1       3.687   0.073   6.237  0.00  0.00    -0.470 OA
ENDBRANCH  35  36
ENDBRANCH  25  35
ENDBRANCH   1  25
TORSDOF 9
