REMARK  Name = ZINC09740942
REMARK  7 active torsions:
REMARK  status: ('A' for Active; 'I' for Inactive)
REMARK    1  A    between atoms: C_3  and  C_6
REMARK    2  A    between atoms: C_6  and  C_8
REMARK    3  A    between atoms: C_6  and  S_21
REMARK    4  A    between atoms: C_8  and  N_9
REMARK    5  A    between atoms: N_9  and  S_10
REMARK    6  A    between atoms: S_10  and  C_13
REMARK    7  A    between atoms: S_21  and  C_24
REMARK                            x       y       z     vdW  Elec       q    Type
REMARK                         _______ _______ _______ _____ _____    ______ ____
ROOT
ATOM      1  C   UNL     1      -1.250   2.203   0.020  0.00  0.00    +0.217 C 
ENDROOT
BRANCH   1   4
ATOM      2  C   UNL     1       2.086   0.638  -0.014  0.00  0.00    +0.041 A 
ATOM      3  C   UNL     1       1.254   1.781  -0.000  0.00  0.00    +0.046 A 
ATOM      4  C   UNL     1      -0.016   1.339   0.009  0.00  0.00    +0.131 A 
ATOM      5  O   UNL     1       0.002  -0.004   0.002  0.00  0.00    -0.466 OA
ATOM      6  C   UNL     1       1.274  -0.435  -0.012  0.00  0.00    +0.195 A 
ENDBRANCH   1   4
BRANCH   1   7
ATOM      7  S   UNL     1      -2.244   1.857  -1.458  0.00  0.00    +0.008 S 
ATOM      8  O   UNL     1      -2.580   0.478  -1.510  0.00  0.00    -0.169 OA
ATOM      9  O   UNL     1      -3.245   2.853  -1.618  0.00  0.00    -0.169 OA
BRANCH   7  10
ATOM     10  C   UNL     1      -1.143   2.104  -2.811  0.00  0.00    +0.089 A 
ATOM     11  C   UNL     1      -1.039   3.351  -3.398  0.00  0.00    +0.030 A 
ATOM     12  C   UNL     1      -0.172   3.547  -4.457  0.00  0.00    +0.040 A 
ATOM     13  C   UNL     1       0.584   2.490  -4.936  0.00  0.00    +0.124 A 
ATOM     14  C   UNL     1       0.474   1.240  -4.351  0.00  0.00    +0.040 A 
ATOM     15  C   UNL     1      -0.389   1.048  -3.289  0.00  0.00    +0.030 A 
ATOM     16  F   UNL     1       1.428   2.679  -5.974  0.00  0.00    -0.205 F 
ENDBRANCH   7  10
ENDBRANCH   1   7
BRANCH   1  17
ATOM     17  C   UNL     1      -2.075   1.899   1.272  0.00  0.00    +0.140 C 
BRANCH  17  18
ATOM     18  N   UNL     1      -3.275   2.740   1.283  0.00  0.00    -0.188 NA
ATOM     19  H   UNL     1      -3.335   3.507   0.693  0.00  0.00    +0.148 HD
BRANCH  18  20
ATOM     20  S   UNL     1      -4.530   2.379   2.301  0.00  0.00    +0.061 S 
ATOM     21  O   UNL     1      -5.519   3.379   2.098  0.00  0.00    -0.153 OA
ATOM     22  O   UNL     1      -4.802   0.994   2.136  0.00  0.00    -0.153 OA
BRANCH  20  23
ATOM     23  C   UNL     1      -3.939   2.583   3.949  0.00  0.00    +0.143 A 
ATOM     24  C   UNL     1      -4.468   3.572   4.756  0.00  0.00    +0.069 A 
ATOM     25  C   UNL     1      -4.007   3.729   6.051  0.00  0.00    +0.125 A 
ATOM     26  C   UNL     1      -3.007   2.902   6.535  0.00  0.00    +0.041 A 
ATOM     27  C   UNL     1      -2.474   1.916   5.727  0.00  0.00    +0.043 A 
ATOM     28  C   UNL     1      -2.939   1.756   4.433  0.00  0.00    +0.150 A 
ATOM     29  F   UNL     1      -2.418   0.792   3.642  0.00  0.00    -0.203 F 
ATOM     30  F   UNL     1      -4.528   4.693   6.842  0.00  0.00    -0.205 F 
ENDBRANCH  20  23
ENDBRANCH  18  20
ENDBRANCH  17  18
ENDBRANCH   1  17
TORSDOF 7
