REMARK  Name = ZINC12795504
REMARK  4 active torsions:
REMARK  status: ('A' for Active; 'I' for Inactive)
REMARK    1  A    between atoms: C_4  and  S_8
REMARK    2  A    between atoms: S_8  and  N_11
REMARK    3  A    between atoms: N_14  and  C_17
REMARK    4  A    between atoms: C_17  and  C_18
REMARK                            x       y       z     vdW  Elec       q    Type
REMARK                         _______ _______ _______ _____ _____    ______ ____
ROOT
ATOM      1  N   UNL     1      -4.349  -0.291  -4.148  0.00  0.00    -0.174 NA
ATOM      2  C   UNL     1      -4.462   0.598  -5.314  0.00  0.00    +0.125 C 
ATOM      3  C   UNL     1      -3.119   1.309  -5.515  0.00  0.00    +0.102 C 
ATOM      4  N   UNL     1      -2.727   1.972  -4.264  0.00  0.00    -0.296 NA
ATOM      5  C   UNL     1      -2.514   0.995  -3.188  0.00  0.00    +0.102 C 
ATOM      6  C   UNL     1      -3.832   0.271  -2.891  0.00  0.00    +0.125 C 
ENDROOT
BRANCH   1   7
ATOM      7  S   UNL     1      -4.793  -1.883  -4.247  0.00  0.00    +0.062 S 
ATOM      8  O   UNL     1      -4.538  -2.293  -5.584  0.00  0.00    -0.153 OA
ATOM      9  O   UNL     1      -4.214  -2.537  -3.126  0.00  0.00    -0.153 OA
BRANCH   7  13
ATOM     10  C   UNL     1      -9.281  -2.061  -3.672  0.00  0.00    +0.021 A 
ATOM     11  C   UNL     1      -8.468  -1.646  -2.635  0.00  0.00    +0.023 A 
ATOM     12  C   UNL     1      -7.096  -1.591  -2.810  0.00  0.00    +0.067 A 
ATOM     13  C   UNL     1      -6.539  -1.953  -4.024  0.00  0.00    +0.125 A 
ATOM     14  C   UNL     1      -7.353  -2.362  -5.063  0.00  0.00    +0.050 A 
ATOM     15  C   UNL     1      -8.724  -2.422  -4.886  0.00  0.00    +0.043 A 
ATOM     16 CL   UNL     1      -9.745  -2.944  -6.189  0.00  0.00    -0.083 Cl
ATOM     17 CL   UNL     1      -6.075  -1.070  -1.507  0.00  0.00    -0.082 Cl
ENDBRANCH   7  13
ENDBRANCH   1   7
BRANCH   4  18
ATOM     18  C   UNL     1      -1.534   2.806  -4.462  0.00  0.00    +0.123 C 
BRANCH  18  19
ATOM     19  C   UNL     1      -1.306   3.655  -3.237  0.00  0.00    +0.011 A 
ATOM     20  C   UNL     1      -1.706   4.977  -3.230  0.00  0.00    +0.046 A 
ATOM     21  C   UNL     1      -1.497   5.757  -2.105  0.00  0.00    +0.124 A 
ATOM     22  C   UNL     1      -0.887   5.213  -0.988  0.00  0.00    +0.047 A 
ATOM     23  C   UNL     1      -0.485   3.890  -0.993  0.00  0.00    +0.023 A 
ATOM     24  C   UNL     1      -0.696   3.107  -2.118  0.00  0.00    +0.133 A 
ATOM     25  O   UNL     1      -0.309   1.803  -2.134  0.00  0.00    -0.466 OA
ATOM     26  C   UNL     1       0.622   1.392  -1.129  0.00  0.00    +0.394 C 
ATOM     27  O   UNL     1       0.174   1.882   0.141  0.00  0.00    -0.339 OA
ATOM     28  C   UNL     1       0.185   3.309   0.227  0.00  0.00    +0.202 C 
ATOM     29  F   UNL     1      -1.889   7.050  -2.098  0.00  0.00    -0.205 F 
ENDBRANCH  18  19
ENDBRANCH   4  18
TORSDOF 4
