REMARK  Name = ZINC09059725
REMARK  12 active torsions:
REMARK  status: ('A' for Active; 'I' for Inactive)
REMARK    1  A    between atoms: C_1  and  O_2
REMARK    2  A    between atoms: O_2  and  C_3
REMARK    3  A    between atoms: C_6  and  C_11
REMARK    4  A    between atoms: C_8  and  O_9
REMARK    5  A    between atoms: O_9  and  C_10
REMARK    6  A    between atoms: C_16  and  C_17
REMARK    7  A    between atoms: C_20  and  O_24
REMARK    8  A    between atoms: C_22  and  O_23
REMARK    9  A    between atoms: O_24  and  C_25
REMARK   10  A    between atoms: C_25  and  C_26
REMARK   11  A    between atoms: C_26  and  N_64
REMARK   12  A    between atoms: C_29  and  C_32
REMARK                            x       y       z     vdW  Elec       q    Type
REMARK                         _______ _______ _______ _____ _____    ______ ____
ROOT
ATOM      1  C   UNL     1       1.193   1.311  -4.384  0.00  0.00    +0.044 A 
ATOM      2  C   UNL     1       1.736   0.423  -3.458  0.00  0.00    +0.017 A 
ATOM      3  C   UNL     1       1.128   0.247  -2.232  0.00  0.00    +0.046 A 
ATOM      4  C   UNL     1      -0.027   0.953  -1.919  0.00  0.00    +0.124 A 
ATOM      5  C   UNL     1      -0.577   1.834  -2.837  0.00  0.00    +0.091 A 
ATOM      6  C   UNL     1       0.030   2.021  -4.067  0.00  0.00    +0.130 A 
ENDROOT
BRANCH   1  12
ATOM      7  C   UNL     1       3.221   1.762  -5.922  0.00  0.00    +0.027 A 
ATOM      8  C   UNL     1       3.408   1.868  -7.268  0.00  0.00    +0.114 A 
ATOM      9  N   UNL     1       2.211   1.694  -7.866  0.00  0.00    -0.284 N 
ATOM     10  H   UNL     1       2.039   1.722  -8.851  0.00  0.00    +0.188 HD
ATOM     11  N   UNL     1       1.249   1.467  -6.873  0.00  0.00    -0.173 NA
ATOM     12  C   UNL     1       1.845   1.502  -5.702  0.00  0.00    +0.104 A 
BRANCH   7  16
ATOM     13  C   UNL     1       6.222   2.135  -2.925  0.00  0.00    +0.162 A 
ATOM     14  C   UNL     1       5.095   2.942  -2.883  0.00  0.00    +0.050 A 
ATOM     15  C   UNL     1       4.124   2.826  -3.857  0.00  0.00    +0.012 A 
ATOM     16  C   UNL     1       4.268   1.890  -4.879  0.00  0.00    -0.011 A 
ATOM     17  C   UNL     1       5.400   1.079  -4.922  0.00  0.00    +0.058 A 
ATOM     18  C   UNL     1       6.375   1.202  -3.947  0.00  0.00    +0.162 A 
BRANCH  13  20
ATOM     19  C   UNL     1       6.959   3.233  -0.949  0.00  0.00    +0.277 C 
ATOM     20  O   UNL     1       7.180   2.255  -1.968  0.00  0.00    -0.491 OA
ENDBRANCH  13  20
BRANCH  18  21
ATOM     21  O   UNL     1       7.480   0.411  -3.987  0.00  0.00    -0.491 OA
ATOM     22  C   UNL     1       7.571  -0.524  -5.064  0.00  0.00    +0.277 C 
ENDBRANCH  18  21
ENDBRANCH   7  16
ENDBRANCH   1  12
BRANCH   6  23
ATOM     23  O   UNL     1      -0.504   2.888  -4.966  0.00  0.00    -0.506 OA
ATOM     24  H   UNL     1      -1.150   2.486  -5.564  0.00  0.00    +0.292 HD
ENDBRANCH   6  23
BRANCH   4  25
ATOM     25  O   UNL     1      -0.622   0.774  -0.710  0.00  0.00    -0.494 OA
BRANCH  25  26
ATOM     26  C   UNL     1      -0.006  -0.153   0.186  0.00  0.00    +0.210 C 
BRANCH  26  27
ATOM     27  C   UNL     1      -0.812  -0.219   1.484  0.00  0.00    -0.037 C 
BRANCH  27  33
ATOM     28  C   UNL     1      -2.163  -1.911   0.401  0.00  0.00    -0.078 C 
ATOM     29  C   UNL     1      -3.592  -2.273  -0.010  0.00  0.00    -0.006 C 
ATOM     30  C   UNL     1      -4.448  -2.458   1.246  0.00  0.00    +0.071 C 
ATOM     31  C   UNL     1      -4.408  -1.170   2.075  0.00  0.00    -0.006 C 
ATOM     32  C   UNL     1      -2.955  -0.840   2.425  0.00  0.00    -0.078 C 
ATOM     33  N   UNL     1      -2.191  -0.651   1.173  0.00  0.00    +0.382 N 
ATOM     34  H   UNL     1      -2.649   0.075   0.610  0.00  0.00    -0.082 HD
BRANCH  30  35
ATOM     35  C   UNL     1      -5.870  -2.756   0.848  0.00  0.00    +0.213 C 
ATOM     36  O   UNL     1      -6.765  -2.013   1.192  0.00  0.00    -0.276 OA
ATOM     37  N   UNL     1      -6.148  -3.848   0.109  0.00  0.00    -0.329 N 
ATOM     38  H   UNL     1      -5.432  -4.443  -0.166  0.00  0.00    +0.145 HD
ATOM     39  H   UNL     1      -7.063  -4.040  -0.148  0.00  0.00    +0.145 HD
ENDBRANCH  30  35
ENDBRANCH  27  33
ENDBRANCH  26  27
ENDBRANCH  25  26
ENDBRANCH   4  25
TORSDOF 10
