REMARK  Name = ZINC30979417
REMARK  8 active torsions:
REMARK  status: ('A' for Active; 'I' for Inactive)
REMARK    1  A    between atoms: C_2  and  C_3
REMARK    2  A    between atoms: C_3  and  O_4
REMARK    3  A    between atoms: O_4  and  C_5
REMARK    4  A    between atoms: C_8  and  N_11
REMARK    5  A    between atoms: C_12  and  C_14
REMARK    6  A    between atoms: N_17  and  C_20
REMARK    7  A    between atoms: C_20  and  C_21
REMARK    8  A    between atoms: C_23  and  C_26
REMARK                            x       y       z     vdW  Elec       q    Type
REMARK                         _______ _______ _______ _____ _____    ______ ____
ROOT
ATOM      1  C   UNL     1       1.260   2.119  -0.161  0.00  0.00    +0.072 C 
ATOM      2  C   UNL     1       1.984   1.926   1.175  0.00  0.00    -0.006 C 
ATOM      3  C   UNL     1       3.258   2.773   1.186  0.00  0.00    -0.077 C 
ATOM      4  N   UNL     1       2.909   4.187   0.999  0.00  0.00    +0.386 N 
ATOM      5  C   UNL     1       2.255   4.405  -0.298  0.00  0.00    -0.077 C 
ATOM      6  C   UNL     1       0.951   3.607  -0.354  0.00  0.00    -0.006 C 
ATOM      7  H   UNL     1       2.192   4.463   1.786  0.00  0.00    -0.081 HD
ENDROOT
BRANCH   1   9
ATOM      8  N   UNL     1       0.002  -0.004   0.002  0.00  0.00    -0.285 N 
ATOM      9  C   UNL     1      -0.026   1.334  -0.155  0.00  0.00    +0.220 C 
ATOM     10  O   UNL     1      -1.087   1.906  -0.297  0.00  0.00    -0.275 OA
ATOM     11  H   UNL     1       0.966  -0.533   0.041  0.00  0.00    +0.155 HD
BRANCH   8  15
ATOM     12  C   UNL     1      -3.564  -2.139   0.339  0.00  0.00    +0.121 A 
ATOM     13  C   UNL     1      -2.465  -2.718  -0.280  0.00  0.00    +0.047 A 
ATOM     14  C   UNL     1      -1.284  -2.011  -0.392  0.00  0.00    +0.027 A 
ATOM     15  C   UNL     1      -1.196  -0.722   0.115  0.00  0.00    +0.034 A 
ATOM     16  C   UNL     1      -2.294  -0.146   0.740  0.00  0.00    +0.027 A 
ATOM     17  C   UNL     1      -3.476  -0.851   0.846  0.00  0.00    +0.047 A 
BRANCH  12  18
ATOM     18  O   UNL     1      -4.726  -2.836   0.450  0.00  0.00    -0.488 OA
BRANCH  18  19
ATOM     19  C   UNL     1      -5.817  -2.179   1.099  0.00  0.00    +0.256 C 
BRANCH  19  21
ATOM     20  C   UNL     1      -7.712  -3.227   2.227  0.00  0.00    +0.007 C 
ATOM     21  C   UNL     1      -7.011  -3.098   1.128  0.00  0.00    +0.006 C 
ENDBRANCH  19  21
ENDBRANCH  18  19
ENDBRANCH  12  18
ENDBRANCH   8  15
ENDBRANCH   1   9
BRANCH   4  22
ATOM     22  C   UNL     1       4.092   5.045   1.143  0.00  0.00    +0.022 C 
BRANCH  22  23
ATOM     23  C   UNL     1       4.591   4.979   2.563  0.00  0.00    +0.211 A 
ATOM     24  N   UNL     1       5.469   4.132   3.040  0.00  0.00    -0.193 NA
ATOM     25  C   UNL     1       5.605   4.448   4.348  0.00  0.00    +0.202 A 
ATOM     26  N   UNL     1       4.809   5.458   4.586  0.00  0.00    -0.056 NA
ATOM     27  O   UNL     1       4.226   5.777   3.571  0.00  0.00    -0.340 OA
BRANCH  25  28
ATOM     28  C   UNL     1       6.490   3.774   5.330  0.00  0.00    +0.023 A 
ATOM     29  C   UNL     1       7.284   2.700   4.934  0.00  0.00    +0.013 A 
ATOM     30  C   UNL     1       8.109   2.080   5.849  0.00  0.00    +0.016 A 
ATOM     31  C   UNL     1       8.142   2.517   7.162  0.00  0.00    +0.018 A 
ATOM     32  C   UNL     1       7.352   3.581   7.562  0.00  0.00    +0.016 A 
ATOM     33  C   UNL     1       6.527   4.210   6.653  0.00  0.00    +0.013 A 
ATOM     34 BR   UNL     1       9.271   1.658   8.413  0.00  0.00    -0.050 Br
ENDBRANCH  25  28
ENDBRANCH  22  23
ENDBRANCH   4  22
TORSDOF 8
