REMARK  Name = ZINC36509673
REMARK  17 active torsions:
REMARK  status: ('A' for Active; 'I' for Inactive)
REMARK    1  A    between atoms: C_1  and  C_2
REMARK    2  A    between atoms: C_2  and  C_3
REMARK    3  A    between atoms: C_3  and  C_4
REMARK    4  A    between atoms: C_4  and  C_5
REMARK    5  A    between atoms: C_5  and  C_6
REMARK    6  A    between atoms: C_6  and  N_7
REMARK    7  A    between atoms: N_7  and  C_8
REMARK    8  A    between atoms: C_8  and  C_10
REMARK    9  A    between atoms: C_8  and  C_13
REMARK   10  A    between atoms: C_11  and  C_12
REMARK   11  A    between atoms: N_15  and  C_16
REMARK   12  A    between atoms: C_16  and  C_17
REMARK   13  A    between atoms: C_17  and  C_18
REMARK   14  A    between atoms: C_18  and  C_19
REMARK   15  A    between atoms: C_20  and  C_22
REMARK   16  A    between atoms: C_22  and  C_23
REMARK   17  A    between atoms: C_23  and  C_24
REMARK                            x       y       z     vdW  Elec       q    Type
REMARK                         _______ _______ _______ _____ _____    ______ ____
ROOT
ATOM      1  N   UNL     1       2.107  -4.503  -3.811  0.00  0.00    -0.286 N 
ATOM      2  C   UNL     1       1.292  -4.423  -4.882  0.00  0.00    +0.216 C 
ATOM      3  O   UNL     1       1.730  -4.630  -5.994  0.00  0.00    -0.276 OA
ENDROOT
BRANCH   1   4
ATOM      4  C   UNL     1       1.577  -4.254  -2.468  0.00  0.00    +0.109 C 
BRANCH   4   5
ATOM      5  C   UNL     1       1.640  -2.755  -2.165  0.00  0.00    +0.019 C 
BRANCH   5   6
ATOM      6  C   UNL     1       0.973  -2.479  -0.816  0.00  0.00    +0.002 C 
BRANCH   6   7
ATOM      7  C   UNL     1       1.036  -0.981  -0.514  0.00  0.00    -0.000 C 
BRANCH   7   9
ATOM      8  C   UNL     1       0.431   0.794   1.137  0.00  0.00    +0.004 C 
ATOM      9  C   UNL     1       0.368  -0.704   0.835  0.00  0.00    -0.003 C 
ENDBRANCH   7   9
ENDBRANCH   6   7
ENDBRANCH   5   6
ENDBRANCH   4   5
ENDBRANCH   1   4
BRANCH   1  10
ATOM     10  C   UNL     1       3.521  -4.841  -3.990  0.00  0.00    +0.185 C 
BRANCH  10  11
ATOM     11  C   UNL     1       3.640  -6.257  -4.490  0.00  0.00    +0.238 C 
ATOM     12  O   UNL     1       2.648  -6.867  -4.825  0.00  0.00    -0.273 OA
ATOM     13  N   UNL     1       4.850  -6.846  -4.563  0.00  0.00    -0.314 N 
ATOM     14  H   UNL     1       5.644  -6.358  -4.295  0.00  0.00    +0.149 HD
BRANCH  13  15
ATOM     15  C   UNL     1       4.966  -8.223  -5.049  0.00  0.00    +0.104 C 
BRANCH  15  16
ATOM     16  C   UNL     1       6.436  -8.648  -5.033  0.00  0.00    +0.018 C 
BRANCH  16  17
ATOM     17  C   UNL     1       6.558 -10.086  -5.540  0.00  0.00    -0.002 C 
ATOM     18  C   UNL     1       8.027 -10.510  -5.524  0.00  0.00    +0.004 C 
ENDBRANCH  16  17
ENDBRANCH  15  16
ENDBRANCH  13  15
ENDBRANCH  10  11
BRANCH  10  19
ATOM     19  C   UNL     1       4.138  -3.901  -4.993  0.00  0.00    +0.000 C 
ATOM     20  C   UNL     1       5.078  -3.068  -4.619  0.00  0.00    -0.032 C 
ATOM     21  C   UNL     1       5.625  -3.131  -3.216  0.00  0.00    +0.035 C 
ENDBRANCH  10  19
ENDBRANCH   1  10
BRANCH   2  22
ATOM     22  C   UNL     1      -0.163  -4.076  -4.697  0.00  0.00    +0.096 C 
BRANCH  22  23
ATOM     23  C   UNL     1      -0.858  -4.051  -6.060  0.00  0.00    +0.013 C 
BRANCH  23  24
ATOM     24  C   UNL     1      -2.335  -3.699  -5.873  0.00  0.00    -0.011 C 
ATOM     25  C   UNL     1      -3.029  -4.812  -5.086  0.00  0.00    +0.003 C 
ATOM     26  C   UNL     1      -4.506  -4.460  -4.899  0.00  0.00    +0.000 C 
ATOM     27  C   UNL     1      -5.172  -4.313  -6.268  0.00  0.00    +0.000 C 
ATOM     28  C   UNL     1      -4.478  -3.199  -7.055  0.00  0.00    +0.000 C 
ATOM     29  C   UNL     1      -3.001  -3.551  -7.242  0.00  0.00    +0.003 C 
ENDBRANCH  23  24
ENDBRANCH  22  23
ENDBRANCH   2  22
TORSDOF 14
