REMARK  Name = ZINC32127086
REMARK  7 active torsions:
REMARK  status: ('A' for Active; 'I' for Inactive)
REMARK    1  A    between atoms: C_1  and  C_2
REMARK    2  A    between atoms: N_4  and  C_5
REMARK    3  A    between atoms: N_14  and  C_15
REMARK    4  A    between atoms: C_15  and  N_17
REMARK    5  A    between atoms: C_18  and  C_20
REMARK    6  A    between atoms: C_23  and  O_27
REMARK    7  A    between atoms: O_27  and  C_28
REMARK                            x       y       z     vdW  Elec       q    Type
REMARK                         _______ _______ _______ _____ _____    ______ ____
ROOT
ATOM      1  C   UNL     1      -1.293   1.913   0.092  0.00  0.00    +0.037 A 
ATOM      2  C   UNL     1      -2.409   1.093   0.236  0.00  0.00    +0.025 A 
ATOM      3  C   UNL     1      -3.669   1.643   0.318  0.00  0.00    +0.033 A 
ATOM      4  C   UNL     1      -3.828   3.028   0.257  0.00  0.00    +0.111 A 
ATOM      5  C   UNL     1      -2.702   3.853   0.111  0.00  0.00    +0.159 A 
ATOM      6  C   UNL     1      -1.439   3.290   0.034  0.00  0.00    +0.071 A 
ATOM      7  O   UNL     1      -3.163   5.125   0.082  0.00  0.00    -0.424 OA
ATOM      8  C   UNL     1      -4.501   5.090   0.203  0.00  0.00    +0.294 A 
ATOM      9  N   UNL     1      -4.911   3.853   0.307  0.00  0.00    -0.195 NA
ATOM     10  N   UNL     1      -5.325   6.199   0.215  0.00  0.00    -0.251 N 
ATOM     11  H   UNL     1      -4.892   7.206   0.121  0.00  0.00    +0.158 HD
ENDROOT
BRANCH   1  15
ATOM     12  C   UNL     1       2.339   1.383  -0.745  0.00  0.00    +0.109 C 
ATOM     13  C   UNL     1       0.933   1.924  -0.751  0.00  0.00    +0.214 C 
ATOM     14  O   UNL     1       0.655   2.882  -1.441  0.00  0.00    -0.276 OA
ATOM     15  N   UNL     1      -0.016   1.344   0.009  0.00  0.00    -0.286 N 
ATOM     16  H   UNL     1       0.212   0.422   0.566  0.00  0.00    +0.155 HD
ENDBRANCH   1  15
BRANCH  10  17
ATOM     17  C   UNL     1      -6.658   6.048   0.342  0.00  0.00    +0.144 C 
ATOM     18  S   UNL     1      -7.332   4.481   0.488  0.00  0.00    -0.018 S 
BRANCH  17  19
ATOM     19  N   UNL     1      -7.461   7.131   0.354  0.00  0.00    -0.263 N 
ATOM     20  C   UNL     1      -8.794   6.979   0.481  0.00  0.00    +0.250 C 
ATOM     21  O   UNL     1      -9.272   5.867   0.585  0.00  0.00    -0.270 OA
ATOM     22  H   UNL     1      -7.028   8.138   0.260  0.00  0.00    +0.157 HD
BRANCH  20  23
ATOM     23  C   UNL     1      -9.673   8.164   0.494  0.00  0.00    +0.038 A 
ATOM     24  C   UNL     1      -9.124   9.445   0.381  0.00  0.00    +0.017 A 
ATOM     25  C   UNL     1      -9.948  10.548   0.387  0.00  0.00    +0.047 A 
ATOM     26  C   UNL     1     -11.323  10.391   0.519  0.00  0.00    +0.134 A 
ATOM     27  C   UNL     1     -11.873   9.119   0.638  0.00  0.00    +0.060 A 
ATOM     28  C   UNL     1     -11.055   8.010   0.626  0.00  0.00    +0.032 A 
ATOM     29 BR   UNL     1     -13.744   8.912   0.816  0.00  0.00    -0.046 Br
BRANCH  26  30
ATOM     30  O   UNL     1     -12.131  11.481   0.530  0.00  0.00    -0.494 OA
ATOM     31  C   UNL     1     -11.500  12.757   0.404  0.00  0.00    +0.277 C 
ENDBRANCH  26  30
ENDBRANCH  20  23
ENDBRANCH  17  19
ENDBRANCH  10  17
TORSDOF 5
