REMARK  Name = ZINC11784040
REMARK  6 active torsions:
REMARK  status: ('A' for Active; 'I' for Inactive)
REMARK    1  A    between atoms: C_1  and  C_2
REMARK    2  A    between atoms: C_6  and  S_29
REMARK    3  A    between atoms: C_16  and  N_57
REMARK    4  A    between atoms: C_20  and  C_21
REMARK    5  A    between atoms: C_20  and  N_57
REMARK    6  A    between atoms: S_29  and  C_32
REMARK                            x       y       z     vdW  Elec       q    Type
REMARK                         _______ _______ _______ _____ _____    ______ ____
ROOT
ATOM      1  C   UNL     1       6.567   5.320  -3.373  0.00  0.00    +0.066 C 
ATOM      2  C   UNL     1       6.075   5.170  -1.957  0.00  0.00    +0.051 A 
ATOM      3  C   UNL     1       6.602   5.967  -0.923  0.00  0.00    +0.022 A 
ATOM      4  C   UNL     1       7.596   6.928  -1.158  0.00  0.00    +0.013 A 
ATOM      5  C   UNL     1       8.069   7.672  -0.119  0.00  0.00    +0.028 A 
ATOM      6  C   UNL     1       7.578   7.492   1.172  0.00  0.00    +0.090 A 
ATOM      7  C   UNL     1       6.613   6.568   1.436  0.00  0.00    +0.055 A 
ATOM      8  C   UNL     1       6.102   5.783   0.391  0.00  0.00    +0.078 A 
ATOM      9  N   UNL     1       5.149   4.865   0.595  0.00  0.00    -0.214 NA
ATOM     10  C   UNL     1       4.697   4.143  -0.411  0.00  0.00    +0.219 A 
ATOM     11  N   UNL     1       5.143   4.289  -1.658  0.00  0.00    -0.219 NA
ATOM     12  N   UNL     1       3.716   3.200  -0.164  0.00  0.00    -0.300 N 
ATOM     13  C   UNL     1       4.141   2.264   0.849  0.00  0.00    +0.108 C 
ATOM     14  C   UNL     1       3.701   0.853   0.420  0.00  0.00    +0.017 C 
ATOM     15  C   UNL     1       2.303   0.580   0.734  0.00  0.00    -0.014 C 
ATOM     16  C   UNL     1       1.353   1.550  -0.003  0.00  0.00    -0.070 C 
ATOM     17  C   UNL     1       1.370   2.879   0.705  0.00  0.00    +0.003 C 
ATOM     18  C   UNL     1       2.420   3.848   0.134  0.00  0.00    +0.106 C 
ENDROOT
BRANCH   6  19
ATOM     19  S   UNL     1       8.217   8.476   2.487  0.00  0.00    -0.006 S 
ATOM     20  O   UNL     1       8.675   9.666   1.859  0.00  0.00    -0.170 OA
ATOM     21  O   UNL     1       7.171   8.521   3.448  0.00  0.00    -0.170 OA
ATOM     22  C   UNL     1       9.623   7.531   3.136  0.00  0.00    +0.200 C 
ENDBRANCH   6  19
BRANCH  16  23
ATOM     23  N   UNL     1      -0.015   0.998   0.015  0.00  0.00    +0.384 N 
ATOM     24  H   UNL     1      -0.475   1.261   0.894  0.00  0.00    -0.085 HD
ATOM     25  H   UNL     1       0.032  -0.025  -0.054  0.00  0.00    -0.085 HD
BRANCH  23  26
ATOM     26  C   UNL     1      -0.795   1.527  -1.120  0.00  0.00    -0.046 C 
BRANCH  26  27
ATOM     27  C   UNL     1      -2.186   0.947  -1.076  0.00  0.00    -0.062 A 
ATOM     28  C   UNL     1      -2.462  -0.235  -1.738  0.00  0.00    +0.005 A 
ATOM     29  C   UNL     1      -3.735  -0.772  -1.695  0.00  0.00    +0.041 A 
ATOM     30  C   UNL     1      -4.737  -0.120  -0.998  0.00  0.00    +0.158 A 
ATOM     31  C   UNL     1      -4.462   1.068  -0.339  0.00  0.00    +0.159 A 
ATOM     32  C   UNL     1      -3.185   1.600  -0.379  0.00  0.00    +0.043 A 
ATOM     33  F   UNL     1      -5.439   1.705   0.343  0.00  0.00    -0.202 F 
ATOM     34  F   UNL     1      -5.983  -0.642  -0.960  0.00  0.00    -0.202 F 
ENDBRANCH  26  27
ENDBRANCH  23  26
ENDBRANCH  16  23
TORSDOF 4
