REMARK  Name = ZINC48752085
REMARK  12 active torsions:
REMARK  status: ('A' for Active; 'I' for Inactive)
REMARK    1  A    between atoms: C_1  and  C_2
REMARK    2  A    between atoms: C_2  and  C_3
REMARK    3  A    between atoms: C_2  and  N_4
REMARK    4  A    between atoms: C_5  and  C_7
REMARK    5  A    between atoms: C_7  and  C_8
REMARK    6  A    between atoms: C_11  and  N_14
REMARK    7  A    between atoms: C_15  and  C_17
REMARK    8  A    between atoms: N_19  and  C_20
REMARK    9  A    between atoms: C_20  and  C_21
REMARK   10  A    between atoms: C_21  and  N_26
REMARK   11  A    between atoms: N_26  and  C_27
REMARK   12  A    between atoms: N_26  and  C_28
REMARK                            x       y       z     vdW  Elec       q    Type
REMARK                         _______ _______ _______ _____ _____    ______ ____
ROOT
ATOM      1  N   UNL     1      -3.307  -7.511  -2.931  0.00  0.00    -0.278 N 
ATOM      2  C   UNL     1      -3.011  -8.561  -2.138  0.00  0.00    +0.303 C 
ATOM      3  O   UNL     1      -2.823  -8.390  -0.951  0.00  0.00    -0.265 OA
ATOM      4  H   UNL     1      -3.530  -7.656  -3.863  0.00  0.00    +0.155 HD
ENDROOT
BRANCH   1   8
ATOM      5  C   UNL     1      -3.262  -3.649  -1.375  0.00  0.00    -0.039 A 
ATOM      6  C   UNL     1      -4.163  -3.982  -2.370  0.00  0.00    +0.006 A 
ATOM      7  C   UNL     1      -4.181  -5.261  -2.888  0.00  0.00    +0.023 A 
ATOM      8  C   UNL     1      -3.292  -6.215  -2.409  0.00  0.00    +0.034 A 
ATOM      9  C   UNL     1      -2.387  -5.878  -1.410  0.00  0.00    +0.023 A 
ATOM     10  C   UNL     1      -2.372  -4.595  -0.900  0.00  0.00    +0.006 A 
BRANCH   5  11
ATOM     11  C   UNL     1      -3.246  -2.251  -0.812  0.00  0.00    +0.130 C 
BRANCH  11  13
ATOM     12  N   UNL     1      -2.122  -0.101  -1.292  0.00  0.00    -0.313 N 
ATOM     13  C   UNL     1      -2.299  -1.397  -1.615  0.00  0.00    +0.218 C 
ATOM     14  O   UNL     1      -1.697  -1.876  -2.553  0.00  0.00    -0.275 OA
ATOM     15  H   UNL     1      -2.603   0.283  -0.542  0.00  0.00    +0.149 HD
BRANCH  12  17
ATOM     16  C   UNL     1      -1.613   2.198  -1.953  0.00  0.00    +0.027 C 
ATOM     17  C   UNL     1      -1.201   0.730  -2.073  0.00  0.00    +0.067 C 
ATOM     18  C   UNL     1       0.222   0.554  -1.540  0.00  0.00    +0.027 C 
ENDBRANCH  12  17
ENDBRANCH  11  13
ENDBRANCH   5  11
ENDBRANCH   1   8
BRANCH   2  19
ATOM     19  C   UNL     1      -2.916  -9.933  -2.720  0.00  0.00    +0.299 C 
ATOM     20  O   UNL     1      -3.104 -10.103  -3.906  0.00  0.00    -0.265 OA
ATOM     21  N   UNL     1      -2.620 -10.982  -1.927  0.00  0.00    -0.309 N 
ATOM     22  H   UNL     1      -2.470 -10.846  -0.978  0.00  0.00    +0.149 HD
BRANCH  21  23
ATOM     23  C   UNL     1      -2.526 -12.328  -2.498  0.00  0.00    +0.093 C 
BRANCH  23  24
ATOM     24  C   UNL     1      -2.314 -13.345  -1.374  0.00  0.00    -0.050 C 
ATOM     25  C   UNL     1      -0.928 -13.137  -0.728  0.00  0.00    -0.010 C 
ATOM     26  C   UNL     1      -0.439 -14.571  -0.409  0.00  0.00    -0.001 C 
ATOM     27  C   UNL     1      -0.941 -15.383  -1.629  0.00  0.00    -0.001 C 
ATOM     28  C   UNL     1      -2.322 -14.773  -1.947  0.00  0.00    -0.010 C 
BRANCH  24  29
ATOM     29  N   UNL     1      -3.369 -13.203  -0.362  0.00  0.00    +0.381 N 
ATOM     30  C   UNL     1      -4.673 -13.502  -0.968  0.00  0.00    -0.096 C 
ATOM     31  C   UNL     1      -3.116 -14.138   0.743  0.00  0.00    -0.096 C 
ATOM     32  H   UNL     1      -3.371 -12.257  -0.009  0.00  0.00    -0.082 HD
ENDBRANCH  24  29
ENDBRANCH  23  24
ENDBRANCH  21  23
ENDBRANCH   2  19
TORSDOF 8
