REMARK  Name = ZINC15693264
REMARK  8 active torsions:
REMARK  status: ('A' for Active; 'I' for Inactive)
REMARK    1  A    between atoms: C_1  and  C_2
REMARK    2  A    between atoms: C_2  and  N_3
REMARK    3  A    between atoms: C_7  and  C_16
REMARK    4  A    between atoms: N_18  and  C_19
REMARK    5  A    between atoms: C_19  and  C_21
REMARK    6  A    between atoms: C_19  and  C_22
REMARK    7  A    between atoms: C_24  and  C_29
REMARK    8  A    between atoms: C_27  and  C_28
REMARK                            x       y       z     vdW  Elec       q    Type
REMARK                         _______ _______ _______ _____ _____    ______ ____
ROOT
ATOM      1  N   UNL     1      -0.018   1.461   0.010  0.00  0.00    -0.303 N 
ATOM      2  C   UNL     1      -1.231   2.137   0.019  0.00  0.00    +0.068 A 
ATOM      3  C   UNL     1      -2.421   1.411   0.033  0.00  0.00    +0.029 A 
ATOM      4  C   UNL     1      -3.630   2.065   0.048  0.00  0.00    +0.015 A 
ATOM      5  C   UNL     1      -3.672   3.463   0.056  0.00  0.00    +0.039 A 
ATOM      6  C   UNL     1      -2.485   4.195   0.048  0.00  0.00    +0.040 A 
ATOM      7  C   UNL     1      -1.266   3.534   0.033  0.00  0.00    +0.067 A 
ATOM      8  N   UNL     1      -0.084   4.272   0.026  0.00  0.00    -0.316 N 
ATOM      9  H   UNL     1      -0.118   5.242   0.032  0.00  0.00    +0.169 HD
ATOM     10  C   UNL     1       1.107   3.640   0.011  0.00  0.00    +0.314 A 
ATOM     11  O   UNL     1       2.141   4.278   0.004  0.00  0.00    -0.262 OA
ATOM     12  C   UNL     1       1.142   2.149   0.003  0.00  0.00    +0.316 A 
ATOM     13  O   UNL     1       2.204   1.560  -0.010  0.00  0.00    -0.262 OA
ENDROOT
BRANCH   5  14
ATOM     14  C   UNL     1      -4.972   4.164   0.071  0.00  0.00    +0.245 C 
ATOM     15  O   UNL     1      -5.007   5.379   0.078  0.00  0.00    -0.270 OA
ATOM     16  N   UNL     1      -6.119   3.456   0.079  0.00  0.00    -0.305 N 
ATOM     17  H   UNL     1      -6.090   2.487   0.073  0.00  0.00    +0.150 HD
BRANCH  16  18
ATOM     18  C   UNL     1      -7.408   4.151   0.094  0.00  0.00    +0.101 C 
ATOM     19  C   UNL     1      -7.784   4.497   1.536  0.00  0.00    +0.033 C 
BRANCH  18  20
ATOM     20  C   UNL     1      -8.467   3.259  -0.501  0.00  0.00    -0.024 A 
ATOM     21  C   UNL     1      -8.306   1.886  -0.479  0.00  0.00    +0.009 A 
ATOM     22  C   UNL     1      -9.277   1.068  -1.025  0.00  0.00    -0.050 A 
ATOM     23  C   UNL     1     -10.410   1.623  -1.592  0.00  0.00    +0.003 A 
ATOM     24  C   UNL     1     -10.571   2.995  -1.613  0.00  0.00    +0.004 A 
ATOM     25  C   UNL     1      -9.601   3.813  -1.064  0.00  0.00    -0.046 A 
ATOM     26  C   UNL     1      -9.779   5.310  -1.082  0.00  0.00    +0.044 C 
ATOM     27  C   UNL     1      -9.102  -0.429  -1.002  0.00  0.00    +0.044 C 
ENDBRANCH  18  20
ENDBRANCH  16  18
ENDBRANCH   5  14
BRANCH   1  29
ATOM     28  C   UNL     1       0.023  -0.522   1.442  0.00  0.00    +0.027 C 
ATOM     29  C   UNL     1       0.002  -0.004   0.002  0.00  0.00    +0.122 C 
ENDBRANCH   1  29
TORSDOF 4
