REMARK  Name = ZINC39480525
REMARK  3 active torsions:
REMARK  status: ('A' for Active; 'I' for Inactive)
REMARK    1  A    between atoms: C_1  and  N_2
REMARK    2  A    between atoms: C_6  and  S_10
REMARK    3  A    between atoms: S_10  and  C_13
REMARK                            x       y       z     vdW  Elec       q    Type
REMARK                         _______ _______ _______ _____ _____    ______ ____
ROOT
ATOM      1  C   UNL     1      -0.018   1.461   0.010  0.00  0.00    +0.137 C 
ATOM      2  N   UNL     1       0.002  -0.004   0.002  0.00  0.00    -0.285 N 
ATOM      3  C   UNL     1      -1.243  -0.585   0.005  0.00  0.00    +0.053 A 
ATOM      4  C   UNL     1      -2.254   0.125   0.624  0.00  0.00    -0.015 A 
ATOM      5  C   UNL     1      -3.563   0.034   0.328  0.00  0.00    +0.033 A 
ATOM      6  C   UNL     1      -3.936  -1.077  -0.437  0.00  0.00    +0.095 A 
ATOM      7  C   UNL     1      -2.969  -1.984  -0.838  0.00  0.00    +0.044 A 
ATOM      8  C   UNL     1      -1.617  -1.758  -0.631  0.00  0.00    +0.041 A 
ATOM      9 BR   UNL     1      -0.322  -3.012  -1.201  0.00  0.00    -0.048 Br
ATOM     10  C   UNL     1      -1.765   0.592   2.034  0.00  0.00    +0.124 C 
ATOM     11  C   UNL     1      -0.373  -0.031   1.996  0.00  0.00    +0.195 C 
ATOM     12  N   UNL     1       0.755   0.586   1.905  0.00  0.00    -0.217 NA
ATOM     13  C   UNL     1       1.753  -0.137   1.322  0.00  0.00    +0.143 A 
ATOM     14  C   UNL     1       1.257  -0.549  -0.013  0.00  0.00    +0.156 A 
ATOM     15  N   UNL     1       2.017  -1.235  -0.776  0.00  0.00    -0.218 NA
ATOM     16  C   UNL     1       3.238  -1.583  -0.381  0.00  0.00    +0.225 A 
ATOM     17  N   UNL     1       3.721  -1.244   0.799  0.00  0.00    -0.222 NA
ATOM     18  C   UNL     1       3.000  -0.523   1.677  0.00  0.00    +0.160 A 
ATOM     19 CL   UNL     1       3.654  -0.089   3.226  0.00  0.00    -0.060 Cl
ATOM     20  F   UNL     1      -0.317  -1.379   2.068  0.00  0.00    -0.188 F 
ENDROOT
BRANCH   6  21
ATOM     21  S   UNL     1      -5.622  -1.321  -0.886  0.00  0.00    +0.025 S 
ATOM     22  O   UNL     1      -5.781  -2.711  -1.132  0.00  0.00    -0.164 OA
ATOM     23  O   UNL     1      -6.403  -0.623   0.074  0.00  0.00    -0.164 OA
BRANCH  21  24
ATOM     24  C   UNL     1      -5.874  -0.505  -2.428  0.00  0.00    +0.094 A 
ATOM     25  C   UNL     1      -6.266   0.820  -2.454  0.00  0.00    +0.027 A 
ATOM     26  C   UNL     1      -6.463   1.459  -3.663  0.00  0.00    +0.002 A 
ATOM     27  C   UNL     1      -6.267   0.774  -4.848  0.00  0.00    +0.000 A 
ATOM     28  C   UNL     1      -5.874  -0.551  -4.822  0.00  0.00    +0.002 A 
ATOM     29  C   UNL     1      -5.673  -1.190  -3.613  0.00  0.00    +0.027 A 
ENDBRANCH  21  24
ENDBRANCH   6  21
TORSDOF 2
