REMARK  Name = ZINC22013986
REMARK  8 active torsions:
REMARK  status: ('A' for Active; 'I' for Inactive)
REMARK    1  A    between atoms: C_1  and  C_2
REMARK    2  A    between atoms: C_9  and  C_11
REMARK    3  A    between atoms: C_14  and  N_17
REMARK    4  A    between atoms: C_18  and  C_20
REMARK    5  A    between atoms: C_20  and  N_21
REMARK    6  A    between atoms: C_25  and  C_27
REMARK    7  A    between atoms: N_29  and  C_30
REMARK    8  A    between atoms: N_29  and  C_31
REMARK                            x       y       z     vdW  Elec       q    Type
REMARK                         _______ _______ _______ _____ _____    ______ ____
ROOT
ATOM      1  C   UNL     1      -3.587   3.108   0.086  0.00  0.00    +0.007 A 
ATOM      2  C   UNL     1      -3.501   1.933  -0.663  0.00  0.00    +0.012 A 
ATOM      3  C   UNL     1      -2.306   1.251  -0.738  0.00  0.00    +0.024 A 
ATOM      4  C   UNL     1      -1.187   1.733  -0.068  0.00  0.00    +0.033 A 
ATOM      5  C   UNL     1      -1.270   2.900   0.683  0.00  0.00    +0.024 A 
ATOM      6  C   UNL     1      -2.461   3.589   0.758  0.00  0.00    +0.012 A 
ENDROOT
BRANCH   1  15
ATOM      7  C   UNL     1     -10.361   7.060   0.571  0.00  0.00    +0.044 C 
ATOM      8  C   UNL     1      -9.224   6.109   0.300  0.00  0.00    -0.049 A 
ATOM      9  C   UNL     1      -9.420   4.991  -0.499  0.00  0.00    +0.005 A 
ATOM     10  C   UNL     1      -8.414   4.116  -0.762  0.00  0.00    +0.029 A 
ATOM     11  C   UNL     1      -7.120   4.316  -0.225  0.00  0.00    +0.079 A 
ATOM     12  C   UNL     1      -6.951   5.463   0.586  0.00  0.00    +0.040 A 
ATOM     13  C   UNL     1      -7.975   6.341   0.845  0.00  0.00    +0.020 A 
ATOM     14  S   UNL     1      -5.242   5.348   1.055  0.00  0.00    -0.067 S 
ATOM     15  C   UNL     1      -4.867   3.842   0.168  0.00  0.00    +0.109 A 
ATOM     16  N   UNL     1      -6.023   3.549  -0.388  0.00  0.00    -0.239 NA
ENDBRANCH   1  15
BRANCH   4  17
ATOM     17  N   UNL     1       0.023   1.039  -0.145  0.00  0.00    -0.287 N 
ATOM     18  C   UNL     1       1.190   1.714  -0.124  0.00  0.00    +0.201 C 
ATOM     19  O   UNL     1       1.188   2.927  -0.131  0.00  0.00    -0.278 OA
ATOM     20  H   UNL     1       0.024  -0.058  -0.224  0.00  0.00    +0.155 HD
BRANCH  18  21
ATOM     21  C   UNL     1       2.495   0.962  -0.091  0.00  0.00    +0.020 C 
BRANCH  21  22
ATOM     22  N   UNL     1       3.610   1.911  -0.210  0.00  0.00    +0.393 N 
ATOM     23  C   UNL     1       3.613   2.562  -1.538  0.00  0.00    -0.077 C 
ATOM     24  C   UNL     1       5.085   2.795  -1.924  0.00  0.00    -0.020 C 
ATOM     25  C   UNL     1       5.907   2.210  -0.753  0.00  0.00    -0.008 C 
ATOM     26  C   UNL     1       4.917   1.214  -0.099  0.00  0.00    +0.020 C 
ATOM     27  H   UNL     1       3.467   2.644   0.598  0.00  0.00    -0.080 HD
BRANCH  26  28
ATOM     28  C   UNL     1       5.274   0.981   1.347  0.00  0.00    +0.202 C 
ATOM     29  O   UNL     1       4.524   1.354   2.224  0.00  0.00    -0.277 OA
ATOM     30  N   UNL     1       6.427   0.360   1.665  0.00  0.00    -0.309 N 
ATOM     31  C   UNL     1       6.774   0.134   3.070  0.00  0.00    +0.131 C 
ATOM     32  C   UNL     1       7.333  -0.090   0.605  0.00  0.00    +0.131 C 
ENDBRANCH  26  28
ENDBRANCH  21  22
ENDBRANCH  18  21
ENDBRANCH   4  17
TORSDOF 5
