REMARK  Name = ZINC66171178
REMARK  16 active torsions:
REMARK  status: ('A' for Active; 'I' for Inactive)
REMARK    1  A    between atoms: C_1  and  C_2
REMARK    2  A    between atoms: C_2  and  C_3
REMARK    3  A    between atoms: C_3  and  C_5
REMARK    4  A    between atoms: C_3  and  C_6
REMARK    5  A    between atoms: C_11  and  O_12
REMARK    6  A    between atoms: O_12  and  C_13
REMARK    7  A    between atoms: C_13  and  C_15
REMARK    8  A    between atoms: C_13  and  C_17
REMARK    9  A    between atoms: C_15  and  C_16
REMARK   10  A    between atoms: C_17  and  N_18
REMARK   11  A    between atoms: N_18  and  C_19
REMARK   12  A    between atoms: C_22  and  O_25
REMARK   13  A    between atoms: O_25  and  C_26
REMARK   14  A    between atoms: C_26  and  C_28
REMARK   15  A    between atoms: C_26  and  C_29
REMARK   16  A    between atoms: C_29  and  C_30
REMARK                            x       y       z     vdW  Elec       q    Type
REMARK                         _______ _______ _______ _____ _____    ______ ____
ROOT
ATOM      1  C   UNL     1      -1.104  -2.657  -4.573  0.00  0.00    +0.190 C 
ENDROOT
BRANCH   1   2
ATOM      2  C   UNL     1      -0.007  -3.012  -5.579  0.00  0.00    +0.043 C 
ATOM      3  C   UNL     1       0.985  -3.980  -4.931  0.00  0.00    +0.007 C 
ENDBRANCH   1   2
BRANCH   1   4
ATOM      4  O   UNL     1      -0.532  -1.936  -3.479  0.00  0.00    -0.487 OA
BRANCH   4  10
ATOM      5  C   UNL     1       0.444  -2.032  -1.312  0.00  0.00    -0.003 A 
ATOM      6  C   UNL     1       0.797  -2.766  -0.196  0.00  0.00    +0.007 A 
ATOM      7  C   UNL     1       0.535  -4.122  -0.148  0.00  0.00    +0.001 A 
ATOM      8  C   UNL     1      -0.081  -4.748  -1.216  0.00  0.00    +0.004 A 
ATOM      9  C   UNL     1      -0.436  -4.019  -2.334  0.00  0.00    +0.046 A 
ATOM     10  C   UNL     1      -0.179  -2.657  -2.383  0.00  0.00    +0.124 A 
BRANCH   5  11
ATOM     11  C   UNL     1       0.730  -0.553  -1.365  0.00  0.00    +0.019 C 
ATOM     12  C   UNL     1       2.237  -0.321  -1.237  0.00  0.00    +0.012 C 
BRANCH  11  14
ATOM     13  C   UNL     1       0.195   1.660  -0.337  0.00  0.00    +0.004 C 
ATOM     14  C   UNL     1       0.007   0.147  -0.212  0.00  0.00    +0.004 C 
ENDBRANCH  11  14
ENDBRANCH   5  11
ENDBRANCH   4  10
ENDBRANCH   1   4
BRANCH   1  15
ATOM     15  C   UNL     1      -2.163  -1.790  -5.257  0.00  0.00    +0.146 C 
BRANCH  15  16
ATOM     16  N   UNL     1      -3.213  -1.450  -4.294  0.00  0.00    -0.340 N 
ATOM     17  H   UNL     1      -3.157  -1.773  -3.381  0.00  0.00    +0.146 HD
BRANCH  16  18
ATOM     18  C   UNL     1      -4.297  -0.658  -4.691  0.00  0.00    +0.027 A 
ATOM     19  C   UNL     1      -4.380  -0.200  -5.999  0.00  0.00    +0.026 A 
ATOM     20  C   UNL     1      -5.450   0.580  -6.390  0.00  0.00    +0.047 A 
ATOM     21  C   UNL     1      -6.441   0.907  -5.476  0.00  0.00    +0.121 A 
ATOM     22  C   UNL     1      -6.359   0.450  -4.169  0.00  0.00    +0.047 A 
ATOM     23  C   UNL     1      -5.292  -0.336  -3.778  0.00  0.00    +0.026 A 
BRANCH  21  24
ATOM     24  O   UNL     1      -7.495   1.675  -5.862  0.00  0.00    -0.489 OA
BRANCH  24  25
ATOM     25  C   UNL     1      -7.543   2.067  -7.235  0.00  0.00    +0.170 C 
ATOM     26  C   UNL     1      -8.189   0.953  -8.061  0.00  0.00    +0.052 C 
BRANCH  25  27
ATOM     27  C   UNL     1      -8.371   3.348  -7.371  0.00  0.00    +0.041 C 
ATOM     28  C   UNL     1      -7.660   4.493  -6.648  0.00  0.00    +0.007 C 
ENDBRANCH  25  27
ENDBRANCH  24  25
ENDBRANCH  21  24
ENDBRANCH  16  18
ENDBRANCH  15  16
ENDBRANCH   1  15
TORSDOF 11
