REMARK  Name = ZINC36048879
REMARK  8 active torsions:
REMARK  status: ('A' for Active; 'I' for Inactive)
REMARK    1  A    between atoms: C_1  and  C_2
REMARK    2  A    between atoms: C_3  and  C_25
REMARK    3  A    between atoms: C_4  and  C_16
REMARK    4  A    between atoms: C_7  and  C_12
REMARK    5  A    between atoms: C_19  and  C_22
REMARK    6  A    between atoms: C_22  and  C_23
REMARK    7  A    between atoms: C_22  and  C_24
REMARK    8  A    between atoms: N_27  and  C_28
REMARK                            x       y       z     vdW  Elec       q    Type
REMARK                         _______ _______ _______ _____ _____    ______ ____
ROOT
ATOM      1  C   UNL     1      -1.597   1.202   1.476  0.00  0.00    +0.066 C 
ATOM      2  C   UNL     1      -0.957  -0.037   0.905  0.00  0.00    +0.051 C 
ATOM      3  C   UNL     1      -1.743  -1.030   0.402  0.00  0.00    +0.061 C 
ATOM      4  C   UNL     1      -1.060  -2.257  -0.162  0.00  0.00    +0.148 C 
ATOM      5  N   UNL     1       0.425  -2.277  -0.119  0.00  0.00    -0.267 N 
ATOM      6  C   UNL     1       1.265  -3.261  -0.562  0.00  0.00    +0.050 C 
ATOM      7  C   UNL     1       2.703  -3.031  -0.402  0.00  0.00    +0.072 C 
ATOM      8  S   UNL     1       2.768  -1.519   0.325  0.00  0.00    -0.060 S 
ATOM      9  C   UNL     1       1.027  -1.173   0.431  0.00  0.00    +0.166 C 
ATOM     10  N   UNL     1       0.369  -0.146   0.894  0.00  0.00    -0.230 NA
ENDROOT
BRANCH   4  11
ATOM     11  C   UNL     1      -1.562  -3.459   0.596  0.00  0.00    -0.022 A 
ATOM     12  C   UNL     1      -1.192  -3.649   1.915  0.00  0.00    +0.006 A 
ATOM     13  C   UNL     1      -1.653  -4.751   2.610  0.00  0.00    +0.004 A 
ATOM     14  C   UNL     1      -2.484  -5.663   1.987  0.00  0.00    -0.045 A 
ATOM     15  C   UNL     1      -2.854  -5.473   0.669  0.00  0.00    +0.004 A 
ATOM     16  C   UNL     1      -2.397  -4.368  -0.025  0.00  0.00    +0.006 A 
BRANCH  14  17
ATOM     17  C   UNL     1      -2.985  -6.866   2.744  0.00  0.00    +0.013 C 
ATOM     18  C   UNL     1      -4.514  -6.838   2.791  0.00  0.00    +0.012 C 
ATOM     19  C   UNL     1      -2.520  -8.142   2.041  0.00  0.00    +0.012 C 
ENDBRANCH  14  17
ENDBRANCH   4  11
BRANCH   6  20
ATOM     20  C   UNL     1       0.779  -4.418  -1.133  0.00  0.00    +0.119 C 
ATOM     21  C   UNL     1       1.664  -5.477  -1.448  0.00  0.00    +0.381 C 
ATOM     22  O   UNL     1       2.980  -5.316  -1.293  0.00  0.00    -0.241 OA
ATOM     23  O   UNL     1       1.183  -6.637  -1.901  0.00  0.00    -0.241 OA
ENDBRANCH   6  20
BRANCH   3  24
ATOM     24  C   UNL     1      -3.154  -0.918   0.407  0.00  0.00    +0.248 C 
ATOM     25  O   UNL     1      -3.688   0.017   0.975  0.00  0.00    -0.270 OA
ATOM     26  N   UNL     1      -3.906  -1.846  -0.217  0.00  0.00    -0.282 N 
ATOM     27  H   UNL     1      -3.489  -2.640  -0.586  0.00  0.00    +0.155 HD
BRANCH  26  28
ATOM     28  C   UNL     1      -5.287  -1.664  -0.332  0.00  0.00    +0.034 A 
ATOM     29  C   UNL     1      -5.811  -0.387  -0.484  0.00  0.00    +0.023 A 
ATOM     30  C   UNL     1      -7.176  -0.211  -0.597  0.00  0.00    +0.002 A 
ATOM     31  C   UNL     1      -8.021  -1.305  -0.558  0.00  0.00    +0.000 A 
ATOM     32  C   UNL     1      -7.503  -2.578  -0.407  0.00  0.00    +0.002 A 
ATOM     33  C   UNL     1      -6.139  -2.762  -0.300  0.00  0.00    +0.023 A 
ENDBRANCH  26  28
ENDBRANCH   3  24
TORSDOF 5
