REMARK  Name = ZINC36670415
REMARK  5 active torsions:
REMARK  status: ('A' for Active; 'I' for Inactive)
REMARK    1  A    between atoms: C_1  and  C_2
REMARK    2  A    between atoms: C_5  and  O_9
REMARK    3  A    between atoms: C_6  and  C_8
REMARK    4  A    between atoms: O_9  and  C_10
REMARK    5  A    between atoms: C_15  and  C_16
REMARK                            x       y       z     vdW  Elec       q    Type
REMARK                         _______ _______ _______ _____ _____    ______ ____
ROOT
ATOM      1  O   UNL     1       0.058  -4.129  -0.021  0.00  0.00    -0.455 OA
ENDROOT
BRANCH   1   6
ATOM      2  C   UNL     1       0.336   1.496  -0.016  0.00  0.00    +0.044 C 
ATOM      3  C   UNL     1       0.261  -0.009  -0.018  0.00  0.00    -0.050 A 
ATOM      4  C   UNL     1       0.047  -0.688  -1.203  0.00  0.00    +0.007 A 
ATOM      5  C   UNL     1      -0.021  -2.068  -1.207  0.00  0.00    +0.047 A 
ATOM      6  C   UNL     1       0.125  -2.772  -0.020  0.00  0.00    +0.131 A 
ATOM      7  C   UNL     1       0.340  -2.088   1.168  0.00  0.00    -0.008 A 
ATOM      8  C   UNL     1       0.413  -0.708   1.165  0.00  0.00    +0.010 A 
ATOM      9  C   UNL     1       0.498  -2.849   2.459  0.00  0.00    +0.047 C 
ENDBRANCH   1   6
BRANCH   1  10
ATOM     10  C   UNL     1      -0.044  -4.760  -1.216  0.00  0.00    +0.140 A 
ATOM     11  C   UNL     1      -1.290  -5.101  -1.720  0.00  0.00    +0.062 A 
ATOM     12  C   UNL     1      -1.392  -5.744  -2.939  0.00  0.00    +0.021 A 
ATOM     13  C   UNL     1      -0.253  -6.054  -3.668  0.00  0.00    +0.016 A 
ATOM     14  C   UNL     1       0.993  -5.724  -3.184  0.00  0.00    +0.016 A 
ATOM     15  C   UNL     1       1.112  -5.067  -1.953  0.00  0.00    +0.056 A 
ATOM     16 BR   UNL     1      -3.096  -6.205  -3.618  0.00  0.00    -0.050 Br
BRANCH  15  17
ATOM     17  C   UNL     1       2.436  -4.707  -1.434  0.00  0.00    +0.262 C 
ATOM     18  O   UNL     1       3.432  -4.974  -2.074  0.00  0.00    -0.296 OA
ENDBRANCH  15  17
ENDBRANCH   1  10
TORSDOF 3
