REMARK  Name = ZINC06938670
REMARK  5 active torsions:
REMARK  status: ('A' for Active; 'I' for Inactive)
REMARK    1  A    between atoms: C_1  and  C_2
REMARK    2  A    between atoms: C_7  and  S_8
REMARK    3  A    between atoms: S_8  and  N_11
REMARK    4  A    between atoms: N_11  and  C_12
REMARK    5  A    between atoms: C_12  and  C_13
REMARK                            x       y       z     vdW  Elec       q    Type
REMARK                         _______ _______ _______ _____ _____    ______ ____
ROOT
ATOM      1  C   UNL     1      -0.499   1.402  -0.056  0.00  0.00    +0.046 C 
ATOM      2  C   UNL     1      -0.364  -0.098  -0.043  0.00  0.00    -0.022 A 
ATOM      3  C   UNL     1      -0.567  -0.817  -1.204  0.00  0.00    +0.033 A 
ATOM      4  C   UNL     1      -0.442  -2.201  -1.196  0.00  0.00    +0.066 A 
ATOM      5  C   UNL     1      -0.111  -2.860  -0.011  0.00  0.00    +0.068 A 
ATOM      6  C   UNL     1       0.091  -2.126   1.152  0.00  0.00    +0.056 A 
ATOM      7  C   UNL     1      -0.030  -0.751   1.131  0.00  0.00    +0.110 A 
ATOM      8  N   UNL     1       0.017  -4.246   0.017  0.00  0.00    -0.316 N 
ATOM      9  H   UNL     1       0.247  -4.694   0.846  0.00  0.00    +0.169 HD
ATOM     10  C   UNL     1      -0.177  -4.966  -1.106  0.00  0.00    +0.314 A 
ATOM     11  O   UNL     1      -0.067  -6.175  -1.086  0.00  0.00    -0.262 OA
ATOM     12  C   UNL     1      -0.530  -4.262  -2.373  0.00  0.00    +0.314 A 
ATOM     13  O   UNL     1      -0.709  -4.893  -3.395  0.00  0.00    -0.262 OA
ATOM     14  N   UNL     1      -0.649  -2.919  -2.371  0.00  0.00    -0.316 N 
ATOM     15  H   UNL     1      -0.878  -2.452  -3.190  0.00  0.00    +0.169 HD
ENDROOT
BRANCH   7  16
ATOM     16  S   UNL     1       0.234   0.176   2.606  0.00  0.00    +0.059 S 
ATOM     17  O   UNL     1       0.524  -0.765   3.631  0.00  0.00    -0.153 OA
ATOM     18  O   UNL     1       1.122   1.233   2.268  0.00  0.00    -0.153 OA
BRANCH  16  19
ATOM     19  N   UNL     1      -1.210   0.881   3.006  0.00  0.00    -0.185 NA
ATOM     20  H   UNL     1      -1.295   1.847   3.004  0.00  0.00    +0.148 HD
BRANCH  19  21
ATOM     21  C   UNL     1      -2.359   0.046   3.363  0.00  0.00    +0.148 C 
BRANCH  21  22
ATOM     22  C   UNL     1      -3.405   0.893   4.041  0.00  0.00    +0.005 A 
ATOM     23  C   UNL     1      -4.440   1.574   3.491  0.00  0.00    +0.012 A 
ATOM     24  C   UNL     1      -5.284   2.292   4.317  0.00  0.00    +0.008 A 
ATOM     25  C   UNL     1      -5.051   2.295   5.653  0.00  0.00    +0.045 A 
ATOM     26  S   UNL     1      -3.606   1.254   5.778  0.00  0.00    -0.100 S 
ENDBRANCH  21  22
ENDBRANCH  19  21
ENDBRANCH  16  19
ENDBRANCH   7  16
TORSDOF 4
