REMARK  Name = ZINC01669554
REMARK  9 active torsions:
REMARK  status: ('A' for Active; 'I' for Inactive)
REMARK    1  A    between atoms: C_3  and  N_21
REMARK    2  A    between atoms: C_6  and  C_7
REMARK    3  A    between atoms: C_10  and  N_13
REMARK    4  A    between atoms: C_14  and  C_16
REMARK    5  A    between atoms: C_16  and  S_17
REMARK    6  A    between atoms: S_17  and  C_18
REMARK    7  A    between atoms: C_22  and  C_24
REMARK    8  A    between atoms: C_24  and  S_25
REMARK    9  A    between atoms: S_25  and  C_26
REMARK                            x       y       z     vdW  Elec       q    Type
REMARK                         _______ _______ _______ _____ _____    ______ ____
ROOT
ATOM      1  C   UNL     1      -7.157  -0.563  -0.437  0.00  0.00    +0.010 A 
ATOM      2  C   UNL     1      -8.314  -1.307  -0.526  0.00  0.00    +0.024 A 
ATOM      3  C   UNL     1      -8.249  -2.695  -0.541  0.00  0.00    +0.033 A 
ATOM      4  C   UNL     1      -7.019  -3.337  -0.471  0.00  0.00    +0.024 A 
ATOM      5  C   UNL     1      -5.858  -2.597  -0.387  0.00  0.00    +0.010 A 
ATOM      6  C   UNL     1      -5.920  -1.204  -0.372  0.00  0.00    -0.018 A 
ENDROOT
BRANCH   6   7
ATOM      7  C   UNL     1      -4.673  -0.406  -0.282  0.00  0.00    -0.018 A 
ATOM      8  C   UNL     1      -4.736   0.987  -0.267  0.00  0.00    +0.010 A 
ATOM      9  C   UNL     1      -3.575   1.727  -0.183  0.00  0.00    +0.024 A 
ATOM     10  C   UNL     1      -2.344   1.085  -0.114  0.00  0.00    +0.033 A 
ATOM     11  C   UNL     1      -2.279  -0.303  -0.135  0.00  0.00    +0.024 A 
ATOM     12  C   UNL     1      -3.437  -1.047  -0.212  0.00  0.00    +0.010 A 
BRANCH  10  13
ATOM     13  N   UNL     1      -1.168   1.838  -0.030  0.00  0.00    -0.285 N 
ATOM     14  C   UNL     1      -0.119   1.371   0.674  0.00  0.00    +0.228 C 
ATOM     15  O   UNL     1      -0.224   0.344   1.311  0.00  0.00    -0.275 OA
ATOM     16  H   UNL     1      -1.109   2.696  -0.479  0.00  0.00    +0.155 HD
BRANCH  14  17
ATOM     17  C   UNL     1       1.188   2.122   0.667  0.00  0.00    +0.174 C 
BRANCH  17  18
ATOM     18  S   UNL     1       2.394   1.245   1.692  0.00  0.00    -0.059 S 
BRANCH  18  19
ATOM     19  C   UNL     1       3.785   2.311   1.508  0.00  0.00    +0.270 C 
ATOM     20  O   UNL     1       3.699   3.310   0.820  0.00  0.00    -0.263 OA
ATOM     21  N   UNL     1       4.944   2.020   2.131  0.00  0.00    -0.320 N 
ATOM     22  H   UNL     1       5.013   1.224   2.680  0.00  0.00    +0.146 HD
ATOM     23  H   UNL     1       5.710   2.607   2.030  0.00  0.00    +0.146 HD
ENDBRANCH  18  19
ENDBRANCH  17  18
ENDBRANCH  14  17
ENDBRANCH  10  13
ENDBRANCH   6   7
BRANCH   3  24
ATOM     24  N   UNL     1      -9.425  -3.448  -0.625  0.00  0.00    -0.285 N 
ATOM     25  C   UNL     1      -9.524  -4.619   0.034  0.00  0.00    +0.228 C 
ATOM     26  O   UNL     1      -8.567  -5.061   0.633  0.00  0.00    -0.275 OA
ATOM     27  H   UNL     1     -10.169  -3.127  -1.159  0.00  0.00    +0.155 HD
BRANCH  25  28
ATOM     28  C   UNL     1     -10.826  -5.379   0.028  0.00  0.00    +0.174 C 
BRANCH  28  29
ATOM     29  S   UNL     1     -10.641  -6.899   0.993  0.00  0.00    -0.059 S 
BRANCH  29  30
ATOM     30  C   UNL     1     -12.262  -7.569   0.821  0.00  0.00    +0.270 C 
ATOM     31  O   UNL     1     -13.101  -6.973   0.173  0.00  0.00    -0.263 OA
ATOM     32  N   UNL     1     -12.572  -8.742   1.408  0.00  0.00    -0.320 N 
ATOM     33  H   UNL     1     -11.902  -9.217   1.925  0.00  0.00    +0.146 HD
ATOM     34  H   UNL     1     -13.464  -9.111   1.313  0.00  0.00    +0.146 HD
ENDBRANCH  29  30
ENDBRANCH  28  29
ENDBRANCH  25  28
ENDBRANCH   3  24
TORSDOF 9
