REMARK  Name = ZINC36357605
REMARK  1 active torsions:
REMARK  status: ('A' for Active; 'I' for Inactive)
REMARK    1  A    between atoms: C_6  and  C_7
REMARK                            x       y       z     vdW  Elec       q    Type
REMARK                         _______ _______ _______ _____ _____    ______ ____
ROOT
ATOM      1  C   UNL     1      -1.293  -0.775   0.010  0.00  0.00    +0.068 C 
ATOM      2  C   UNL     1      -1.350  -1.679   1.250  0.00  0.00    +0.109 C 
ATOM      3  C   UNL     1      -0.506  -2.906   1.050  0.00  0.00    +0.219 C 
ATOM      4  O   UNL     1       0.118  -3.338   1.996  0.00  0.00    -0.275 OA
ATOM      5  N   UNL     1      -0.410  -3.550  -0.128  0.00  0.00    -0.270 N 
ATOM      6  C   UNL     1      -0.960  -2.939  -1.285  0.00  0.00    +0.138 A 
ATOM      7  C   UNL     1      -1.371  -1.639  -1.200  0.00  0.00    +0.041 A 
ATOM      8  S   UNL     1      -1.974  -1.316  -2.829  0.00  0.00    -0.055 S 
ATOM      9  C   UNL     1      -1.638  -2.830  -3.492  0.00  0.00    +0.163 A 
ATOM     10  N   UNL     1      -1.110  -3.495  -2.481  0.00  0.00    -0.210 NA
ATOM     11  N   UNL     1      -1.863  -3.271  -4.787  0.00  0.00    -0.305 N 
ATOM     12  C   UNL     1      -2.463  -2.383  -5.795  0.00  0.00    +0.135 C 
ATOM     13  C   UNL     1      -1.585  -2.416  -7.052  0.00  0.00    +0.179 C 
ATOM     14  O   UNL     1      -1.377  -3.774  -7.445  0.00  0.00    -0.377 OA
ATOM     15  C   UNL     1      -0.678  -4.563  -6.479  0.00  0.00    +0.179 C 
ATOM     16  C   UNL     1      -1.505  -4.638  -5.195  0.00  0.00    +0.135 C 
ATOM     17  H   UNL     1       0.028  -4.413  -0.185  0.00  0.00    +0.156 HD
ENDROOT
BRANCH   1  23
ATOM     18  C   UNL     1      -0.017   1.378   0.010  0.00  0.00    +0.007 A 
ATOM     19  C   UNL     1       1.170   2.086   0.002  0.00  0.00    +0.040 A 
ATOM     20  C   UNL     1       2.379   1.411  -0.013  0.00  0.00    +0.137 A 
ATOM     21  C   UNL     1       2.397   0.026  -0.021  0.00  0.00    +0.053 A 
ATOM     22  C   UNL     1       1.208  -0.680  -0.013  0.00  0.00    +0.022 A 
ATOM     23  C   UNL     1       0.002  -0.004   0.002  0.00  0.00    -0.038 A 
ATOM     24 BR   UNL     1       4.046  -0.899  -0.042  0.00  0.00    -0.047 Br
ATOM     25  F   UNL     1       3.539   2.103  -0.021  0.00  0.00    -0.204 F 
ENDBRANCH   1  23
TORSDOF 1
