REMARK  Name = ZINC29660988
REMARK  5 active torsions:
REMARK  status: ('A' for Active; 'I' for Inactive)
REMARK    1  A    between atoms: C_1  and  C_2
REMARK    2  A    between atoms: C_2  and  C_4
REMARK    3  A    between atoms: C_2  and  N_14
REMARK    4  A    between atoms: N_6  and  C_7
REMARK    5  A    between atoms: C_20  and  C_22
REMARK                            x       y       z     vdW  Elec       q    Type
REMARK                         _______ _______ _______ _____ _____    ______ ____
ROOT
ATOM      1  N   UNL     1       5.166  -4.470   1.293  0.00  0.00    +0.389 N 
ATOM      2  C   UNL     1       5.240  -3.920  -0.067  0.00  0.00    -0.058 C 
ATOM      3  C   UNL     1       6.570  -4.330  -0.709  0.00  0.00    +0.089 C 
ATOM      4  N   UNL     1       6.699  -5.793  -0.621  0.00  0.00    -0.301 N 
ATOM      5  C   UNL     1       6.502  -6.432   0.689  0.00  0.00    +0.089 C 
ATOM      6  C   UNL     1       5.175  -5.939   1.276  0.00  0.00    -0.058 C 
ATOM      7  C   UNL     1       6.992  -6.528  -1.712  0.00  0.00    +0.246 C 
ATOM      8  O   UNL     1       7.255  -5.977  -2.764  0.00  0.00    -0.270 OA
ATOM      9  H   UNL     1       6.062  -4.137   1.838  0.00  0.00    -0.081 HD
ENDROOT
BRANCH   7  10
ATOM     10  C   UNL     1       6.993  -8.003  -1.631  0.00  0.00    +0.037 A 
ATOM     11  C   UNL     1       6.088  -8.659  -0.793  0.00  0.00    +0.016 A 
ATOM     12  C   UNL     1       6.089 -10.036  -0.726  0.00  0.00    +0.039 A 
ATOM     13  C   UNL     1       6.994 -10.769  -1.477  0.00  0.00    +0.123 A 
ATOM     14  C   UNL     1       7.899 -10.122  -2.306  0.00  0.00    +0.039 A 
ATOM     15  C   UNL     1       7.903  -8.746  -2.386  0.00  0.00    +0.016 A 
ATOM     16  F   UNL     1       6.995 -12.118  -1.403  0.00  0.00    -0.205 F 
ENDBRANCH   7  10
BRANCH   1  18
ATOM     17  C   UNL     1       2.730  -4.648   1.470  0.00  0.00    -0.004 C 
ATOM     18  C   UNL     1       3.987  -3.959   2.005  0.00  0.00    +0.017 C 
BRANCH  18  19
ATOM     19  C   UNL     1       4.127  -4.242   3.478  0.00  0.00    +0.203 C 
ATOM     20  O   UNL     1       5.038  -4.936   3.878  0.00  0.00    -0.277 OA
ATOM     21  N   UNL     1       3.240  -3.725   4.351  0.00  0.00    -0.287 N 
ATOM     22  H   UNL     1       2.366  -3.168   3.982  0.00  0.00    +0.155 HD
BRANCH  21  23
ATOM     23  C   UNL     1       3.432  -3.895   5.727  0.00  0.00    +0.033 A 
ATOM     24  C   UNL     1       4.716  -3.904   6.255  0.00  0.00    +0.024 A 
ATOM     25  C   UNL     1       4.902  -4.073   7.613  0.00  0.00    +0.016 A 
ATOM     26  C   UNL     1       3.811  -4.234   8.447  0.00  0.00    +0.013 A 
ATOM     27  C   UNL     1       2.530  -4.226   7.924  0.00  0.00    +0.016 A 
ATOM     28  C   UNL     1       2.338  -4.057   6.567  0.00  0.00    +0.024 A 
ATOM     29  I   UNL     1       4.097  -4.490  10.506  0.00  0.00    -0.044 I 
ENDBRANCH  21  23
ENDBRANCH  18  19
ENDBRANCH   1  18
TORSDOF 4
