REMARK  Name = ZINC39502038
REMARK  4 active torsions:
REMARK  status: ('A' for Active; 'I' for Inactive)
REMARK    1  A    between atoms: C_6  and  O_10
REMARK    2  A    between atoms: O_10  and  C_11
REMARK    3  A    between atoms: C_11  and  C_12
REMARK    4  A    between atoms: N_17  and  C_18
REMARK                            x       y       z     vdW  Elec       q    Type
REMARK                         _______ _______ _______ _____ _____    ______ ____
ROOT
ATOM      1  C   UNL     1      -4.733  -0.803   0.044  0.00  0.00    +0.258 C 
ATOM      2  O   UNL     1      -4.806   0.407   0.051  0.00  0.00    -0.272 OA
ATOM      3  N   UNL     1      -5.858  -1.545   0.051  0.00  0.00    -0.237 N 
ATOM      4  C   UNL     1      -7.063  -0.942   0.066  0.00  0.00    +0.306 C 
ATOM      5  O   UNL     1      -7.136   0.271   0.073  0.00  0.00    -0.252 OA
ATOM      6  N   UNL     1      -8.188  -1.685   0.073  0.00  0.00    -0.294 N 
ATOM      7  H   UNL     1      -5.800  -2.514   0.045  0.00  0.00    +0.159 HD
ATOM      8  H   UNL     1      -8.130  -2.653   0.067  0.00  0.00    +0.151 HD
ENDROOT
BRANCH   6   9
ATOM      9  C   UNL     1      -9.498  -1.029   0.089  0.00  0.00    +0.037 C 
ATOM     10  C   UNL     1      -9.619  -0.163   1.345  0.00  0.00    +0.029 C 
ATOM     11  C   UNL     1     -10.988   0.521   1.362  0.00  0.00    -0.008 C 
ATOM     12  C   UNL     1     -12.089  -0.541   1.367  0.00  0.00    +0.007 C 
ATOM     13  C   UNL     1     -11.968  -1.407   0.111  0.00  0.00    -0.008 C 
ATOM     14  C   UNL     1     -10.600  -2.091   0.094  0.00  0.00    +0.029 C 
ATOM     15  C   UNL     1     -12.114  -0.527  -1.131  0.00  0.00    +0.007 C 
ATOM     16  C   UNL     1     -11.012   0.535  -1.136  0.00  0.00    -0.008 C 
ATOM     17  C   UNL     1     -11.133   1.401   0.119  0.00  0.00    +0.007 C 
ATOM     18  C   UNL     1      -9.644  -0.149  -1.154  0.00  0.00    +0.029 C 
ENDBRANCH   6   9
BRANCH   1  19
ATOM     19  C   UNL     1      -3.385  -1.477   0.027  0.00  0.00    +0.326 C 
BRANCH  19  20
ATOM     20  O   UNL     1      -2.357  -0.485   0.022  0.00  0.00    -0.466 OA
BRANCH  20  26
ATOM     21  C   UNL     1      -0.018   1.448   0.010  0.00  0.00    +0.023 A 
ATOM     22  C   UNL     1       1.144   2.119   0.003  0.00  0.00    +0.048 A 
ATOM     23  S   UNL     1       2.372   0.827  -0.016  0.00  0.00    -0.077 S 
ATOM     24  C   UNL     1       1.293  -0.580  -0.013  0.00  0.00    +0.115 A 
ATOM     25  C   UNL     1       0.002  -0.004   0.002  0.00  0.00    +0.069 A 
ATOM     26  C   UNL     1      -1.077  -0.927   0.007  0.00  0.00    +0.227 A 
ATOM     27  N   UNL     1      -0.817  -2.223  -0.002  0.00  0.00    -0.201 NA
ATOM     28  C   UNL     1       0.418  -2.693  -0.016  0.00  0.00    +0.226 A 
ATOM     29  N   UNL     1       1.461  -1.887  -0.023  0.00  0.00    -0.228 NA
ENDBRANCH  20  26
ENDBRANCH  19  20
ENDBRANCH   1  19
TORSDOF 4
