REMARK  Name = ZINC29395395
REMARK  5 active torsions:
REMARK  status: ('A' for Active; 'I' for Inactive)
REMARK    1  A    between atoms: C_4  and  N_19
REMARK    2  A    between atoms: C_6  and  C_7
REMARK    3  A    between atoms: C_7  and  N_8
REMARK    4  A    between atoms: N_8  and  S_9
REMARK    5  A    between atoms: S_9  and  N_12
REMARK                            x       y       z     vdW  Elec       q    Type
REMARK                         _______ _______ _______ _____ _____    ______ ____
ROOT
ATOM      1  C   UNL     1       0.758   1.880   4.161  0.00  0.00    +0.142 C 
ENDROOT
BRANCH   1   7
ATOM      2  C   UNL     1       3.151   1.798   4.936  0.00  0.00    +0.022 A 
ATOM      3  C   UNL     1       4.083   1.576   5.931  0.00  0.00    +0.084 A 
ATOM      4  N   UNL     1       3.706   1.221   7.144  0.00  0.00    -0.350 N 
ATOM      5  C   UNL     1       2.428   1.065   7.457  0.00  0.00    +0.099 A 
ATOM      6  C   UNL     1       1.436   1.278   6.505  0.00  0.00    +0.046 A 
ATOM      7  C   UNL     1       1.802   1.645   5.223  0.00  0.00    -0.027 A 
ATOM      8  H   UNL     1       4.460   1.047   7.926  0.00  0.00    +0.166 HD
BRANCH   5   9
ATOM      9  N   UNL     1       2.075   0.689   8.748  0.00  0.00    -0.317 N 
ATOM     10  C   UNL     1       1.389  -0.628   8.750  0.00  0.00    +0.106 C 
ATOM     11  C   UNL     1       1.553  -1.110  10.214  0.00  0.00    +0.020 C 
ATOM     12  C   UNL     1       2.974  -0.625  10.581  0.00  0.00    +0.020 C 
ATOM     13  C   UNL     1       3.274   0.521   9.597  0.00  0.00    +0.106 C 
ENDBRANCH   5   9
ENDBRANCH   1   7
BRANCH   1  14
ATOM     14  N   UNL     1       0.492   0.626   3.451  0.00  0.00    -0.175 NA
ATOM     15  H   UNL     1       1.262  -0.159   3.416  0.00  0.00    +0.149 HD
BRANCH  14  16
ATOM     16  S   UNL     1      -0.854   0.484   2.497  0.00  0.00    +0.097 S 
ATOM     17  O   UNL     1      -1.951   0.947   3.272  0.00  0.00    -0.141 OA
ATOM     18  O   UNL     1      -0.815  -0.819   1.933  0.00  0.00    -0.141 OA
BRANCH  16  19
ATOM     19  N   UNL     1      -0.678   1.549   1.241  0.00  0.00    -0.167 NA
ATOM     20  C   UNL     1      -0.013   1.086   0.008  0.00  0.00    +0.110 C 
ATOM     21  C   UNL     1      -0.731   1.583  -1.259  0.00  0.00    +0.017 C 
ATOM     22  C   UNL     1      -2.227   1.500  -1.074  0.00  0.00    +0.001 C 
ATOM     23  C   UNL     1      -2.742   2.827  -0.526  0.00  0.00    +0.001 C 
ATOM     24  C   UNL     1      -2.659   2.952   0.938  0.00  0.00    +0.017 C 
ATOM     25  C   UNL     1      -1.182   2.895   1.399  0.00  0.00    +0.110 C 
ENDBRANCH  16  19
ENDBRANCH  14  16
ENDBRANCH   1  14
TORSDOF 5
