REMARK  Name = ZINC16035059
REMARK  3 active torsions:
REMARK  status: ('A' for Active; 'I' for Inactive)
REMARK    1  A    between atoms: C_4  and  N_7
REMARK    2  A    between atoms: C_23  and  C_29
REMARK    3  A    between atoms: C_29  and  C_31
REMARK                            x       y       z     vdW  Elec       q    Type
REMARK                         _______ _______ _______ _____ _____    ______ ____
ROOT
ATOM      1  N   UNL     1       3.624  -0.652  -0.037  0.00  0.00    -0.210 N 
ATOM      2  C   UNL     1       3.714  -1.988   0.047  0.00  0.00    +0.232 C 
ATOM      3  O   UNL     1       2.795  -2.747   0.268  0.00  0.00    -0.274 OA
ATOM      4  C   UNL     1       5.158  -2.389  -0.179  0.00  0.00    +0.115 C 
ATOM      5  C   UNL     1       5.621  -3.325   0.939  0.00  0.00    +0.117 C 
ATOM      6  C   UNL     1       6.485  -4.435   0.398  0.00  0.00    -0.019 A 
ATOM      7  C   UNL     1       6.235  -4.989  -0.836  0.00  0.00    +0.006 A 
ATOM      8  C   UNL     1       7.045  -6.005  -1.316  0.00  0.00    +0.000 A 
ATOM      9  C   UNL     1       8.108  -6.465  -0.558  0.00  0.00    +0.001 A 
ATOM     10  C   UNL     1       8.367  -5.919   0.682  0.00  0.00    +0.008 A 
ATOM     11  C   UNL     1       7.554  -4.897   1.174  0.00  0.00    -0.019 A 
ATOM     12  C   UNL     1       7.817  -4.315   2.506  0.00  0.00    +0.023 C 
ATOM     13  C   UNL     1       7.266  -3.128   2.828  0.00  0.00    +0.072 C 
ATOM     14  N   UNL     1       6.439  -2.535   1.879  0.00  0.00    -0.317 N 
ATOM     15  C   UNL     1       6.286  -1.117   1.566  0.00  0.00    +0.157 C 
ATOM     16  C   UNL     1       5.911  -1.047   0.052  0.00  0.00    +0.118 C 
ATOM     17  C   UNL     1       4.805  -0.027  -0.145  0.00  0.00    +0.232 C 
ATOM     18  O   UNL     1       4.963   1.155  -0.361  0.00  0.00    -0.274 OA
ENDROOT
BRANCH   1  22
ATOM     19  C   UNL     1      -0.017   1.377   0.012  0.00  0.00    +0.000 A 
ATOM     20  C   UNL     1       0.301   0.558  -1.056  0.00  0.00    +0.002 A 
ATOM     21  C   UNL     1       1.507  -0.116  -1.075  0.00  0.00    +0.024 A 
ATOM     22  C   UNL     1       2.399   0.031  -0.021  0.00  0.00    +0.044 A 
ATOM     23  C   UNL     1       2.077   0.855   1.049  0.00  0.00    +0.024 A 
ATOM     24  C   UNL     1       0.869   1.525   1.062  0.00  0.00    +0.002 A 
ENDBRANCH   1  22
BRANCH  15  25
ATOM     25  C   UNL     1       7.581  -0.388   1.812  0.00  0.00    +0.184 C 
ATOM     26  O   UNL     1       8.621  -1.007   1.883  0.00  0.00    -0.290 OA
BRANCH  25  27
ATOM     27  C   UNL     1       7.584   1.075   1.966  0.00  0.00    +0.019 A 
ATOM     28  C   UNL     1       6.385   1.792   1.891  0.00  0.00    +0.012 A 
ATOM     29  C   UNL     1       6.396   3.163   2.037  0.00  0.00    +0.016 A 
ATOM     30  C   UNL     1       7.589   3.830   2.258  0.00  0.00    +0.018 A 
ATOM     31  C   UNL     1       8.780   3.127   2.334  0.00  0.00    +0.016 A 
ATOM     32  C   UNL     1       8.785   1.755   2.195  0.00  0.00    +0.012 A 
ATOM     33 BR   UNL     1       7.593   5.711   2.455  0.00  0.00    -0.050 Br
ENDBRANCH  25  27
ENDBRANCH  15  25
TORSDOF 3
