REMARK  Name = ZINC09289784
REMARK  6 active torsions:
REMARK  status: ('A' for Active; 'I' for Inactive)
REMARK    1  A    between atoms: C_1  and  C_2
REMARK    2  A    between atoms: C_4  and  N_36
REMARK    3  A    between atoms: C_5  and  O_34
REMARK    4  A    between atoms: C_7  and  N_8
REMARK    5  A    between atoms: C_27  and  C_32
REMARK    6  A    between atoms: O_34  and  C_35
REMARK                            x       y       z     vdW  Elec       q    Type
REMARK                         _______ _______ _______ _____ _____    ______ ____
ROOT
ATOM      1  N   UNL     1      -2.229   0.960   0.170  0.00  0.00    -0.210 N 
ATOM      2  C   UNL     1      -1.244   1.351  -0.682  0.00  0.00    +0.228 C 
ATOM      3  O   UNL     1      -1.386   1.817  -1.793  0.00  0.00    -0.275 OA
ATOM      4  C   UNL     1      -0.013   1.086   0.008  0.00  0.00    +0.074 C 
ATOM      5  C   UNL     1       1.431   1.392  -0.004  0.00  0.00    -0.054 C 
ATOM      6  C   UNL     1       2.156   0.698  -1.178  0.00  0.00    -0.016 C 
ATOM      7  C   UNL     1       2.501  -0.729  -0.656  0.00  0.00    -0.020 C 
ATOM      8  C   UNL     1       1.934  -0.788   0.773  0.00  0.00    -0.076 C 
ATOM      9  C   UNL     1       0.755   0.774   2.217  0.00  0.00    +0.053 C 
ATOM     10  C   UNL     1      -0.423   1.413   1.498  0.00  0.00    +0.089 C 
ATOM     11  C   UNL     1      -1.755   0.705   1.431  0.00  0.00    +0.229 C 
ATOM     12  O   UNL     1      -2.289   0.053   2.302  0.00  0.00    -0.275 OA
ATOM     13  C   UNL     1       0.388  -0.515   2.891  0.00  0.00    -0.027 A 
ATOM     14  C   UNL     1      -0.149  -1.709   2.459  0.00  0.00    +0.006 A 
ATOM     15  C   UNL     1      -0.375  -2.746   3.343  0.00  0.00    +0.020 A 
ATOM     16  C   UNL     1      -0.070  -2.584   4.684  0.00  0.00    +0.046 A 
ATOM     17  C   UNL     1       0.452  -1.388   5.132  0.00  0.00    -0.011 A 
ATOM     18  C   UNL     1       0.679  -0.341   4.243  0.00  0.00    +0.040 A 
ATOM     19  N   UNL     1       1.182   0.942   4.468  0.00  0.00    -0.286 N 
ATOM     20  C   UNL     1       1.240   1.668   3.340  0.00  0.00    +0.212 C 
ATOM     21  O   UNL     1       1.611   2.819   3.239  0.00  0.00    -0.277 OA
ATOM     22  C   UNL     1       0.779  -1.214   6.593  0.00  0.00    +0.047 C 
ATOM     23 CL   UNL     1      -0.344  -3.886   5.800  0.00  0.00    -0.083 Cl
ATOM     24  H   UNL     1       1.457   1.270   5.338  0.00  0.00    +0.155 HD
ATOM     25  N   UNL     1       1.825   0.618   1.179  0.00  0.00    +0.395 N 
ATOM     26  H   UNL     1       2.723   0.952   1.547  0.00  0.00    -0.079 HD
ENDROOT
BRANCH   1  33
ATOM     27  C   UNL     1      -3.127  -1.554  -0.812  0.00  0.00    +0.046 C 
ATOM     28  C   UNL     1      -4.056  -0.375  -0.679  0.00  0.00    -0.026 A 
ATOM     29  C   UNL     1      -5.385  -0.499  -1.038  0.00  0.00    +0.041 A 
ATOM     30  C   UNL     1      -6.239   0.580  -0.916  0.00  0.00    +0.168 A 
ATOM     31  C   UNL     1      -5.765   1.792  -0.433  0.00  0.00    +0.152 A 
ATOM     32  C   UNL     1      -4.435   1.918  -0.067  0.00  0.00    +0.072 A 
ATOM     33  C   UNL     1      -3.577   0.835  -0.195  0.00  0.00    +0.050 A 
BRANCH  30  34
ATOM     34  N   UNL     1      -7.662   0.443  -1.302  0.00  0.00    +0.060 N 
ATOM     35  O   UNL     1      -8.078  -0.620  -1.727  0.00  0.00    -0.126 OA
ATOM     36  O   UNL     1      -8.416   1.394  -1.196  0.00  0.00    -0.126 OA
ENDBRANCH  30  34
BRANCH  31  37
ATOM     37  O   UNL     1      -6.607   2.852  -0.315  0.00  0.00    -0.493 OA
ATOM     38  C   UNL     1      -6.051   4.068   0.190  0.00  0.00    +0.277 C 
ENDBRANCH  31  37
ENDBRANCH   1  33
TORSDOF 3
