REMARK  Name = ZINC43176712
REMARK  2 active torsions:
REMARK  status: ('A' for Active; 'I' for Inactive)
REMARK    1  A    between atoms: C_3  and  C_6
REMARK    2  A    between atoms: N_16  and  C_17
REMARK                            x       y       z     vdW  Elec       q    Type
REMARK                         _______ _______ _______ _____ _____    ______ ____
ROOT
ATOM      1  C   UNL     1       4.259   1.048   0.439  0.00  0.00    +0.282 C 
ATOM      2  O   UNL     1       4.784   1.949  -0.189  0.00  0.00    -0.267 OA
ATOM      3  N   UNL     1       4.859  -0.155   0.519  0.00  0.00    -0.292 N 
ATOM      4  C   UNL     1       4.144  -1.313   1.075  0.00  0.00    +0.127 C 
ATOM      5  C   UNL     1       4.169  -2.446   0.043  0.00  0.00    +0.128 C 
ATOM      6  N   UNL     1       5.551  -2.626  -0.424  0.00  0.00    -0.282 N 
ATOM      7  C   UNL     1       6.266  -1.469  -0.980  0.00  0.00    +0.128 C 
ATOM      8  C   UNL     1       6.239  -0.336   0.047  0.00  0.00    +0.127 C 
ATOM      9  C   UNL     1       6.151  -3.830  -0.344  0.00  0.00    +0.307 C 
ATOM     10  O   UNL     1       5.522  -4.799   0.035  0.00  0.00    -0.252 OA
ATOM     11  N   UNL     1       7.449  -3.960  -0.684  0.00  0.00    -0.269 N 
ATOM     12  H   UNL     1       7.928  -3.208  -1.065  0.00  0.00    +0.156 HD
ENDROOT
BRANCH  11  13
ATOM     13  C   UNL     1       8.105  -5.180  -0.487  0.00  0.00    +0.038 A 
ATOM     14  C   UNL     1       7.403  -6.373  -0.600  0.00  0.00    +0.043 A 
ATOM     15  C   UNL     1       8.054  -7.577  -0.405  0.00  0.00    +0.044 A 
ATOM     16  C   UNL     1       9.403  -7.594  -0.097  0.00  0.00    +0.040 A 
ATOM     17  C   UNL     1      10.104  -6.407   0.017  0.00  0.00    +0.044 A 
ATOM     18  C   UNL     1       9.460  -5.200  -0.183  0.00  0.00    +0.043 A 
ATOM     19 CL   UNL     1      11.796  -6.432   0.405  0.00  0.00    -0.083 Cl
ATOM     20 CL   UNL     1       7.177  -9.069  -0.545  0.00  0.00    -0.083 Cl
ENDBRANCH  11  13
BRANCH   1  23
ATOM     21  C   UNL     1       1.074   2.183   1.816  0.00  0.00    +0.042 A 
ATOM     22  C   UNL     1       2.210   2.402   1.021  0.00  0.00    +0.054 A 
ATOM     23  C   UNL     1       2.974   1.273   1.108  0.00  0.00    +0.189 A 
ATOM     24  O   UNL     1       2.338   0.400   1.917  0.00  0.00    -0.458 OA
ATOM     25  C   UNL     1       1.192   0.945   2.345  0.00  0.00    +0.196 A 
ENDBRANCH   1  23
TORSDOF 2
