REMARK  Name = ZINC25382057
REMARK  11 active torsions:
REMARK  status: ('A' for Active; 'I' for Inactive)
REMARK    1  A    between atoms: C_1  and  C_2
REMARK    2  A    between atoms: N_5  and  C_8
REMARK    3  A    between atoms: C_8  and  C_10
REMARK    4  A    between atoms: C_8  and  C_30
REMARK    5  A    between atoms: C_10  and  N_11
REMARK    6  A    between atoms: C_12  and  C_14
REMARK    7  A    between atoms: C_14  and  C_16
REMARK    8  A    between atoms: C_14  and  N_19
REMARK    9  A    between atoms: C_16  and  C_17
REMARK   10  A    between atoms: C_16  and  C_18
REMARK   11  A    between atoms: C_20  and  C_22
REMARK                            x       y       z     vdW  Elec       q    Type
REMARK                         _______ _______ _______ _____ _____    ______ ____
ROOT
ATOM      1  N   UNL     1      -3.736   1.124  -0.903  0.00  0.00    -0.315 N 
ATOM      2  C   UNL     1      -2.508   0.586  -0.763  0.00  0.00    +0.234 C 
ATOM      3  O   UNL     1      -2.329  -0.588  -1.009  0.00  0.00    -0.274 OA
ATOM      4  H   UNL     1      -3.918   2.166  -0.600  0.00  0.00    +0.149 HD
ENDROOT
BRANCH   1   5
ATOM      5  C   UNL     1      -4.828   0.322  -1.459  0.00  0.00    +0.094 C 
BRANCH   5   6
ATOM      6  C   UNL     1      -6.070   1.199  -1.629  0.00  0.00    -0.013 C 
BRANCH   6  11
ATOM      7  C   UNL     1     -10.858  -1.771  -2.591  0.00  0.00    +0.007 C 
ATOM      8  C   UNL     1      -9.795  -0.875  -1.952  0.00  0.00    -0.018 C 
ATOM      9  C   UNL     1      -9.517   0.321  -2.866  0.00  0.00    -0.015 C 
ATOM     10  C   UNL     1      -8.410   1.180  -2.251  0.00  0.00    -0.078 C 
ATOM     11  N   UNL     1      -7.194   0.372  -2.088  0.00  0.00    +0.386 N 
ATOM     12  C   UNL     1      -7.424  -0.756  -1.177  0.00  0.00    -0.078 C 
ATOM     13  C   UNL     1      -8.502  -1.673  -1.760  0.00  0.00    -0.015 C 
ATOM     14  H   UNL     1      -6.932  -0.040  -3.074  0.00  0.00    -0.081 HD
ENDBRANCH   6  11
BRANCH   6  15
ATOM     15  C   UNL     1      -5.789   2.275  -2.647  0.00  0.00    -0.022 A 
ATOM     16  C   UNL     1      -5.467   3.576  -2.446  0.00  0.00    +0.009 A 
ATOM     17  C   UNL     1      -5.247   4.389  -3.542  0.00  0.00    +0.008 A 
ATOM     18  C   UNL     1      -5.371   3.863  -4.786  0.00  0.00    +0.045 A 
ATOM     19  S   UNL     1      -5.803   2.168  -4.429  0.00  0.00    -0.103 S 
ENDBRANCH   6  15
ENDBRANCH   5   6
ENDBRANCH   1   5
BRANCH   2  20
ATOM     20  C   UNL     1      -1.358   1.443  -0.302  0.00  0.00    +0.162 C 
BRANCH  20  21
ATOM     21  N   UNL     1      -0.096   0.852  -0.753  0.00  0.00    -0.300 N 
ATOM     22  C   UNL     1       0.991   1.631  -0.924  0.00  0.00    +0.250 C 
ATOM     23  O   UNL     1       0.924   2.824  -0.700  0.00  0.00    -0.270 OA
ATOM     24  H   UNL     1      -0.035  -0.229  -0.951  0.00  0.00    +0.150 HD
BRANCH  22  25
ATOM     25  C   UNL     1       2.260   1.036  -1.385  0.00  0.00    +0.107 A 
ATOM     26  C   UNL     1       2.539   0.945  -2.752  0.00  0.00    +0.138 A 
ATOM     27  C   UNL     1       3.733   0.391  -3.175  0.00  0.00    +0.039 A 
ATOM     28  C   UNL     1       4.645  -0.083  -2.250  0.00  0.00    +0.006 A 
ATOM     29  C   UNL     1       4.375  -0.002  -0.896  0.00  0.00    +0.039 A 
ATOM     30  C   UNL     1       3.188   0.554  -0.456  0.00  0.00    +0.138 A 
ATOM     31  F   UNL     1       2.926   0.632   0.867  0.00  0.00    -0.205 F 
ATOM     32  F   UNL     1       1.647   1.402  -3.658  0.00  0.00    -0.205 F 
ENDBRANCH  22  25
ENDBRANCH  20  21
BRANCH  20  33
ATOM     33  C   UNL     1      -1.365   1.527   1.226  0.00  0.00    +0.012 C 
ATOM     34  C   UNL     1      -0.176   2.367   1.697  0.00  0.00    +0.009 C 
ATOM     35  C   UNL     1      -2.667   2.178   1.696  0.00  0.00    +0.009 C 
ENDBRANCH  20  33
ENDBRANCH   2  20
TORSDOF 8
