REMARK  Name = ZINC40703785
REMARK  6 active torsions:
REMARK  status: ('A' for Active; 'I' for Inactive)
REMARK    1  A    between atoms: C_1  and  C_2
REMARK    2  A    between atoms: C_5  and  N_9
REMARK    3  A    between atoms: C_11  and  N_28
REMARK    4  A    between atoms: C_12  and  N_16
REMARK    5  A    between atoms: N_16  and  N_17
REMARK    6  A    between atoms: C_18  and  C_20
REMARK                            x       y       z     vdW  Elec       q    Type
REMARK                         _______ _______ _______ _____ _____    ______ ____
ROOT
ATOM      1  N   UNL     1       0.059  -4.169  -0.022  0.00  0.00    -0.298 N 
ATOM      2  C   UNL     1       0.180  -4.870   1.173  0.00  0.00    +0.149 A 
ATOM      3  C   UNL     1       0.310  -6.260   1.169  0.00  0.00    +0.107 A 
ATOM      4  C   UNL     1       0.428  -6.914   2.396  0.00  0.00    +0.161 A 
ATOM      5  N   UNL     1       0.412  -6.194   3.515  0.00  0.00    -0.217 NA
ATOM      6  C   UNL     1       0.287  -4.883   3.475  0.00  0.00    +0.225 A 
ATOM      7  N   UNL     1       0.178  -4.226   2.337  0.00  0.00    -0.219 NA
ATOM      8  H   UNL     1      -0.016  -4.650  -0.861  0.00  0.00    +0.154 HD
ENDROOT
BRANCH   1  13
ATOM      9  C   UNL     1       0.011   1.503   0.012  0.00  0.00    +0.045 C 
ATOM     10  C   UNL     1       0.024  -0.004   0.003  0.00  0.00    -0.032 A 
ATOM     11  C   UNL     1       0.772  -0.693   0.940  0.00  0.00    +0.006 A 
ATOM     12  C   UNL     1       0.785  -2.074   0.934  0.00  0.00    +0.023 A 
ATOM     13  C   UNL     1       0.047  -2.772  -0.014  0.00  0.00    +0.034 A 
ATOM     14  C   UNL     1      -0.703  -2.077  -0.954  0.00  0.00    +0.043 A 
ATOM     15  C   UNL     1      -0.717  -0.695  -0.940  0.00  0.00    +0.046 A 
ATOM     16 CL   UNL     1      -1.660   0.175  -2.110  0.00  0.00    -0.083 Cl
ENDBRANCH   1  13
BRANCH   3  17
ATOM     17  N   UNL     1       0.322  -6.980  -0.036  0.00  0.00    -0.353 N 
ATOM     18  H   UNL     1       0.239  -6.512  -0.882  0.00  0.00    +0.143 HD
ATOM     19  H   UNL     1       0.413  -7.946  -0.024  0.00  0.00    +0.143 HD
ENDBRANCH   3  17
BRANCH   4  20
ATOM     20  N   UNL     1       0.560  -8.297   2.449  0.00  0.00    -0.247 N 
ATOM     21  H   UNL     1       0.571  -8.815   1.629  0.00  0.00    +0.172 HD
BRANCH  20  22
ATOM     22  N   UNL     1       0.678  -8.942   3.687  0.00  0.00    -0.231 N 
ATOM     23  C   UNL     1       0.806 -10.283   3.739  0.00  0.00    +0.262 C 
ATOM     24  O   UNL     1       0.819 -10.932   2.711  0.00  0.00    -0.269 OA
ATOM     25  H   UNL     1       0.668  -8.424   4.507  0.00  0.00    +0.173 HD
BRANCH  23  26
ATOM     26  C   UNL     1       0.930 -10.963   5.044  0.00  0.00    +0.057 A 
ATOM     27  C   UNL     1       0.910 -10.221   6.226  0.00  0.00    +0.016 A 
ATOM     28  C   UNL     1       1.026 -10.862   7.441  0.00  0.00    +0.021 A 
ATOM     29  C   UNL     1       1.162 -12.240   7.492  0.00  0.00    +0.042 A 
ATOM     30  C   UNL     1       1.184 -12.982   6.324  0.00  0.00    +0.040 A 
ATOM     31  C   UNL     1       1.063 -12.353   5.100  0.00  0.00    +0.054 A 
ATOM     32 CL   UNL     1       1.083 -13.286   3.636  0.00  0.00    -0.083 Cl
ATOM     33 CL   UNL     1       1.307 -13.039   9.026  0.00  0.00    -0.083 Cl
ENDBRANCH  23  26
ENDBRANCH  20  22
ENDBRANCH   4  20
TORSDOF 5
