REMARK  Name = ZINC39774259
REMARK  4 active torsions:
REMARK  status: ('A' for Active; 'I' for Inactive)
REMARK    1  A    between atoms: C_4  and  N_7
REMARK    2  A    between atoms: N_7  and  C_8
REMARK    3  A    between atoms: C_8  and  N_10
REMARK    4  A    between atoms: N_10  and  N_11
REMARK                            x       y       z     vdW  Elec       q    Type
REMARK                         _______ _______ _______ _____ _____    ______ ____
ROOT
ATOM      1  N   UNL     1       6.022  -1.921   0.136  0.00  0.00    -0.188 NA
ATOM      2  C   UNL     1       7.143  -2.541   0.122  0.00  0.00    +0.063 C 
ATOM      3  C   UNL     1       8.461  -1.801   0.006  0.00  0.00    +0.055 C 
ATOM      4  C   UNL     1       9.378  -2.145   1.179  0.00  0.00    +0.010 C 
ATOM      5  C   UNL     1       9.624  -3.660   1.254  0.00  0.00    +0.034 C 
ATOM      6  C   UNL     1       8.272  -4.324   1.289  0.00  0.00    -0.033 C 
ATOM      7  C   UNL     1       7.714  -5.172   2.143  0.00  0.00    +0.001 A 
ATOM      8  C   UNL     1       8.261  -5.906   3.295  0.00  0.00    +0.025 A 
ATOM      9  C   UNL     1       7.383  -6.684   3.983  0.00  0.00    +0.019 A 
ATOM     10  C   UNL     1       6.031  -6.803   3.642  0.00  0.00    +0.017 A 
ATOM     11  C   UNL     1       5.447  -6.175   2.591  0.00  0.00    +0.027 A 
ATOM     12  C   UNL     1       6.272  -5.338   1.786  0.00  0.00    +0.043 A 
ATOM     13  N   UNL     1       5.987  -4.655   0.715  0.00  0.00    -0.372 N 
ATOM     14  C   UNL     1       7.218  -4.048   0.225  0.00  0.00    +0.152 C 
ATOM     15 BR   UNL     1       8.021  -7.654   5.475  0.00  0.00    -0.050 Br
ATOM     16  H   UNL     1       5.107  -4.564   0.316  0.00  0.00    +0.161 HD
ENDROOT
BRANCH   1  17
ATOM     17  N   UNL     1       4.855  -2.574  -0.281  0.00  0.00    -0.218 N 
ATOM     18  H   UNL     1       4.908  -3.460  -0.672  0.00  0.00    +0.176 HD
BRANCH  17  19
ATOM     19  C   UNL     1       3.659  -1.970  -0.141  0.00  0.00    +0.154 C 
ATOM     20  S   UNL     1       2.232  -2.768  -0.651  0.00  0.00    -0.017 S 
BRANCH  19  21
ATOM     21  N   UNL     1       3.585  -0.739   0.402  0.00  0.00    -0.296 N 
ATOM     22  H   UNL     1       4.397  -0.253   0.615  0.00  0.00    +0.154 HD
BRANCH  21  26
ATOM     23  C   UNL     1      -0.131   0.982   1.165  0.00  0.00    +0.000 A 
ATOM     24  C   UNL     1       0.073  -0.361   1.423  0.00  0.00    +0.002 A 
ATOM     25  C   UNL     1       1.304  -0.934   1.171  0.00  0.00    +0.023 A 
ATOM     26  C   UNL     1       2.337  -0.161   0.658  0.00  0.00    +0.033 A 
ATOM     27  C   UNL     1       2.128   1.188   0.399  0.00  0.00    +0.023 A 
ATOM     28  C   UNL     1       0.895   1.755   0.653  0.00  0.00    +0.002 A 
ENDBRANCH  21  26
ENDBRANCH  19  21
ENDBRANCH  17  19
ENDBRANCH   1  17
TORSDOF 4
