REMARK  Name = ZINC17021130
REMARK  5 active torsions:
REMARK  status: ('A' for Active; 'I' for Inactive)
REMARK    1  A    between atoms: C_2  and  S_20
REMARK    2  A    between atoms: C_5  and  N_8
REMARK    3  A    between atoms: N_9  and  C_10
REMARK    4  A    between atoms: C_15  and  O_16
REMARK    5  A    between atoms: S_20  and  N_23
REMARK                            x       y       z     vdW  Elec       q    Type
REMARK                         _______ _______ _______ _____ _____    ______ ____
ROOT
ATOM      1  N   UNL     1       1.092   2.016   0.003  0.00  0.00    -0.147 NA
ATOM      2  N   UNL     1      -0.016   1.356   0.009  0.00  0.00    -0.140 NA
ENDROOT
BRANCH   2   3
ATOM      3  C   UNL     1       0.002  -0.004   0.002  0.00  0.00    +0.187 A 
ATOM      4  C   UNL     1      -1.198  -0.747   0.015  0.00  0.00    +0.152 A 
ATOM      5  N   UNL     1      -1.131  -2.073   0.002  0.00  0.00    -0.198 NA
ATOM      6  C   UNL     1       0.039  -2.696  -0.013  0.00  0.00    +0.217 A 
ATOM      7  N   UNL     1       1.189  -2.038  -0.020  0.00  0.00    -0.178 NA
ATOM      8  C   UNL     1       1.219  -0.712  -0.013  0.00  0.00    +0.247 A 
ATOM      9  N   UNL     1       0.059  -4.077  -0.021  0.00  0.00    -0.327 N 
ATOM     10  N   UNL     1      -2.421  -0.105   0.036  0.00  0.00    -0.341 N 
ATOM     11  H   UNL     1       0.906  -4.550  -0.032  0.00  0.00    +0.145 HD
ATOM     12  H   UNL     1      -0.774  -4.575  -0.016  0.00  0.00    +0.145 HD
ATOM     13  H   UNL     1      -2.460   0.864   0.042  0.00  0.00    +0.144 HD
ATOM     14  H   UNL     1      -3.240  -0.624   0.045  0.00  0.00    +0.144 HD
BRANCH   8  15
ATOM     15  O   UNL     1       2.400  -0.050  -0.021  0.00  0.00    -0.491 OA
ATOM     16  H   UNL     1       2.751   0.138   0.860  0.00  0.00    +0.294 HD
ENDBRANCH   8  15
ENDBRANCH   2   3
BRANCH   1  21
ATOM     17  C   UNL     1      -0.155   5.449   0.033  0.00  0.00    +0.046 A 
ATOM     18  C   UNL     1       1.036   6.154   0.025  0.00  0.00    +0.107 A 
ATOM     19  C   UNL     1       2.245   5.482   0.010  0.00  0.00    +0.046 A 
ATOM     20  C   UNL     1       2.272   4.102   0.002  0.00  0.00    +0.048 A 
ATOM     21  C   UNL     1       1.073   3.383   0.010  0.00  0.00    +0.114 A 
ATOM     22  C   UNL     1      -0.145   4.069   0.019  0.00  0.00    +0.048 A 
ATOM     23 BR   UNL     1      -1.774   3.109   0.021  0.00  0.00    -0.048 Br
ATOM     24 BR   UNL     1       3.927   3.186  -0.018  0.00  0.00    -0.048 Br
BRANCH  18  25
ATOM     25  S   UNL     1       1.012   7.915   0.036  0.00  0.00    +0.056 S 
ATOM     26  O   UNL     1      -0.234   8.301   0.600  0.00  0.00    -0.153 OA
ATOM     27  O   UNL     1       2.257   8.335   0.577  0.00  0.00    -0.153 OA
BRANCH  25  28
ATOM     28  N   UNL     1       0.990   8.414  -1.543  0.00  0.00    -0.204 NA
ATOM     29  H   UNL     1       0.993   7.759  -2.259  0.00  0.00    +0.144 HD
ATOM     30  H   UNL     1       0.976   9.361  -1.753  0.00  0.00    +0.144 HD
ENDBRANCH  25  28
ENDBRANCH  18  25
ENDBRANCH   1  21
TORSDOF 5
