REMARK  Name = ZINC36687566
REMARK  3 active torsions:
REMARK  status: ('A' for Active; 'I' for Inactive)
REMARK    1  A    between atoms: C_1  and  C_2
REMARK    2  A    between atoms: C_4  and  C_8
REMARK    3  A    between atoms: C_5  and  C_7
REMARK                            x       y       z     vdW  Elec       q    Type
REMARK                         _______ _______ _______ _____ _____    ______ ____
ROOT
ATOM      1  C   UNL     1      -1.364  -3.418  -0.011  0.00  0.00    +0.250 C 
ATOM      2  O   UNL     1      -0.808  -4.494  -0.126  0.00  0.00    -0.270 OA
ATOM      3  N   UNL     1      -2.707  -3.361   0.097  0.00  0.00    -0.294 N 
ATOM      4  C   UNL     1      -3.402  -2.067   0.103  0.00  0.00    +0.127 C 
ATOM      5  C   UNL     1      -4.459  -2.073  -1.009  0.00  0.00    +0.126 C 
ATOM      6  N   UNL     1      -5.253  -3.304  -0.895  0.00  0.00    -0.307 N 
ATOM      7  C   UNL     1      -4.557  -4.599  -0.901  0.00  0.00    +0.126 C 
ATOM      8  C   UNL     1      -3.501  -4.593   0.205  0.00  0.00    +0.127 C 
ATOM      9  C   UNL     1      -6.627  -3.246  -0.784  0.00  0.00    +0.162 A 
ATOM     10  N   UNL     1      -7.408  -2.190  -0.767  0.00  0.00    -0.225 NA
ATOM     11  C   UNL     1      -8.752  -2.283  -0.653  0.00  0.00    +0.080 A 
ATOM     12  C   UNL     1      -9.699  -1.235  -0.621  0.00  0.00    +0.030 A 
ATOM     13  C   UNL     1     -11.038  -1.503  -0.498  0.00  0.00    +0.017 A 
ATOM     14  C   UNL     1     -11.510  -2.805  -0.401  0.00  0.00    +0.019 A 
ATOM     15  C   UNL     1     -10.610  -3.856  -0.429  0.00  0.00    +0.032 A 
ATOM     16  C   UNL     1      -9.268  -3.595  -0.552  0.00  0.00    +0.042 A 
ATOM     17  S   UNL     1      -7.798  -4.589  -0.635  0.00  0.00    -0.052 S 
ATOM     18 BR   UNL     1     -13.363  -3.139  -0.231  0.00  0.00    -0.050 Br
ENDROOT
BRANCH   1  22
ATOM     19  C   UNL     1       0.324   1.268   1.091  0.00  0.00    +0.086 C 
ATOM     20  C   UNL     1       0.159  -0.111   0.508  0.00  0.00    +0.103 A 
ATOM     21  C   UNL     1      -0.817  -0.978   0.823  0.00  0.00    +0.057 A 
ATOM     22  C   UNL     1      -0.570  -2.177   0.009  0.00  0.00    +0.078 A 
ATOM     23  C   UNL     1       0.548  -1.901  -0.723  0.00  0.00    +0.114 A 
ATOM     24  O   UNL     1       0.960  -0.668  -0.414  0.00  0.00    -0.464 OA
ATOM     25  C   UNL     1       1.203  -2.827  -1.715  0.00  0.00    +0.087 C 
ENDBRANCH   1  22
TORSDOF 1
