REMARK  Name = ZINC35164441
REMARK  15 active torsions:
REMARK  status: ('A' for Active; 'I' for Inactive)
REMARK    1  A    between atoms: C_1  and  C_2
REMARK    2  A    between atoms: C_2  and  C_3
REMARK    3  A    between atoms: C_3  and  C_4
REMARK    4  A    between atoms: C_4  and  N_5
REMARK    5  A    between atoms: N_5  and  C_6
REMARK    6  A    between atoms: N_5  and  C_10
REMARK    7  A    between atoms: C_6  and  C_7
REMARK    8  A    between atoms: C_7  and  C_8
REMARK    9  A    between atoms: C_8  and  C_9
REMARK   10  A    between atoms: C_10  and  C_11
REMARK   11  A    between atoms: C_11  and  C_12
REMARK   12  A    between atoms: C_12  and  N_13
REMARK   13  A    between atoms: C_14  and  C_29
REMARK   14  A    between atoms: C_16  and  C_21
REMARK   15  A    between atoms: C_21  and  C_23
REMARK                            x       y       z     vdW  Elec       q    Type
REMARK                         _______ _______ _______ _____ _____    ______ ____
ROOT
ATOM      1  N   UNL     1      -0.902  -4.820   3.893  0.00  0.00    -0.284 N 
ATOM      2  C   UNL     1       0.511  -5.207   3.810  0.00  0.00    +0.146 C 
ATOM      3  C   UNL     1       0.742  -6.200   4.924  0.00  0.00    +0.076 C 
ATOM      4  C   UNL     1      -0.440  -6.349   5.566  0.00  0.00    +0.249 C 
ATOM      5  C   UNL     1      -1.453  -5.485   4.924  0.00  0.00    +0.288 C 
ATOM      6  O   UNL     1      -2.613  -5.392   5.274  0.00  0.00    -0.266 OA
ATOM      7  O   UNL     1      -0.658  -7.156   6.630  0.00  0.00    -0.282 OA
ENDROOT
BRANCH   2   8
ATOM      8  C   UNL     1       1.391  -3.998   4.000  0.00  0.00    -0.004 A 
ATOM      9  C   UNL     1       1.019  -3.005   4.888  0.00  0.00    +0.007 A 
ATOM     10  C   UNL     1       1.826  -1.897   5.063  0.00  0.00    +0.000 A 
ATOM     11  C   UNL     1       3.005  -1.780   4.351  0.00  0.00    +0.001 A 
ATOM     12  C   UNL     1       3.378  -2.772   3.464  0.00  0.00    +0.020 A 
ATOM     13  C   UNL     1       2.574  -3.885   3.292  0.00  0.00    +0.046 A 
ATOM     14 CL   UNL     1       3.045  -5.134   2.183  0.00  0.00    -0.083 Cl
ENDBRANCH   2   8
BRANCH   3  15
ATOM     15  C   UNL     1       2.004  -6.873   5.248  0.00  0.00    +0.195 C 
ATOM     16  O   UNL     1       2.605  -6.582   6.265  0.00  0.00    -0.287 OA
BRANCH  15  17
ATOM     17  C   UNL     1       2.545  -7.906   4.339  0.00  0.00    +0.022 A 
ATOM     18  C   UNL     1       1.798  -8.333   3.239  0.00  0.00    +0.012 A 
ATOM     19  C   UNL     1       2.310  -9.297   2.395  0.00  0.00    +0.001 A 
ATOM     20  C   UNL     1       3.560  -9.840   2.636  0.00  0.00    +0.000 A 
ATOM     21  C   UNL     1       4.305  -9.421   3.724  0.00  0.00    +0.001 A 
ATOM     22  C   UNL     1       3.808  -8.454   4.573  0.00  0.00    +0.012 A 
ENDBRANCH  15  17
ENDBRANCH   3  15
BRANCH   1  23
ATOM     23  C   UNL     1      -1.590  -3.872   3.012  0.00  0.00    +0.107 C 
BRANCH  23  24
ATOM     24  C   UNL     1      -1.526  -2.471   3.622  0.00  0.00    +0.000 C 
BRANCH  24  25
ATOM     25  C   UNL     1      -2.357  -1.507   2.772  0.00  0.00    -0.077 C 
BRANCH  25  26
ATOM     26  N   UNL     1      -2.295  -0.161   3.358  0.00  0.00    +0.380 N 
ATOM     27  H   UNL     1      -2.586  -0.200   4.323  0.00  0.00    -0.082 HD
BRANCH  26  28
ATOM     28  C   UNL     1      -0.917   0.344   3.282  0.00  0.00    -0.079 C 
BRANCH  28  29
ATOM     29  C   UNL     1      -0.826   1.688   4.007  0.00  0.00    -0.019 C 
BRANCH  29  31
ATOM     30  C   UNL     1       0.725   3.488   4.779  0.00  0.00    +0.004 C 
ATOM     31  C   UNL     1       0.634   2.143   4.055  0.00  0.00    -0.005 C 
ENDBRANCH  29  31
ENDBRANCH  28  29
ENDBRANCH  26  28
BRANCH  26  32
ATOM     32  C   UNL     1      -3.187   0.738   2.613  0.00  0.00    -0.079 C 
BRANCH  32  33
ATOM     33  C   UNL     1      -4.637   0.289   2.802  0.00  0.00    -0.019 C 
BRANCH  33  34
ATOM     34  C   UNL     1      -5.576   1.313   2.161  0.00  0.00    -0.005 C 
ATOM     35  C   UNL     1      -7.026   0.864   2.350  0.00  0.00    +0.004 C 
ENDBRANCH  33  34
ENDBRANCH  32  33
ENDBRANCH  26  32
ENDBRANCH  25  26
ENDBRANCH  24  25
ENDBRANCH  23  24
ENDBRANCH   1  23
TORSDOF 13
