REMARK  Name = ZINC19641657
REMARK  7 active torsions:
REMARK  status: ('A' for Active; 'I' for Inactive)
REMARK    1  A    between atoms: C_1  and  C_2
REMARK    2  A    between atoms: C_3  and  C_33
REMARK    3  A    between atoms: C_5  and  C_30
REMARK    4  A    between atoms: C_7  and  C_10
REMARK    5  A    between atoms: N_12  and  C_13
REMARK    6  A    between atoms: C_14  and  C_22
REMARK    7  A    between atoms: N_24  and  C_25
REMARK                            x       y       z     vdW  Elec       q    Type
REMARK                         _______ _______ _______ _____ _____    ______ ____
ROOT
ATOM      1  C   UNL     1      -1.027   3.910   0.944  0.00  0.00    +0.084 A 
ATOM      2  C   UNL     1       0.215   3.456   1.364  0.00  0.00    +0.069 A 
ATOM      3  C   UNL     1       0.403   2.020   1.475  0.00  0.00    -0.023 A 
ATOM      4  C   UNL     1      -0.674   1.272   1.149  0.00  0.00    -0.004 A 
ATOM      5  S   UNL     1      -1.919   2.446   0.696  0.00  0.00    -0.077 S 
ATOM      6  C   UNL     1      -0.774  -0.222   1.166  0.00  0.00    +0.043 C 
ATOM      7  C   UNL     1       0.645  -0.802   1.251  0.00  0.00    +0.005 C 
ATOM      8  C   UNL     1       1.412  -0.070   2.356  0.00  0.00    +0.005 C 
ATOM      9  C   UNL     1       1.705   1.367   1.922  0.00  0.00    +0.037 C 
ENDROOT
BRANCH   1  12
ATOM     10  C   UNL     1      -2.706   5.468   0.343  0.00  0.00    +0.222 C 
ATOM     11  O   UNL     1      -3.467   4.549   0.127  0.00  0.00    -0.275 OA
ATOM     12  N   UNL     1      -1.450   5.218   0.761  0.00  0.00    -0.279 N 
ATOM     13  H   UNL     1      -0.759   6.052   0.957  0.00  0.00    +0.155 HD
BRANCH  10  19
ATOM     14  C   UNL     1      -6.930   5.997   0.163  0.00  0.00    +0.039 C 
ATOM     15  C   UNL     1      -5.538   6.312  -0.320  0.00  0.00    -0.073 C 
ATOM     16  C   UNL     1      -5.213   5.944  -1.518  0.00  0.00    -0.073 C 
ATOM     17  C   UNL     1      -3.864   6.178  -2.133  0.00  0.00    +0.046 C 
ATOM     18  C   UNL     1      -3.104   7.248  -1.345  0.00  0.00    +0.118 C 
ATOM     19  C   UNL     1      -3.166   6.890   0.145  0.00  0.00    +0.093 C 
ATOM     20  C   UNL     1      -4.614   7.033   0.618  0.00  0.00    +0.044 C 
ATOM     21  C   UNL     1      -6.254   5.237  -2.347  0.00  0.00    +0.039 C 
BRANCH  18  22
ATOM     22  C   UNL     1      -1.667   7.286  -1.799  0.00  0.00    +0.360 C 
ATOM     23  O   UNL     1      -0.780   7.051  -1.013  0.00  0.00    -0.246 OA
ATOM     24  O   UNL     1      -1.374   7.581  -3.075  0.00  0.00    -0.246 OA
ENDBRANCH  18  22
ENDBRANCH  10  19
ENDBRANCH   1  12
BRANCH   2  25
ATOM     25  C   UNL     1       1.298   4.392   1.684  0.00  0.00    +0.247 C 
ATOM     26  O   UNL     1       2.074   4.745   0.815  0.00  0.00    -0.270 OA
ATOM     27  N   UNL     1       1.435   4.860   2.940  0.00  0.00    -0.308 N 
ATOM     28  H   UNL     1       0.734   4.540   3.726  0.00  0.00    +0.149 HD
BRANCH  27  29
ATOM     29  C   UNL     1       2.517   5.794   3.260  0.00  0.00    +0.073 C 
ATOM     30  C   UNL     1       3.797   5.015   3.626  0.00  0.00    +0.022 C 
ATOM     31  C   UNL     1       4.438   5.852   4.762  0.00  0.00    +0.002 C 
ATOM     32  C   UNL     1       3.208   6.332   5.571  0.00  0.00    +0.002 C 
ATOM     33  C   UNL     1       2.142   6.632   4.496  0.00  0.00    +0.022 C 
ENDBRANCH  27  29
ENDBRANCH   2  25
TORSDOF 5
