REMARK  Name = ZINC27534487
REMARK  7 active torsions:
REMARK  status: ('A' for Active; 'I' for Inactive)
REMARK    1  A    between atoms: C_1  and  C_2
REMARK    2  A    between atoms: C_2  and  O_3
REMARK    3  A    between atoms: O_3  and  C_4
REMARK    4  A    between atoms: C_7  and  N_10
REMARK    5  A    between atoms: C_11  and  C_13
REMARK    6  A    between atoms: C_14  and  C_35
REMARK    7  A    between atoms: C_18  and  C_22
REMARK                            x       y       z     vdW  Elec       q    Type
REMARK                         _______ _______ _______ _____ _____    ______ ____
ROOT
ATOM      1  C   UNL     1       3.227   3.305   0.063  0.00  0.00    +0.080 A 
ATOM      2  C   UNL     1       3.363   1.953   0.150  0.00  0.00    -0.019 A 
ATOM      3  C   UNL     1       2.230   1.133   0.080  0.00  0.00    +0.051 A 
ATOM      4  C   UNL     1       2.139  -0.290   0.148  0.00  0.00    +0.133 A 
ATOM      5  N   UNL     1       0.952  -0.866   0.060  0.00  0.00    -0.217 NA
ATOM      6  C   UNL     1      -0.160  -0.169  -0.091  0.00  0.00    +0.129 A 
ATOM      7  N   UNL     1      -0.144   1.148  -0.161  0.00  0.00    -0.225 NA
ATOM      8  C   UNL     1       0.995   1.806  -0.082  0.00  0.00    +0.114 A 
ATOM      9  S   UNL     1       1.465   3.517  -0.127  0.00  0.00    -0.064 S 
ATOM     10  C   UNL     1      -1.477  -0.895  -0.185  0.00  0.00    +0.088 C 
ATOM     11  N   UNL     1       3.277  -1.056   0.305  0.00  0.00    -0.312 N 
ATOM     12  C   UNL     1       3.476  -1.946  -0.847  0.00  0.00    +0.125 C 
ATOM     13  C   UNL     1       4.785  -2.718  -0.671  0.00  0.00    +0.125 C 
ATOM     14  N   UNL     1       4.735  -3.486   0.581  0.00  0.00    -0.314 N 
ATOM     15  C   UNL     1       4.536  -2.595   1.733  0.00  0.00    +0.125 C 
ATOM     16  C   UNL     1       3.227  -1.823   1.558  0.00  0.00    +0.125 C 
ATOM     17  C   UNL     1       5.881  -4.257   0.739  0.00  0.00    +0.099 A 
ATOM     18  C   UNL     1       6.242  -5.166  -0.250  0.00  0.00    +0.042 A 
ATOM     19  C   UNL     1       7.384  -5.927  -0.079  0.00  0.00    +0.005 A 
ATOM     20  C   UNL     1       8.130  -5.752   1.079  0.00  0.00    +0.018 A 
ATOM     21  C   UNL     1       7.713  -4.832   2.019  0.00  0.00    +0.084 A 
ATOM     22  N   UNL     1       6.622  -4.115   1.827  0.00  0.00    -0.350 N 
ATOM     23  C   UNL     1       4.730   1.341   0.322  0.00  0.00    +0.046 C 
ATOM     24  H   UNL     1       6.332  -3.387   2.599  0.00  0.00    +0.166 HD
ENDROOT
BRANCH   1  26
ATOM     25  N   UNL     1       3.940   5.637   0.009  0.00  0.00    -0.281 N 
ATOM     26  C   UNL     1       4.272   4.335   0.113  0.00  0.00    +0.255 C 
ATOM     27  O   UNL     1       5.438   4.013   0.249  0.00  0.00    -0.269 OA
ATOM     28  H   UNL     1       2.882   5.934  -0.029  0.00  0.00    +0.155 HD
BRANCH  25  32
ATOM     29  C   UNL     1       6.926   8.541  -0.172  0.00  0.00    +0.121 A 
ATOM     30  C   UNL     1       7.141   7.290  -0.732  0.00  0.00    +0.047 A 
ATOM     31  C   UNL     1       6.153   6.327  -0.672  0.00  0.00    +0.027 A 
ATOM     32  C   UNL     1       4.943   6.612  -0.052  0.00  0.00    +0.034 A 
ATOM     33  C   UNL     1       4.727   7.867   0.503  0.00  0.00    +0.027 A 
ATOM     34  C   UNL     1       5.718   8.826   0.447  0.00  0.00    +0.047 A 
BRANCH  29  35
ATOM     35  O   UNL     1       7.900   9.488  -0.232  0.00  0.00    -0.492 OA
BRANCH  35  37
ATOM     36  C   UNL     1       8.815  11.683   0.200  0.00  0.00    +0.048 C 
ATOM     37  C   UNL     1       7.611  10.754   0.365  0.00  0.00    +0.225 C 
ENDBRANCH  35  37
ENDBRANCH  29  35
ENDBRANCH  25  32
ENDBRANCH   1  26
TORSDOF 4
