REMARK  Name = ZINC35319156
REMARK  4 active torsions:
REMARK  status: ('A' for Active; 'I' for Inactive)
REMARK    1  A    between atoms: C_3  and  C_28
REMARK    2  A    between atoms: C_5  and  N_7
REMARK    3  A    between atoms: C_14  and  C_16
REMARK    4  A    between atoms: C_18  and  C_21
REMARK                            x       y       z     vdW  Elec       q    Type
REMARK                         _______ _______ _______ _____ _____    ______ ____
ROOT
ATOM      1  N   UNL     1       1.237  -2.080  -0.021  0.00  0.00    -0.269 N 
ATOM      2  C   UNL     1       0.087  -2.773   0.088  0.00  0.00    +0.307 C 
ATOM      3  O   UNL     1      -0.978  -2.185   0.102  0.00  0.00    -0.252 OA
ATOM      4  N   UNL     1       0.116  -4.117   0.181  0.00  0.00    -0.274 N 
ATOM      5  C   UNL     1       1.331  -4.952   0.184  0.00  0.00    +0.110 C 
ATOM      6  C   UNL     1       0.915  -6.255   0.910  0.00  0.00    +0.021 C 
ATOM      7  C   UNL     1      -0.540  -6.443   0.405  0.00  0.00    +0.034 C 
ATOM      8  C   UNL     1      -1.059  -4.993   0.305  0.00  0.00    +0.166 C 
ATOM      9  H   UNL     1       2.081  -2.551  -0.110  0.00  0.00    +0.156 HD
ENDROOT
BRANCH   1  14
ATOM     10  C   UNL     1       2.115   1.418  -0.737  0.00  0.00    +0.002 A 
ATOM     11  C   UNL     1       1.173   2.086   0.024  0.00  0.00    +0.012 A 
ATOM     12  C   UNL     1       0.253   1.373   0.770  0.00  0.00    +0.057 A 
ATOM     13  C   UNL     1       0.271  -0.008   0.757  0.00  0.00    +0.035 A 
ATOM     14  C   UNL     1       1.216  -0.681  -0.006  0.00  0.00    +0.035 A 
ATOM     15  C   UNL     1       2.139   0.038  -0.755  0.00  0.00    +0.023 A 
BRANCH  12  16
ATOM     16  C   UNL     1      -0.772   2.105   1.599  0.00  0.00    +0.417 C 
ATOM     17  F   UNL     1      -0.592   3.484   1.452  0.00  0.00    -0.166 F 
ATOM     18  F   UNL     1      -2.056   1.754   1.169  0.00  0.00    -0.166 F 
ATOM     19  F   UNL     1      -0.619   1.755   2.945  0.00  0.00    -0.166 F 
ENDBRANCH  12  16
ENDBRANCH   1  14
BRANCH   8  20
ATOM     20  C   UNL     1      -1.836  -4.637   1.545  0.00  0.00    +0.248 A 
ATOM     21  N   UNL     1      -3.132  -4.537   1.629  0.00  0.00    -0.190 NA
ATOM     22  C   UNL     1      -3.488  -4.204   2.883  0.00  0.00    +0.202 A 
ATOM     23  N   UNL     1      -2.404  -4.089   3.610  0.00  0.00    -0.056 NA
ATOM     24  O   UNL     1      -1.311  -4.375   2.749  0.00  0.00    -0.336 OA
BRANCH  22  25
ATOM     25  C   UNL     1      -4.878  -3.999   3.363  0.00  0.00    +0.023 A 
ATOM     26  C   UNL     1      -5.950  -4.157   2.487  0.00  0.00    +0.013 A 
ATOM     27  C   UNL     1      -7.240  -3.966   2.938  0.00  0.00    +0.016 A 
ATOM     28  C   UNL     1      -7.470  -3.617   4.258  0.00  0.00    +0.018 A 
ATOM     29  C   UNL     1      -6.408  -3.459   5.131  0.00  0.00    +0.016 A 
ATOM     30  C   UNL     1      -5.114  -3.654   4.692  0.00  0.00    +0.013 A 
ATOM     31 BR   UNL     1      -9.240  -3.356   4.869  0.00  0.00    -0.050 Br
ENDBRANCH  22  25
ENDBRANCH   8  20
TORSDOF 4
