REMARK  Name = ZINC13276626
REMARK  12 active torsions:
REMARK  status: ('A' for Active; 'I' for Inactive)
REMARK    1  A    between atoms: C_1  and  C_2
REMARK    2  A    between atoms: C_2  and  C_3
REMARK    3  A    between atoms: C_3  and  N_4
REMARK    4  A    between atoms: C_5  and  C_7
REMARK    5  A    between atoms: C_7  and  N_8
REMARK    6  A    between atoms: N_8  and  C_9
REMARK    7  A    between atoms: N_8  and  C_10
REMARK    8  A    between atoms: C_13  and  S_19
REMARK    9  A    between atoms: C_15  and  N_16
REMARK   10  A    between atoms: S_19  and  N_22
REMARK   11  A    between atoms: N_22  and  C_23
REMARK   12  A    between atoms: C_27  and  C_29
REMARK                            x       y       z     vdW  Elec       q    Type
REMARK                         _______ _______ _______ _____ _____    ______ ____
ROOT
ATOM      1  C   UNL     1       3.454   1.376  -3.945  0.00  0.00    +0.061 A 
ATOM      2  C   UNL     1       3.702   0.570  -2.841  0.00  0.00    +0.027 A 
ATOM      3  C   UNL     1       3.080   0.840  -1.638  0.00  0.00    +0.031 A 
ATOM      4  C   UNL     1       2.203   1.904  -1.534  0.00  0.00    +0.111 A 
ATOM      5  C   UNL     1       1.954   2.708  -2.631  0.00  0.00    +0.063 A 
ATOM      6  C   UNL     1       2.577   2.447  -3.836  0.00  0.00    +0.149 A 
ENDROOT
BRANCH   6   7
ATOM      7  N   UNL     1       2.310   3.308  -5.010  0.00  0.00    +0.058 N 
ATOM      8  O   UNL     1       1.541   4.247  -4.914  0.00  0.00    -0.126 OA
ATOM      9  O   UNL     1       2.860   3.078  -6.072  0.00  0.00    -0.126 OA
ENDBRANCH   6   7
BRANCH   4  10
ATOM     10  S   UNL     1       1.406   2.240   0.001  0.00  0.00    +0.072 S 
ATOM     11  O   UNL     1       1.058   3.618  -0.016  0.00  0.00    -0.150 OA
ATOM     12  O   UNL     1       2.223   1.673   1.015  0.00  0.00    -0.150 OA
BRANCH  10  13
ATOM     13  N   UNL     1      -0.017   1.393   0.010  0.00  0.00    -0.216 N 
ATOM     14  H   UNL     1      -0.863   1.866   0.016  0.00  0.00    +0.174 HD
BRANCH  13  15
ATOM     15  C   UNL     1       0.002  -0.004   0.002  0.00  0.00    +0.049 A 
ATOM     16  C   UNL     1       0.871  -0.692   0.841  0.00  0.00    +0.024 A 
ATOM     17  C   UNL     1       0.893  -2.074   0.838  0.00  0.00    +0.003 A 
ATOM     18  C   UNL     1       0.053  -2.781   0.002  0.00  0.00    +0.015 A 
ATOM     19  C   UNL     1      -0.823  -2.099  -0.845  0.00  0.00    +0.065 A 
ATOM     20  C   UNL     1      -0.850  -0.704  -0.839  0.00  0.00    +0.039 A 
BRANCH  19  21
ATOM     21  C   UNL     1      -1.724  -2.853  -1.742  0.00  0.00    +0.387 C 
ATOM     22  O   UNL     1      -2.486  -2.259  -2.478  0.00  0.00    -0.241 OA
ATOM     23  O   UNL     1      -1.700  -4.200  -1.743  0.00  0.00    -0.241 OA
ENDBRANCH  19  21
ENDBRANCH  13  15
ENDBRANCH  10  13
ENDBRANCH   4  10
BRANCH   1  24
ATOM     24  N   UNL     1       4.086   1.109  -5.162  0.00  0.00    -0.322 N 
ATOM     25  C   UNL     1       3.670  -0.195  -5.696  0.00  0.00    +0.130 C 
BRANCH  24  26
ATOM     26  C   UNL     1       5.547   1.179  -5.024  0.00  0.00    +0.200 C 
BRANCH  26  28
ATOM     27  N   UNL     1       7.525   1.183  -6.509  0.00  0.00    -0.314 N 
ATOM     28  C   UNL     1       6.183   1.131  -6.389  0.00  0.00    +0.230 C 
ATOM     29  O   UNL     1       5.489   1.047  -7.379  0.00  0.00    -0.274 OA
ATOM     30  H   UNL     1       8.080   1.250  -5.717  0.00  0.00    +0.149 HD
BRANCH  27  31
ATOM     31  C   UNL     1       8.144   1.136  -7.836  0.00  0.00    +0.104 C 
BRANCH  31  33
ATOM     32  C   UNL     1      10.312   1.161  -9.078  0.00  0.00    +0.005 C 
ATOM     33  C   UNL     1       9.665   1.210  -7.692  0.00  0.00    +0.015 C 
ENDBRANCH  31  33
ENDBRANCH  27  31
ENDBRANCH  26  28
ENDBRANCH  24  26
ENDBRANCH   1  24
TORSDOF 10
