REMARK  Name = ZINC34856023
REMARK  9 active torsions:
REMARK  status: ('A' for Active; 'I' for Inactive)
REMARK    1  A    between atoms: C_1  and  C_2
REMARK    2  A    between atoms: N_4  and  C_5
REMARK    3  A    between atoms: C_7  and  O_31
REMARK    4  A    between atoms: C_8  and  C_12
REMARK    5  A    between atoms: N_14  and  C_15
REMARK    6  A    between atoms: C_18  and  S_21
REMARK    7  A    between atoms: S_21  and  N_24
REMARK    8  A    between atoms: N_24  and  C_25
REMARK    9  A    between atoms: O_31  and  C_32
REMARK                            x       y       z     vdW  Elec       q    Type
REMARK                         _______ _______ _______ _____ _____    ______ ____
ROOT
ATOM      1  C   UNL     1       0.621  -6.294  -1.007  0.00  0.00    +0.252 C 
ATOM      2  O   UNL     1       0.781  -6.873   0.050  0.00  0.00    -0.270 OA
ATOM      3  N   UNL     1       0.554  -6.995  -2.157  0.00  0.00    -0.281 N 
ATOM      4  H   UNL     1       0.500  -6.529  -3.006  0.00  0.00    +0.155 HD
ENDROOT
BRANCH   1   8
ATOM      5  C   UNL     1       0.273  -2.060  -1.078  0.00  0.00    +0.055 A 
ATOM      6  C   UNL     1       0.455  -2.716   0.133  0.00  0.00    +0.071 A 
ATOM      7  C   UNL     1       0.569  -4.094   0.163  0.00  0.00    +0.134 A 
ATOM      8  C   UNL     1       0.500  -4.826  -1.032  0.00  0.00    +0.080 A 
ATOM      9  C   UNL     1       0.316  -4.157  -2.246  0.00  0.00    +0.038 A 
ATOM     10  C   UNL     1       0.198  -2.786  -2.265  0.00  0.00    +0.063 A 
ATOM     11 CL   UNL     1      -0.037  -1.958  -3.772  0.00  0.00    -0.082 Cl
BRANCH   5  15
ATOM     12  C   UNL     1      -0.243   1.502   0.008  0.00  0.00    +0.109 C 
ATOM     13  C   UNL     1      -0.239  -0.005  -0.003  0.00  0.00    +0.214 C 
ATOM     14  O   UNL     1      -0.594  -0.619   0.981  0.00  0.00    -0.276 OA
ATOM     15  N   UNL     1       0.159  -0.670  -1.105  0.00  0.00    -0.284 N 
ATOM     16  H   UNL     1       0.367  -0.182  -1.917  0.00  0.00    +0.155 HD
ENDBRANCH   5  15
BRANCH   7  17
ATOM     17  O   UNL     1       0.748  -4.736   1.345  0.00  0.00    -0.494 OA
ATOM     18  C   UNL     1       0.810  -3.926   2.521  0.00  0.00    +0.277 C 
ENDBRANCH   7  17
ENDBRANCH   1   8
BRANCH   3  19
ATOM     19  C   UNL     1       0.561  -8.393  -2.124  0.00  0.00    +0.034 A 
ATOM     20  C   UNL     1       1.167  -9.109  -3.149  0.00  0.00    +0.025 A 
ATOM     21  C   UNL     1       1.173 -10.490  -3.114  0.00  0.00    +0.031 A 
ATOM     22  C   UNL     1       0.576 -11.159  -2.061  0.00  0.00    +0.111 A 
ATOM     23  C   UNL     1      -0.028 -10.449  -1.040  0.00  0.00    +0.031 A 
ATOM     24  C   UNL     1      -0.032  -9.068  -1.065  0.00  0.00    +0.025 A 
BRANCH  22  25
ATOM     25  S   UNL     1       0.586 -12.921  -2.020  0.00  0.00    +0.094 S 
ATOM     26  O   UNL     1      -0.513 -13.314  -1.209  0.00  0.00    -0.148 OA
ATOM     27  O   UNL     1       0.735 -13.357  -3.364  0.00  0.00    -0.148 OA
BRANCH  25  28
ATOM     28  N   UNL     1       1.958 -13.385  -1.217  0.00  0.00    -0.058 NA
BRANCH  28  29
ATOM     29  C   UNL     1       2.230 -14.729  -1.032  0.00  0.00    +0.257 A 
ATOM     30  N   UNL     1       1.386 -15.632  -1.509  0.00  0.00    -0.220 NA
ATOM     31  C   UNL     1       1.617 -16.924  -1.351  0.00  0.00    +0.116 A 
ATOM     32  C   UNL     1       2.758 -17.329  -0.676  0.00  0.00    +0.039 A 
ATOM     33  C   UNL     1       3.620 -16.359  -0.190  0.00  0.00    +0.116 A 
ATOM     34  N   UNL     1       3.332 -15.083  -0.388  0.00  0.00    -0.220 NA
ENDBRANCH  28  29
ENDBRANCH  25  28
ENDBRANCH  22  25
ENDBRANCH   3  19
TORSDOF 7
