REMARK  Name = ZINC13562982
REMARK  7 active torsions:
REMARK  status: ('A' for Active; 'I' for Inactive)
REMARK    1  A    between atoms: C_3  and  N_28
REMARK    2  A    between atoms: C_6  and  C_7
REMARK    3  A    between atoms: C_15  and  N_18
REMARK    4  A    between atoms: C_19  and  C_21
REMARK    5  A    between atoms: C_24  and  N_27
REMARK    6  A    between atoms: C_29  and  C_31
REMARK    7  A    between atoms: C_34  and  N_37
REMARK                            x       y       z     vdW  Elec       q    Type
REMARK                         _______ _______ _______ _____ _____    ______ ____
ROOT
ATOM      1  C   UNL     1      -0.792   7.036   0.683  0.00  0.00    +0.139 A 
ATOM      2  N   UNL     1      -1.905   7.835   0.664  0.00  0.00    -0.337 N 
ATOM      3  H   UNL     1      -2.857   7.528   0.690  0.00  0.00    +0.167 HD
ATOM      4  C   UNL     1      -1.467   9.144   0.601  0.00  0.00    +0.087 A 
ATOM      5  C   UNL     1      -0.062   9.087   0.574  0.00  0.00    +0.091 A 
ATOM      6  N   UNL     1       0.287   7.778   0.627  0.00  0.00    -0.228 NA
ATOM      7  C   UNL     1       0.676  10.274   0.504  0.00  0.00    +0.032 A 
ATOM      8  C   UNL     1       0.031  11.477   0.463  0.00  0.00    +0.027 A 
ATOM      9  C   UNL     1      -1.361  11.537   0.489  0.00  0.00    +0.054 A 
ATOM     10  C   UNL     1      -2.110  10.373   0.558  0.00  0.00    +0.087 A 
ATOM     11 CL   UNL     1      -3.844  10.452   0.590  0.00  0.00    -0.079 Cl
ENDROOT
BRANCH   1  17
ATOM     12  C   UNL     1       0.395   4.848   0.759  0.00  0.00    +0.013 A 
ATOM     13  C   UNL     1       0.378   3.473   0.822  0.00  0.00    +0.024 A 
ATOM     14  C   UNL     1      -0.833   2.792   0.877  0.00  0.00    +0.034 A 
ATOM     15  C   UNL     1      -2.032   3.498   0.863  0.00  0.00    +0.024 A 
ATOM     16  C   UNL     1      -2.022   4.874   0.806  0.00  0.00    +0.013 A 
ATOM     17  C   UNL     1      -0.806   5.560   0.751  0.00  0.00    +0.017 A 
BRANCH  14  18
ATOM     18  N   UNL     1      -0.847   1.397   0.939  0.00  0.00    -0.282 N 
ATOM     19  C   UNL     1      -1.794   0.764   1.659  0.00  0.00    +0.248 C 
ATOM     20  O   UNL     1      -2.686   1.403   2.185  0.00  0.00    -0.270 OA
ATOM     21  H   UNL     1      -0.174   0.884   0.465  0.00  0.00    +0.155 HD
BRANCH  19  22
ATOM     22  C   UNL     1      -1.750  -0.702   1.809  0.00  0.00    +0.037 A 
ATOM     23  C   UNL     1      -0.728  -1.438   1.200  0.00  0.00    +0.015 A 
ATOM     24  C   UNL     1      -0.687  -2.805   1.345  0.00  0.00    +0.023 A 
ATOM     25  C   UNL     1      -1.666  -3.458   2.089  0.00  0.00    +0.025 A 
ATOM     26  C   UNL     1      -2.687  -2.729   2.693  0.00  0.00    +0.023 A 
ATOM     27  C   UNL     1      -2.732  -1.360   2.555  0.00  0.00    +0.015 A 
BRANCH  25  28
ATOM     28  N   UNL     1      -1.624  -4.840   2.231  0.00  0.00    -0.358 N 
ATOM     29  H   UNL     1      -2.305  -5.296   2.749  0.00  0.00    +0.142 HD
ATOM     30  H   UNL     1      -0.913  -5.349   1.810  0.00  0.00    +0.142 HD
ENDBRANCH  25  28
ENDBRANCH  19  22
ENDBRANCH  14  18
ENDBRANCH   1  17
BRANCH   9  31
ATOM     31  N   UNL     1      -2.005  12.780   0.446  0.00  0.00    -0.280 N 
ATOM     32  C   UNL     1      -1.478  13.787  -0.278  0.00  0.00    +0.248 C 
ATOM     33  O   UNL     1      -0.402  13.645  -0.825  0.00  0.00    -0.270 OA
ATOM     34  H   UNL     1      -2.831  12.915   0.937  0.00  0.00    +0.155 HD
BRANCH  32  35
ATOM     35  C   UNL     1      -2.208  15.063  -0.406  0.00  0.00    +0.037 A 
ATOM     36  C   UNL     1      -3.448  15.226   0.218  0.00  0.00    +0.015 A 
ATOM     37  C   UNL     1      -4.124  16.419   0.100  0.00  0.00    +0.023 A 
ATOM     38  C   UNL     1      -3.578  17.459  -0.648  0.00  0.00    +0.025 A 
ATOM     39  C   UNL     1      -2.346  17.298  -1.274  0.00  0.00    +0.023 A 
ATOM     40  C   UNL     1      -1.663  16.109  -1.157  0.00  0.00    +0.015 A 
BRANCH  38  41
ATOM     41  N   UNL     1      -4.266  18.661  -0.769  0.00  0.00    -0.358 N 
ATOM     42  H   UNL     1      -3.887  19.387  -1.290  0.00  0.00    +0.142 HD
ATOM     43  H   UNL     1      -5.125  18.775  -0.333  0.00  0.00    +0.142 HD
ENDBRANCH  38  41
ENDBRANCH  32  35
ENDBRANCH   9  31
TORSDOF 7
