REMARK  Name = ZINC27542582
REMARK  8 active torsions:
REMARK  status: ('A' for Active; 'I' for Inactive)
REMARK    1  A    between atoms: C_1  and  C_2
REMARK    2  A    between atoms: C_2  and  C_4
REMARK    3  A    between atoms: C_2  and  N_15
REMARK    4  A    between atoms: N_6  and  C_7
REMARK    5  A    between atoms: N_18  and  C_21
REMARK    6  A    between atoms: C_21  and  C_22
REMARK    7  A    between atoms: C_22  and  O_23
REMARK    8  A    between atoms: O_23  and  C_24
REMARK                            x       y       z     vdW  Elec       q    Type
REMARK                         _______ _______ _______ _____ _____    ______ ____
ROOT
ATOM      1  N   UNL     1      -3.068  -2.426  -0.566  0.00  0.00    +0.389 N 
ATOM      2  C   UNL     1      -2.261  -2.875  -1.709  0.00  0.00    -0.062 C 
ATOM      3  C   UNL     1      -2.075  -4.392  -1.634  0.00  0.00    +0.066 C 
ATOM      4  N   UNL     1      -3.392  -5.045  -1.633  0.00  0.00    -0.303 NA
ATOM      5  C   UNL     1      -4.198  -4.596  -0.490  0.00  0.00    +0.066 C 
ATOM      6  C   UNL     1      -4.384  -3.079  -0.565  0.00  0.00    -0.062 C 
ATOM      7  H   UNL     1      -2.543  -2.718   0.356  0.00  0.00    -0.081 HD
ENDROOT
BRANCH   1   9
ATOM      8  C   UNL     1      -3.863  -0.508  -1.865  0.00  0.00    -0.004 C 
ATOM      9  C   UNL     1      -3.205  -0.964  -0.560  0.00  0.00    +0.017 C 
BRANCH   9  10
ATOM     10  C   UNL     1      -1.843  -0.331  -0.438  0.00  0.00    +0.203 C 
ATOM     11  O   UNL     1      -0.855  -1.030  -0.362  0.00  0.00    -0.277 OA
ATOM     12  N   UNL     1      -1.723   1.011  -0.412  0.00  0.00    -0.285 N 
ATOM     13  H   UNL     1      -2.622   1.643  -0.394  0.00  0.00    +0.155 HD
BRANCH  12  14
ATOM     14  C   UNL     1      -0.452   1.600  -0.408  0.00  0.00    +0.069 A 
ATOM     15  C   UNL     1       0.603   0.974   0.241  0.00  0.00    +0.027 A 
ATOM     16  C   UNL     1       1.857   1.555   0.239  0.00  0.00    +0.017 A 
ATOM     17  C   UNL     1       2.061   2.762  -0.405  0.00  0.00    +0.021 A 
ATOM     18  C   UNL     1       1.011   3.392  -1.049  0.00  0.00    +0.055 A 
ATOM     19  C   UNL     1      -0.246   2.816  -1.050  0.00  0.00    +0.146 A 
ATOM     20  F   UNL     1      -1.271   3.432  -1.679  0.00  0.00    -0.204 F 
ATOM     21 BR   UNL     1       3.779   3.552  -0.405  0.00  0.00    -0.050 Br
ENDBRANCH  12  14
ENDBRANCH   9  10
ENDBRANCH   1   9
BRANCH   4  22
ATOM     22  C   UNL     1      -3.254  -6.508  -1.639  0.00  0.00    +0.125 C 
BRANCH  22  23
ATOM     23  C   UNL     1      -2.365  -6.941  -0.471  0.00  0.00    +0.244 C 
BRANCH  23  24
ATOM     24  O   UNL     1      -3.037  -6.677   0.762  0.00  0.00    -0.491 OA
BRANCH  24  25
ATOM     25  C   UNL     1      -2.379  -7.006   1.905  0.00  0.00    +0.121 A 
ATOM     26  C   UNL     1      -1.115  -7.575   1.841  0.00  0.00    +0.047 A 
ATOM     27  C   UNL     1      -0.447  -7.904   3.004  0.00  0.00    +0.023 A 
ATOM     28  C   UNL     1      -1.040  -7.675   4.233  0.00  0.00    +0.041 A 
ATOM     29  C   UNL     1      -2.302  -7.112   4.299  0.00  0.00    +0.023 A 
ATOM     30  C   UNL     1      -2.972  -6.777   3.138  0.00  0.00    +0.047 A 
ATOM     31 CL   UNL     1      -0.200  -8.095   5.693  0.00  0.00    -0.084 Cl
ENDBRANCH  24  25
ENDBRANCH  23  24
ENDBRANCH  22  23
ENDBRANCH   4  22
TORSDOF 7
