REMARK  Name = ZINC63140699
REMARK  5 active torsions:
REMARK  status: ('A' for Active; 'I' for Inactive)
REMARK    1  A    between atoms: C_1  and  O_2
REMARK    2  A    between atoms: O_2  and  C_3
REMARK    3  A    between atoms: C_8  and  C_9
REMARK    4  A    between atoms: N_28  and  C_31
REMARK    5  A    between atoms: C_31  and  C_32
REMARK                            x       y       z     vdW  Elec       q    Type
REMARK                         _______ _______ _______ _____ _____    ______ ____
ROOT
ATOM      1  C   UNL     1       0.018  -2.829  -0.013  0.00  0.00    +0.137 C 
ATOM      2  C   UNL     1       0.535  -2.971   1.419  0.00  0.00    +0.131 C 
ATOM      3  C   UNL     1      -0.364  -4.009   2.085  0.00  0.00    -0.034 C 
ATOM      4  C   UNL     1      -0.959  -3.403   3.103  0.00  0.00    -0.001 A 
ATOM      5  C   UNL     1      -1.905  -3.894   4.119  0.00  0.00    +0.010 A 
ATOM      6  C   UNL     1      -2.328  -2.984   5.035  0.00  0.00    +0.001 A 
ATOM      7  C   UNL     1      -1.909  -1.650   5.043  0.00  0.00    +0.002 A 
ATOM      8  C   UNL     1      -1.041  -1.113   4.149  0.00  0.00    +0.026 A 
ATOM      9  C   UNL     1      -0.525  -1.973   3.136  0.00  0.00    +0.043 A 
ATOM     10  N   UNL     1       0.330  -1.722   2.165  0.00  0.00    -0.375 N 
ATOM     11  C   UNL     1      -0.468  -5.410   1.547  0.00  0.00    +0.065 C 
ATOM     12  C   UNL     1      -0.517  -5.377   0.042  0.00  0.00    +0.167 C 
ATOM     13  N   UNL     1      -0.247  -4.122  -0.625  0.00  0.00    -0.279 N 
ATOM     14  C   UNL     1      -0.298  -4.165  -1.997  0.00  0.00    +0.234 C 
ATOM     15  O   UNL     1      -0.025  -3.195  -2.672  0.00  0.00    -0.274 OA
ATOM     16  C   UNL     1      -0.711  -5.478  -2.626  0.00  0.00    +0.204 C 
ATOM     17  N   UNL     1      -1.865  -6.013  -1.879  0.00  0.00    -0.287 N 
ATOM     18  C   UNL     1      -1.775  -5.989  -0.521  0.00  0.00    +0.237 C 
ATOM     19  O   UNL     1      -2.651  -6.434   0.190  0.00  0.00    -0.274 OA
ATOM     20  H   UNL     1       0.751  -0.871   1.969  0.00  0.00    +0.160 HD
ENDROOT
BRANCH   1  26
ATOM     21  C   UNL     1      -1.200  -0.637   0.010  0.00  0.00    +0.125 A 
ATOM     22  C   UNL     1      -2.375   0.101   0.019  0.00  0.00    +0.046 A 
ATOM     23  C   UNL     1      -3.596  -0.545   0.027  0.00  0.00    +0.004 A 
ATOM     24  C   UNL     1      -3.648  -1.927   0.026  0.00  0.00    +0.001 A 
ATOM     25  C   UNL     1      -2.479  -2.665   0.017  0.00  0.00    +0.009 A 
ATOM     26  C   UNL     1      -1.255  -2.023   0.003  0.00  0.00    +0.017 A 
BRANCH  21  28
ATOM     27  C   UNL     1      -0.017   1.425   0.010  0.00  0.00    +0.277 C 
ATOM     28  O   UNL     1       0.002  -0.004   0.002  0.00  0.00    -0.495 OA
ENDBRANCH  21  28
ENDBRANCH   1  26
BRANCH  17  29
ATOM     29  C   UNL     1      -3.047  -6.541  -2.564  0.00  0.00    +0.143 C 
BRANCH  29  30
ATOM     30  C   UNL     1      -2.864  -8.016  -2.816  0.00  0.00    -0.029 A 
ATOM     31  C   UNL     1      -2.271  -8.448  -3.987  0.00  0.00    +0.007 A 
ATOM     32  C   UNL     1      -2.103  -9.800  -4.219  0.00  0.00    +0.022 A 
ATOM     33  C   UNL     1      -2.529 -10.722  -3.279  0.00  0.00    +0.059 A 
ATOM     34  C   UNL     1      -3.122 -10.289  -2.106  0.00  0.00    +0.060 A 
ATOM     35  C   UNL     1      -3.285  -8.935  -1.873  0.00  0.00    +0.026 A 
ATOM     36 CL   UNL     1      -3.657 -11.444  -0.925  0.00  0.00    -0.082 Cl
ATOM     37 CL   UNL     1      -2.319 -12.420  -3.571  0.00  0.00    -0.082 Cl
ENDBRANCH  29  30
ENDBRANCH  17  29
TORSDOF 4
