REMARK  Name = ZINC16080879
REMARK  7 active torsions:
REMARK  status: ('A' for Active; 'I' for Inactive)
REMARK    1  A    between atoms: C_3  and  C_19
REMARK    2  A    between atoms: C_6  and  C_7
REMARK    3  A    between atoms: C_7  and  N_8
REMARK    4  A    between atoms: C_10  and  C_15
REMARK    5  A    between atoms: N_20  and  O_21
REMARK    6  A    between atoms: O_21  and  C_22
REMARK    7  A    between atoms: N_24  and  C_25
REMARK                            x       y       z     vdW  Elec       q    Type
REMARK                         _______ _______ _______ _____ _____    ______ ____
ROOT
ATOM      1  C   UNL     1      -0.017   1.380  -0.001  0.00  0.00    +0.006 A 
ATOM      2  C   UNL     1       1.167   2.089  -0.012  0.00  0.00    +0.012 A 
ATOM      3  C   UNL     1       2.384   1.408  -0.020  0.00  0.00    +0.018 A 
ATOM      4  C   UNL     1       2.396   0.013  -0.017  0.00  0.00    +0.012 A 
ATOM      5  C   UNL     1       1.206  -0.684  -0.007  0.00  0.00    +0.006 A 
ATOM      6  C   UNL     1       0.002  -0.003   0.001  0.00  0.00    -0.028 A 
ENDROOT
BRANCH   3   7
ATOM      7  C   UNL     1       3.658   2.162  -0.032  0.00  0.00    +0.163 C 
ATOM      8  N   UNL     1       4.792   1.524  -0.039  0.00  0.00    -0.057 NA
ATOM      9  N   UNL     1       3.643   3.546  -0.034  0.00  0.00    -0.340 N 
ATOM     10  H   UNL     1       2.797   4.021  -0.029  0.00  0.00    +0.144 HD
ATOM     11  H   UNL     1       4.477   4.040  -0.042  0.00  0.00    +0.144 HD
BRANCH   8  12
ATOM     12  O   UNL     1       6.010   2.246  -0.050  0.00  0.00    -0.297 OA
BRANCH  12  13
ATOM     13  C   UNL     1       7.108   1.467  -0.057  0.00  0.00    +0.430 C 
ATOM     14  O   UNL     1       6.994   0.257  -0.053  0.00  0.00    -0.224 OA
ATOM     15  N   UNL     1       8.333   2.029  -0.068  0.00  0.00    -0.249 N 
ATOM     16  H   UNL     1       8.424   2.992  -0.139  0.00  0.00    +0.158 HD
BRANCH  15  17
ATOM     17  C   UNL     1       9.473   1.222   0.022  0.00  0.00    +0.037 A 
ATOM     18  C   UNL     1      10.590   1.672   0.715  0.00  0.00    +0.025 A 
ATOM     19  C   UNL     1      11.714   0.874   0.803  0.00  0.00    +0.022 A 
ATOM     20  C   UNL     1      11.728  -0.372   0.202  0.00  0.00    +0.041 A 
ATOM     21  C   UNL     1      10.617  -0.822  -0.489  0.00  0.00    +0.022 A 
ATOM     22  C   UNL     1       9.489  -0.031  -0.575  0.00  0.00    +0.025 A 
ATOM     23 CL   UNL     1      13.143  -1.372   0.314  0.00  0.00    -0.084 Cl
ENDBRANCH  15  17
ENDBRANCH  12  13
ENDBRANCH   8  12
ENDBRANCH   3   7
BRANCH   6  24
ATOM     24  C   UNL     1      -1.295  -0.771   0.013  0.00  0.00    +0.160 C 
BRANCH  24  25
ATOM     25  N   UNL     1      -1.726  -1.023  -1.364  0.00  0.00    -0.310 N 
ATOM     26  C   UNL     1      -2.521  -0.120  -1.994  0.00  0.00    +0.101 A 
ATOM     27  C   UNL     1      -2.932  -0.330  -3.266  0.00  0.00    +0.071 A 
ATOM     28  C   UNL     1      -2.537  -1.491  -3.946  0.00  0.00    +0.019 A 
ATOM     29  C   UNL     1      -1.739  -2.396  -3.312  0.00  0.00    +0.071 A 
ATOM     30  C   UNL     1      -1.325  -2.144  -1.993  0.00  0.00    +0.252 A 
ATOM     31  O   UNL     1      -0.607  -2.944  -1.415  0.00  0.00    -0.268 OA
BRANCH  27  32
ATOM     32  C   UNL     1      -3.815   0.682  -3.950  0.00  0.00    +0.419 C 
ATOM     33  F   UNL     1      -3.024   1.555  -4.705  0.00  0.00    -0.166 F 
ATOM     34  F   UNL     1      -4.715   0.021  -4.793  0.00  0.00    -0.166 F 
ATOM     35  F   UNL     1      -4.524   1.408  -2.988  0.00  0.00    -0.166 F 
ENDBRANCH  27  32
ENDBRANCH  24  25
ENDBRANCH   6  24
TORSDOF 7
