REMARK  Name = ZINC67439448
REMARK  11 active torsions:
REMARK  status: ('A' for Active; 'I' for Inactive)
REMARK    1  A    between atoms: C_1  and  C_2
REMARK    2  A    between atoms: C_5  and  C_30
REMARK    3  A    between atoms: N_8  and  C_10
REMARK    4  A    between atoms: C_10  and  C_11
REMARK    5  A    between atoms: C_11  and  C_13
REMARK    6  A    between atoms: C_11  and  N_14
REMARK    7  A    between atoms: C_15  and  C_17
REMARK    8  A    between atoms: N_19  and  C_20
REMARK    9  A    between atoms: C_25  and  N_26
REMARK   10  A    between atoms: N_26  and  C_27
REMARK   11  A    between atoms: N_26  and  C_28
REMARK                            x       y       z     vdW  Elec       q    Type
REMARK                         _______ _______ _______ _____ _____    ______ ____
ROOT
ATOM      1  N   UNL     1       2.120   1.676   3.504  0.00  0.00    -0.307 N 
ATOM      2  C   UNL     1       1.182   2.415   4.128  0.00  0.00    +0.299 C 
ATOM      3  O   UNL     1       0.365   1.878   4.847  0.00  0.00    -0.265 OA
ATOM      4  H   UNL     1       2.773   2.106   2.929  0.00  0.00    +0.149 HD
ENDROOT
BRANCH   2   5
ATOM      5  C   UNL     1       1.147   3.896   3.935  0.00  0.00    +0.303 C 
ATOM      6  O   UNL     1       1.964   4.433   3.216  0.00  0.00    -0.265 OA
ATOM      7  N   UNL     1       0.209   4.635   4.559  0.00  0.00    -0.276 N 
ATOM      8  H   UNL     1      -0.492   4.199   5.069  0.00  0.00    +0.155 HD
BRANCH   7   9
ATOM      9  C   UNL     1       0.246   6.030   4.472  0.00  0.00    +0.056 A 
ATOM     10  C   UNL     1       1.446   6.681   4.219  0.00  0.00    +0.025 A 
ATOM     11  C   UNL     1       1.480   8.059   4.133  0.00  0.00    +0.003 A 
ATOM     12  C   UNL     1       0.322   8.796   4.299  0.00  0.00    +0.022 A 
ATOM     13  C   UNL     1      -0.879   8.158   4.551  0.00  0.00    +0.064 A 
ATOM     14  C   UNL     1      -0.924   6.773   4.633  0.00  0.00    +0.069 A 
ATOM     15 CL   UNL     1      -2.330   9.088   4.757  0.00  0.00    -0.082 Cl
BRANCH  14  16
ATOM     16  N   UNL     1      -2.138   6.123   4.882  0.00  0.00    -0.333 N 
ATOM     17  C   UNL     1      -2.556   5.856   6.261  0.00  0.00    +0.129 C 
ATOM     18  C   UNL     1      -2.992   5.711   3.765  0.00  0.00    +0.129 C 
ENDBRANCH  14  16
ENDBRANCH   7   9
ENDBRANCH   2   5
BRANCH   1  19
ATOM     19  C   UNL     1       2.154   0.224   3.693  0.00  0.00    +0.054 C 
ATOM     20  C   UNL     1       2.946  -0.107   4.960  0.00  0.00    +0.026 C 
BRANCH  19  21
ATOM     21  C   UNL     1       2.826  -0.433   2.486  0.00  0.00    -0.057 C 
BRANCH  21  27
ATOM     22  C   UNL     1      -0.014   1.495   0.031  0.00  0.00    +0.005 C 
ATOM     23  C   UNL     1       0.014  -0.035   0.033  0.00  0.00    -0.031 C 
ATOM     24  C   UNL     1       0.732  -0.534  -1.224  0.00  0.00    +0.003 C 
ATOM     25  C   UNL     1       2.187  -0.056  -1.193  0.00  0.00    -0.031 C 
ATOM     26  C   UNL     1       2.854  -0.551   0.092  0.00  0.00    -0.076 C 
ATOM     27  N   UNL     1       2.137  -0.018   1.256  0.00  0.00    +0.381 N 
ATOM     28  C   UNL     1       0.760  -0.531   1.273  0.00  0.00    -0.076 C 
ATOM     29  C   UNL     1       2.934  -0.614  -2.406  0.00  0.00    +0.005 C 
ATOM     30  H   UNL     1       2.119   0.989   1.207  0.00  0.00    -0.082 HD
ENDBRANCH  21  27
ENDBRANCH  19  21
ENDBRANCH   1  19
TORSDOF 6
