REMARK  Name = ZINC46839876
REMARK  7 active torsions:
REMARK  status: ('A' for Active; 'I' for Inactive)
REMARK    1  A    between atoms: C_1  and  C_2
REMARK    2  A    between atoms: C_3  and  C_7
REMARK    3  A    between atoms: N_9  and  C_10
REMARK    4  A    between atoms: C_12  and  N_17
REMARK    5  A    between atoms: C_18  and  C_20
REMARK    6  A    between atoms: C_25  and  N_26
REMARK    7  A    between atoms: C_27  and  C_29
REMARK                            x       y       z     vdW  Elec       q    Type
REMARK                         _______ _______ _______ _____ _____    ______ ____
ROOT
ATOM      1  N   UNL     1      -6.749   2.078   1.147  0.00  0.00    -0.281 N 
ATOM      2  C   UNL     1      -8.062   2.379   1.104  0.00  0.00    +0.250 C 
ATOM      3  O   UNL     1      -8.892   1.497   1.209  0.00  0.00    -0.270 OA
ATOM      4  H   UNL     1      -6.087   2.769   0.989  0.00  0.00    +0.155 HD
ENDROOT
BRANCH   1   7
ATOM      5  C   UNL     1      -4.767  -1.025   1.136  0.00  0.00    +0.071 A 
ATOM      6  C   UNL     1      -5.169   0.275   0.863  0.00  0.00    +0.049 A 
ATOM      7  C   UNL     1      -6.341   0.767   1.420  0.00  0.00    +0.036 A 
ATOM      8  C   UNL     1      -7.108  -0.041   2.250  0.00  0.00    +0.026 A 
ATOM      9  C   UNL     1      -6.706  -1.335   2.521  0.00  0.00    +0.042 A 
ATOM     10  C   UNL     1      -5.542  -1.832   1.963  0.00  0.00    +0.145 A 
ATOM     11  F   UNL     1      -5.154  -3.099   2.225  0.00  0.00    -0.204 F 
BRANCH   5  14
ATOM     12  C   UNL     1      -2.579  -0.684   0.265  0.00  0.00    +0.252 C 
ATOM     13  O   UNL     1      -2.731   0.516   0.383  0.00  0.00    -0.270 OA
ATOM     14  N   UNL     1      -3.586  -1.525   0.576  0.00  0.00    -0.279 N 
ATOM     15  H   UNL     1      -3.491  -2.476   0.412  0.00  0.00    +0.155 HD
BRANCH  12  18
ATOM     16  C   UNL     1      -0.052   0.991  -0.541  0.00  0.00    +0.087 C 
ATOM     17  C   UNL     1      -0.185  -0.510  -0.574  0.00  0.00    +0.114 A 
ATOM     18  C   UNL     1      -1.294  -1.221  -0.219  0.00  0.00    +0.078 A 
ATOM     19  C   UNL     1      -0.940  -2.634  -0.419  0.00  0.00    +0.054 A 
ATOM     20  C   UNL     1       0.325  -2.637  -0.867  0.00  0.00    +0.196 A 
ATOM     21  O   UNL     1       0.761  -1.371  -0.961  0.00  0.00    -0.467 OA
ENDBRANCH  12  18
ENDBRANCH   5  14
ENDBRANCH   1   7
BRANCH   2  22
ATOM     22  C   UNL     1      -8.491   3.779   0.929  0.00  0.00    +0.058 A 
ATOM     23  C   UNL     1      -7.543   4.787   0.739  0.00  0.00    +0.015 A 
ATOM     24  C   UNL     1      -7.950   6.093   0.576  0.00  0.00    +0.001 A 
ATOM     25  C   UNL     1      -9.298   6.413   0.599  0.00  0.00    +0.002 A 
ATOM     26  C   UNL     1     -10.247   5.429   0.786  0.00  0.00    +0.024 A 
ATOM     27  C   UNL     1      -9.856   4.106   0.946  0.00  0.00    +0.046 A 
BRANCH  27  28
ATOM     28  N   UNL     1     -10.811   3.111   1.128  0.00  0.00    -0.280 N 
ATOM     29  C   UNL     1     -11.889   3.345   1.902  0.00  0.00    +0.255 C 
ATOM     30  O   UNL     1     -12.079   4.457   2.361  0.00  0.00    -0.269 OA
ATOM     31  H   UNL     1     -10.702   2.248   0.698  0.00  0.00    +0.155 HD
BRANCH  29  32
ATOM     32  C   UNL     1     -12.833   2.262   2.192  0.00  0.00    +0.074 A 
ATOM     33  C   UNL     1     -13.993   2.293   2.952  0.00  0.00    +0.021 A 
ATOM     34  C   UNL     1     -14.678   1.106   3.043  0.00  0.00    +0.008 A 
ATOM     35  C   UNL     1     -14.192   0.013   2.404  0.00  0.00    +0.046 A 
ATOM     36  S   UNL     1     -12.793   0.564   1.653  0.00  0.00    -0.092 S 
ENDBRANCH  29  32
ENDBRANCH  27  28
ENDBRANCH   2  22
TORSDOF 6
