REMARK  Name = ZINC45860226
REMARK  8 active torsions:
REMARK  status: ('A' for Active; 'I' for Inactive)
REMARK    1  A    between atoms: C_1  and  C_2
REMARK    2  A    between atoms: C_2  and  C_4
REMARK    3  A    between atoms: C_2  and  N_19
REMARK    4  A    between atoms: C_8  and  N_10
REMARK    5  A    between atoms: C_11  and  C_13
REMARK    6  A    between atoms: N_19  and  C_20
REMARK    7  A    between atoms: C_21  and  C_23
REMARK    8  A    between atoms: N_26  and  C_28
REMARK                            x       y       z     vdW  Elec       q    Type
REMARK                         _______ _______ _______ _____ _____    ______ ____
ROOT
ATOM      1  N   UNL     1       0.446  -0.895   2.048  0.00  0.00    -0.292 N 
ATOM      2  C   UNL     1       1.813  -0.473   2.364  0.00  0.00    +0.133 C 
ATOM      3  C   UNL     1      -0.101  -1.946   2.689  0.00  0.00    +0.267 C 
ATOM      4  O   UNL     1      -1.224  -2.314   2.406  0.00  0.00    -0.268 OA
ENDROOT
BRANCH   3   5
ATOM      5  C   UNL     1       0.665  -2.652   3.736  0.00  0.00    +0.151 A 
ATOM      6  C   UNL     1       0.263  -3.814   4.434  0.00  0.00    +0.006 A 
ATOM      7  C   UNL     1       1.271  -4.099   5.287  0.00  0.00    +0.049 A 
ATOM      8  N   UNL     1       2.227  -3.149   5.104  0.00  0.00    -0.236 N 
ATOM      9  N   UNL     1       1.857  -2.321   4.194  0.00  0.00    -0.161 NA
ATOM     10  C   UNL     1       0.940  -5.337   6.090  0.00  0.00    +0.056 C 
ATOM     11  C   UNL     1      -0.584  -5.528   5.923  0.00  0.00    +0.011 C 
ATOM     12  C   UNL     1      -0.849  -4.826   4.572  0.00  0.00    +0.040 C 
BRANCH   8  13
ATOM     13  C   UNL     1       3.441  -3.086   5.802  0.00  0.00    +0.066 A 
ATOM     14  C   UNL     1       3.498  -3.476   7.133  0.00  0.00    +0.030 A 
ATOM     15  C   UNL     1       4.695  -3.413   7.819  0.00  0.00    +0.040 A 
ATOM     16  C   UNL     1       5.838  -2.962   7.181  0.00  0.00    +0.124 A 
ATOM     17  C   UNL     1       5.782  -2.572   5.853  0.00  0.00    +0.040 A 
ATOM     18  C   UNL     1       4.589  -2.639   5.161  0.00  0.00    +0.030 A 
ATOM     19  F   UNL     1       7.007  -2.900   7.854  0.00  0.00    -0.205 F 
ENDBRANCH   8  13
ENDBRANCH   3   5
BRANCH   1  21
ATOM     20  C   UNL     1      -0.361   1.316   1.383  0.00  0.00    +0.033 C 
ATOM     21  C   UNL     1      -0.327  -0.173   1.034  0.00  0.00    +0.103 C 
BRANCH  21  22
ATOM     22  C   UNL     1       0.318  -0.358  -0.316  0.00  0.00    -0.026 A 
ATOM     23  C   UNL     1      -0.396  -0.940  -1.348  0.00  0.00    +0.005 A 
ATOM     24  C   UNL     1       0.192  -1.111  -2.588  0.00  0.00    +0.002 A 
ATOM     25  C   UNL     1       1.494  -0.702  -2.799  0.00  0.00    +0.023 A 
ATOM     26  C   UNL     1       2.213  -0.118  -1.764  0.00  0.00    +0.034 A 
ATOM     27  C   UNL     1       1.618   0.057  -0.521  0.00  0.00    +0.028 A 
BRANCH  26  28
ATOM     28  N   UNL     1       3.532   0.297  -1.975  0.00  0.00    -0.281 N 
ATOM     29  C   UNL     1       4.311  -0.356  -2.860  0.00  0.00    +0.248 C 
ATOM     30  O   UNL     1       3.904  -1.367  -3.398  0.00  0.00    -0.270 OA
ATOM     31  H   UNL     1       3.886   1.054  -1.484  0.00  0.00    +0.155 HD
BRANCH  29  32
ATOM     32  C   UNL     1       5.660   0.158  -3.177  0.00  0.00    +0.037 A 
ATOM     33  C   UNL     1       6.133   1.316  -2.557  0.00  0.00    +0.013 A 
ATOM     34  C   UNL     1       7.393   1.790  -2.858  0.00  0.00    +0.001 A 
ATOM     35  C   UNL     1       8.188   1.121  -3.772  0.00  0.00    +0.000 A 
ATOM     36  C   UNL     1       7.725  -0.027  -4.390  0.00  0.00    +0.001 A 
ATOM     37  C   UNL     1       6.469  -0.515  -4.094  0.00  0.00    +0.013 A 
ENDBRANCH  29  32
ENDBRANCH  26  28
ENDBRANCH  21  22
ENDBRANCH   1  21
TORSDOF 6
