REMARK  Name = ZINC64202208
REMARK  8 active torsions:
REMARK  status: ('A' for Active; 'I' for Inactive)
REMARK    1  A    between atoms: C_1  and  C_2
REMARK    2  A    between atoms: N_4  and  C_5
REMARK    3  A    between atoms: C_5  and  C_7
REMARK    4  A    between atoms: C_5  and  C_17
REMARK    5  A    between atoms: C_7  and  C_8
REMARK    6  A    between atoms: N_19  and  C_20
REMARK    7  A    between atoms: C_23  and  N_26
REMARK    8  A    between atoms: N_29  and  C_30
REMARK                            x       y       z     vdW  Elec       q    Type
REMARK                         _______ _______ _______ _____ _____    ______ ____
ROOT
ATOM      1  C   UNL     1       1.258  -2.629  -0.471  0.00  0.00    +0.238 C 
ATOM      2  O   UNL     1       1.843  -1.906   0.308  0.00  0.00    -0.273 OA
ATOM      3  N   UNL     1       1.710  -3.878  -0.701  0.00  0.00    -0.284 N 
ATOM      4  H   UNL     1       1.198  -4.485  -1.258  0.00  0.00    +0.155 HD
ENDROOT
BRANCH   3   5
ATOM      5  C   UNL     1       2.921  -4.300  -0.136  0.00  0.00    +0.034 A 
ATOM      6  C   UNL     1       3.144  -5.650   0.101  0.00  0.00    +0.025 A 
ATOM      7  C   UNL     1       4.337  -6.065   0.657  0.00  0.00    +0.025 A 
ATOM      8  C   UNL     1       5.314  -5.133   0.981  0.00  0.00    +0.035 A 
ATOM      9  C   UNL     1       5.091  -3.783   0.745  0.00  0.00    +0.025 A 
ATOM     10  C   UNL     1       3.900  -3.368   0.183  0.00  0.00    +0.025 A 
BRANCH   8  11
ATOM     11  N   UNL     1       6.524  -5.554   1.546  0.00  0.00    -0.269 N 
ATOM     12  C   UNL     1       7.142  -4.787   2.466  0.00  0.00    +0.308 C 
ATOM     13  O   UNL     1       6.694  -3.691   2.744  0.00  0.00    -0.252 OA
ATOM     14  N   UNL     1       8.256  -5.234   3.078  0.00  0.00    -0.269 N 
ATOM     15  H   UNL     1       6.918  -6.399   1.276  0.00  0.00    +0.156 HD
ATOM     16  H   UNL     1       8.658  -6.073   2.803  0.00  0.00    +0.156 HD
BRANCH  14  17
ATOM     17  C   UNL     1       8.834  -4.488   4.112  0.00  0.00    +0.035 A 
ATOM     18  C   UNL     1       8.028  -3.775   4.989  0.00  0.00    +0.023 A 
ATOM     19  C   UNL     1       8.601  -3.040   6.008  0.00  0.00    +0.002 A 
ATOM     20  C   UNL     1       9.976  -3.013   6.155  0.00  0.00    +0.000 A 
ATOM     21  C   UNL     1      10.781  -3.723   5.283  0.00  0.00    +0.002 A 
ATOM     22  C   UNL     1      10.214  -4.465   4.266  0.00  0.00    +0.023 A 
ENDBRANCH  14  17
ENDBRANCH   8  11
ENDBRANCH   3   5
BRANCH   1  23
ATOM     23  C   UNL     1       0.027  -2.131  -1.183  0.00  0.00    +0.163 C 
BRANCH  23  27
ATOM     24  C   UNL     1      -0.033   1.493   0.049  0.00  0.00    +0.109 C 
ATOM     25  C   UNL     1      -0.012  -0.014   0.022  0.00  0.00    +0.211 C 
ATOM     26  O   UNL     1      -0.012  -0.639   1.061  0.00  0.00    -0.276 OA
ATOM     27  N   UNL     1       0.006  -0.667  -1.157  0.00  0.00    -0.304 N 
ATOM     28  H   UNL     1       0.006  -0.167  -1.988  0.00  0.00    +0.149 HD
ENDBRANCH  23  27
BRANCH  23  29
ATOM     29  C   UNL     1      -1.221  -2.671  -0.481  0.00  0.00    +0.065 C 
BRANCH  29  30
ATOM     30  C   UNL     1      -2.448  -2.275  -1.262  0.00  0.00    -0.039 C 
ATOM     31  C   UNL     1      -3.096  -3.017  -2.189  0.00  0.00    -0.001 A 
ATOM     32  C   UNL     1      -2.861  -4.362  -2.728  0.00  0.00    +0.010 A 
ATOM     33  C   UNL     1      -3.700  -4.847  -3.671  0.00  0.00    +0.001 A 
ATOM     34  C   UNL     1      -4.786  -4.098  -4.147  0.00  0.00    +0.002 A 
ATOM     35  C   UNL     1      -5.066  -2.855  -3.700  0.00  0.00    +0.026 A 
ATOM     36  C   UNL     1      -4.249  -2.247  -2.708  0.00  0.00    +0.043 A 
ATOM     37  N   UNL     1      -4.311  -1.075  -2.124  0.00  0.00    -0.380 N 
ATOM     38  C   UNL     1      -3.207  -0.971  -1.163  0.00  0.00    +0.144 C 
ATOM     39  H   UNL     1      -4.979  -0.392  -2.295  0.00  0.00    +0.160 HD
ENDBRANCH  29  30
ENDBRANCH  23  29
ENDBRANCH   1  23
TORSDOF 7
