REMARK  Name = ZINC41702442
REMARK  2 active torsions:
REMARK  status: ('A' for Active; 'I' for Inactive)
REMARK    1  A    between atoms: C_1  and  C_2
REMARK    2  A    between atoms: C_11  and  N_12
REMARK                            x       y       z     vdW  Elec       q    Type
REMARK                         _______ _______ _______ _____ _____    ______ ____
ROOT
ATOM      1  C   UNL     1      -0.018   1.503   0.010  0.00  0.00    +0.046 C 
ATOM      2  C   UNL     1       0.002  -0.004   0.002  0.00  0.00    -0.023 A 
ATOM      3  C   UNL     1       0.006  -0.681  -1.179  0.00  0.00    +0.020 A 
ATOM      4  C   UNL     1       0.025  -2.073  -1.209  0.00  0.00    +0.019 A 
ATOM      5  C   UNL     1       0.040  -2.796  -0.053  0.00  0.00    +0.027 A 
ATOM      6  C   UNL     1       0.037  -2.131   1.180  0.00  0.00    +0.023 A 
ATOM      7  C   UNL     1       0.023  -0.716   1.214  0.00  0.00    +0.076 A 
ATOM      8  N   UNL     1       0.025  -0.075   2.388  0.00  0.00    -0.253 NA
ATOM      9  C   UNL     1       0.044  -0.725   3.528  0.00  0.00    +0.128 A 
ATOM     10  C   UNL     1       0.064  -2.113   3.580  0.00  0.00    +0.057 A 
ATOM     11  C   UNL     1       0.052  -2.844   2.402  0.00  0.00    +0.049 A 
ATOM     12 BR   UNL     1       0.091  -3.001   5.250  0.00  0.00    -0.047 Br
ATOM     13 BR   UNL     1       0.029  -2.972  -2.873  0.00  0.00    -0.050 Br
ENDROOT
BRANCH  11  14
ATOM     14  N   UNL     1       0.070  -4.231   2.421  0.00  0.00    -0.357 N 
ATOM     15  H   UNL     1       0.073  -4.728   1.588  0.00  0.00    +0.142 HD
ATOM     16  H   UNL     1       0.081  -4.705   3.268  0.00  0.00    +0.142 HD
ENDBRANCH  11  14
TORSDOF 1
