REMARK  Name = ZINC18189346
REMARK  5 active torsions:
REMARK  status: ('A' for Active; 'I' for Inactive)
REMARK    1  A    between atoms: C_5  and  S_7
REMARK    2  A    between atoms: S_7  and  C_8
REMARK    3  A    between atoms: C_8  and  C_9
REMARK    4  A    between atoms: C_14  and  N_16
REMARK    5  A    between atoms: N_19  and  C_20
REMARK                            x       y       z     vdW  Elec       q    Type
REMARK                         _______ _______ _______ _____ _____    ______ ____
ROOT
ATOM      1  C   UNL     1       3.495  -4.285  -0.038  0.00  0.00    +0.060 A 
ATOM      2  C   UNL     1       4.087  -4.884   1.059  0.00  0.00    +0.096 A 
ATOM      3  C   UNL     1       4.518  -6.206   0.946  0.00  0.00    +0.275 A 
ATOM      4  O   UNL     1       5.103  -6.829   1.998  0.00  0.00    -0.266 OA
ATOM      5  N   UNL     1       4.348  -6.845  -0.203  0.00  0.00    -0.172 NA
ATOM      6  C   UNL     1       3.774  -6.236  -1.238  0.00  0.00    +0.257 A 
ATOM      7  N   UNL     1       3.349  -4.978  -1.155  0.00  0.00    -0.215 NA
ENDROOT
BRANCH   6   8
ATOM      8  N   UNL     1       3.612  -6.918  -2.405  0.00  0.00    -0.177 NA
ATOM      9  C   UNL     1       3.881  -8.206  -2.457  0.00  0.00    +0.203 C 
ATOM     10  N   UNL     1       4.181  -8.890  -1.310  0.00  0.00    -0.369 N 
ATOM     11  N   UNL     1       3.859  -8.861  -3.660  0.00  0.00    -0.325 N 
ATOM     12  H   UNL     1       3.698  -8.698  -0.490  0.00  0.00    +0.159 HD
ATOM     13  H   UNL     1       3.982  -9.823  -3.691  0.00  0.00    +0.169 HD
ATOM     14  H   UNL     1       4.875  -9.567  -1.316  0.00  0.00    +0.159 HD
BRANCH  11  15
ATOM     15  C   UNL     1       3.661  -8.143  -4.845  0.00  0.00    +0.060 A 
ATOM     16  C   UNL     1       4.090  -6.826  -4.941  0.00  0.00    +0.028 A 
ATOM     17  C   UNL     1       3.893  -6.119  -6.111  0.00  0.00    +0.022 A 
ATOM     18  C   UNL     1       3.268  -6.723  -7.188  0.00  0.00    +0.042 A 
ATOM     19  C   UNL     1       2.839  -8.035  -7.097  0.00  0.00    +0.042 A 
ATOM     20  C   UNL     1       3.039  -8.749  -5.930  0.00  0.00    +0.066 A 
ATOM     21 CL   UNL     1       2.507 -10.397  -5.818  0.00  0.00    -0.081 Cl
ATOM     22 CL   UNL     1       3.021  -5.831  -8.657  0.00  0.00    -0.083 Cl
ENDBRANCH  11  15
ENDBRANCH   6   8
BRANCH   1  23
ATOM     23  C   UNL     1       3.014  -2.859   0.042  0.00  0.00    +0.131 C 
BRANCH  23  24
ATOM     24  S   UNL     1       1.292  -2.832   0.611  0.00  0.00    -0.100 S 
BRANCH  24  29
ATOM     25  C   UNL     1      -0.698   0.626   1.076  0.00  0.00    +0.004 A 
ATOM     26  C   UNL     1       0.282   1.537   0.700  0.00  0.00    +0.020 A 
ATOM     27  C   UNL     1       1.524   1.074   0.315  0.00  0.00    +0.112 A 
ATOM     28  N   UNL     1       1.790  -0.219   0.299  0.00  0.00    -0.249 NA
ATOM     29  C   UNL     1       0.883  -1.118   0.650  0.00  0.00    +0.097 A 
ATOM     30  C   UNL     1      -0.390  -0.722   1.050  0.00  0.00    +0.035 A 
ENDBRANCH  24  29
ENDBRANCH  23  24
ENDBRANCH   1  23
TORSDOF 5
