REMARK  Name = ZINC12051357
REMARK  13 active torsions:
REMARK  status: ('A' for Active; 'I' for Inactive)
REMARK    1  A    between atoms: C_1  and  C_2
REMARK    2  A    between atoms: C_3  and  C_7
REMARK    3  A    between atoms: C_7  and  N_72
REMARK    4  A    between atoms: C_8  and  N_72
REMARK    5  A    between atoms: C_9  and  C_10
REMARK    6  A    between atoms: C_9  and  N_72
REMARK    7  A    between atoms: C_12  and  C_32
REMARK    8  A    between atoms: C_15  and  O_16
REMARK    9  A    between atoms: O_16  and  C_17
REMARK   10  A    between atoms: C_17  and  C_18
REMARK   11  A    between atoms: C_22  and  C_31
REMARK   12  A    between atoms: C_27  and  C_29
REMARK   13  A    between atoms: C_27  and  C_30
REMARK                            x       y       z     vdW  Elec       q    Type
REMARK                         _______ _______ _______ _____ _____    ______ ____
ROOT
ATOM      1  C   UNL     1       5.389   4.880  -3.119  0.00  0.00    -0.022 A 
ATOM      2  C   UNL     1       6.602   4.581  -3.704  0.00  0.00    +0.014 A 
ATOM      3  C   UNL     1       7.390   3.553  -3.186  0.00  0.00    -0.011 A 
ATOM      4  C   UNL     1       6.948   2.831  -2.076  0.00  0.00    +0.012 A 
ATOM      5  C   UNL     1       5.737   3.139  -1.493  0.00  0.00    +0.046 A 
ATOM      6  C   UNL     1       4.953   4.159  -2.015  0.00  0.00    +0.123 A 
ENDROOT
BRANCH   3   7
ATOM      7  C   UNL     1       8.691   3.229  -3.810  0.00  0.00    +0.019 A 
ATOM      8  C   UNL     1       9.602   2.270  -3.458  0.00  0.00    +0.016 A 
ATOM      9  C   UNL     1      10.759   2.153  -4.197  0.00  0.00    +0.008 A 
ATOM     10  C   UNL     1      10.960   2.988  -5.248  0.00  0.00    +0.046 A 
ATOM     11  S   UNL     1       9.478   3.983  -5.224  0.00  0.00    -0.097 S 
ENDBRANCH   3   7
BRANCH   1  12
ATOM     12  C   UNL     1       4.537   5.989  -3.678  0.00  0.00    -0.039 C 
BRANCH  12  14
ATOM     13  C   UNL     1       4.184   7.003  -1.507  0.00  0.00    -0.095 C 
ATOM     14  N   UNL     1       4.741   7.205  -2.862  0.00  0.00    +0.384 N 
ATOM     15  H   UNL     1       5.748   7.390  -2.784  0.00  0.00    -0.081 HD
BRANCH  14  16
ATOM     16  C   UNL     1       4.088   8.363  -3.508  0.00  0.00    -0.017 C 
BRANCH  16  19
ATOM     17  C   UNL     1       6.619  10.118  -4.175  0.00  0.00    +0.071 C 
ATOM     18  C   UNL     1       5.625  10.403  -3.078  0.00  0.00    +0.103 A 
ATOM     19  C   UNL     1       4.494   9.618  -2.780  0.00  0.00    +0.091 A 
ATOM     20  N   UNL     1       3.851  10.149  -1.783  0.00  0.00    -0.056 NA
ATOM     21  O   UNL     1       4.563  11.311  -1.389  0.00  0.00    -0.242 OA
ATOM     22  N   UNL     1       5.678  11.412  -2.260  0.00  0.00    -0.054 NA
ENDBRANCH  16  19
ENDBRANCH  14  16
ENDBRANCH  12  14
ENDBRANCH   1  12
BRANCH   6  23
ATOM     23  O   UNL     1       3.758   4.457  -1.441  0.00  0.00    -0.483 OA
BRANCH  23  24
ATOM     24  C   UNL     1       3.370   3.676  -0.309  0.00  0.00    +0.324 C 
BRANCH  24  25
ATOM     25  C   UNL     1       2.027   4.146   0.189  0.00  0.00    +0.253 C 
ATOM     26  O   UNL     1       1.459   5.060  -0.370  0.00  0.00    -0.272 OA
ATOM     27  N   UNL     1       1.458   3.551   1.257  0.00  0.00    -0.295 N 
ATOM     28  C   UNL     1       2.038   2.446   2.036  0.00  0.00    +0.115 C 
ATOM     29  C   UNL     1       0.991   2.072   3.109  0.00  0.00    -0.014 C 
ATOM     30  C   UNL     1       0.245   3.418   3.325  0.00  0.00    +0.030 C 
ATOM     31  C   UNL     1       0.155   3.902   1.855  0.00  0.00    +0.077 C 
ATOM     32  C   UNL     1      -0.946   3.081   1.184  0.00  0.00    +0.029 C 
ATOM     33  C   UNL     1      -0.732   1.581   1.272  0.00  0.00    -0.033 C 
ATOM     34  C   UNL     1      -0.008   1.085   2.509  0.00  0.00    +0.014 C 
ATOM     35  C   UNL     1      -0.013   1.086   0.008  0.00  0.00    +0.011 C 
ATOM     36  C   UNL     1      -2.132   0.919   1.264  0.00  0.00    +0.011 C 
ATOM     37  C   UNL     1       1.639   1.550   4.401  0.00  0.00    +0.013 C 
ENDBRANCH  24  25
ENDBRANCH  23  24
ENDBRANCH   6  23
TORSDOF 8
