REMARK  Name = ZINC19732451
REMARK  2 active torsions:
REMARK  status: ('A' for Active; 'I' for Inactive)
REMARK    1  A    between atoms: C_5  and  N_8
REMARK    2  A    between atoms: C_10  and  N_15
REMARK                            x       y       z     vdW  Elec       q    Type
REMARK                         _______ _______ _______ _____ _____    ______ ____
ROOT
ATOM      1  N   UNL     1      -2.003   2.000   0.844  0.00  0.00    -0.296 N 
ATOM      2  C   UNL     1      -2.219   1.807  -0.595  0.00  0.00    +0.136 C 
ATOM      3  C   UNL     1      -0.811   1.623  -1.203  0.00  0.00    +0.144 C 
ATOM      4  C   UNL     1      -0.013   1.086   0.008  0.00  0.00    +0.125 C 
ATOM      5  C   UNL     1      -0.771   1.598   1.213  0.00  0.00    +0.218 C 
ATOM      6  O   UNL     1      -0.333   1.640   2.343  0.00  0.00    -0.276 OA
ENDROOT
BRANCH   1  11
ATOM      7  C   UNL     1      -3.870   4.432   4.383  0.00  0.00    +0.000 C 
ATOM      8  C   UNL     1      -3.781   2.944   4.770  0.00  0.00    +0.000 C 
ATOM      9  C   UNL     1      -4.416   2.044   3.745  0.00  0.00    +0.002 C 
ATOM     10  C   UNL     1      -3.322   1.561   2.771  0.00  0.00    +0.022 C 
ATOM     11  C   UNL     1      -2.998   2.559   1.761  0.00  0.00    +0.076 C 
ATOM     12  C   UNL     1      -2.436   3.856   2.378  0.00  0.00    +0.022 C 
ATOM     13  C   UNL     1      -3.588   4.680   2.889  0.00  0.00    +0.002 C 
ENDBRANCH   1  11
BRANCH   3  14
ATOM     14  N   UNL     1      -0.833   0.643  -2.292  0.00  0.00    -0.200 NA
ATOM     15  C   UNL     1      -0.379   0.948  -3.416  0.00  0.00    +0.235 C 
ATOM     16  O   UNL     1       0.060   1.242  -4.502  0.00  0.00    -0.210 OA
ENDBRANCH   3  14
TORSDOF 2
