REMARK  Name = ZINC26959335
REMARK  7 active torsions:
REMARK  status: ('A' for Active; 'I' for Inactive)
REMARK    1  A    between atoms: C_1  and  C_2
REMARK    2  A    between atoms: C_2  and  C_4
REMARK    3  A    between atoms: C_2  and  N_10
REMARK    4  A    between atoms: C_11  and  C_13
REMARK    5  A    between atoms: C_13  and  N_22
REMARK    6  A    between atoms: C_14  and  C_15
REMARK    7  A    between atoms: C_23  and  C_25
REMARK                            x       y       z     vdW  Elec       q    Type
REMARK                         _______ _______ _______ _____ _____    ______ ____
ROOT
ATOM      1  C   UNL     1       2.972   5.872   2.369  0.00  0.00    +0.097 C 
ATOM      2  C   UNL     1       4.079   5.153   2.665  0.00  0.00    +0.038 C 
ENDROOT
BRANCH   2   3
ATOM      3  C   UNL     1       5.011   5.629   3.697  0.00  0.00    -0.005 A 
ATOM      4  C   UNL     1       4.541   6.390   4.773  0.00  0.00    +0.009 A 
ATOM      5  C   UNL     1       5.420   6.828   5.740  0.00  0.00    +0.001 A 
ATOM      6  C   UNL     1       6.769   6.527   5.643  0.00  0.00    +0.001 A 
ATOM      7  C   UNL     1       7.244   5.781   4.579  0.00  0.00    +0.020 A 
ATOM      8  C   UNL     1       6.376   5.330   3.606  0.00  0.00    +0.048 A 
ATOM      9 CL   UNL     1       6.974   4.394   2.272  0.00  0.00    -0.083 Cl
ENDBRANCH   2   3
BRANCH   1  11
ATOM     10  N   UNL     1       2.162   4.125   0.869  0.00  0.00    -0.304 N 
ATOM     11  C   UNL     1       1.974   5.335   1.433  0.00  0.00    +0.259 C 
ATOM     12  O   UNL     1       0.979   5.982   1.167  0.00  0.00    -0.269 OA
ATOM     13  H   UNL     1       3.062   3.540   1.110  0.00  0.00    +0.150 HD
BRANCH  10  15
ATOM     14  C   UNL     1       1.447   4.124  -1.470  0.00  0.00    +0.033 C 
ATOM     15  C   UNL     1       1.168   3.589  -0.064  0.00  0.00    +0.100 C 
BRANCH  15  16
ATOM     16  C   UNL     1       1.248   2.084  -0.074  0.00  0.00    -0.027 A 
ATOM     17  C   UNL     1       0.091   1.330  -0.127  0.00  0.00    +0.005 A 
ATOM     18  C   UNL     1       0.165  -0.050  -0.137  0.00  0.00    +0.000 A 
ATOM     19  C   UNL     1       1.396  -0.676  -0.095  0.00  0.00    +0.000 A 
ATOM     20  C   UNL     1       2.554   0.077  -0.042  0.00  0.00    +0.000 A 
ATOM     21  C   UNL     1       2.480   1.458  -0.032  0.00  0.00    +0.005 A 
ENDBRANCH  15  16
ENDBRANCH  10  15
ENDBRANCH   1  11
BRANCH   1  22
ATOM     22  N   UNL     1       2.777   7.127   2.954  0.00  0.00    -0.277 N 
ATOM     23  C   UNL     1       1.660   7.372   3.667  0.00  0.00    +0.248 C 
ATOM     24  O   UNL     1       0.865   6.477   3.878  0.00  0.00    -0.270 OA
ATOM     25  H   UNL     1       3.535   7.915   2.831  0.00  0.00    +0.155 HD
BRANCH  23  26
ATOM     26  C   UNL     1       1.401   8.730   4.192  0.00  0.00    +0.037 A 
ATOM     27  C   UNL     1       2.364   9.731   4.051  0.00  0.00    +0.013 A 
ATOM     28  C   UNL     1       2.114  10.997   4.540  0.00  0.00    +0.001 A 
ATOM     29  C   UNL     1       0.917  11.272   5.177  0.00  0.00    +0.000 A 
ATOM     30  C   UNL     1      -0.039  10.283   5.324  0.00  0.00    +0.001 A 
ATOM     31  C   UNL     1       0.196   9.014   4.836  0.00  0.00    +0.013 A 
ENDBRANCH  23  26
ENDBRANCH   1  22
TORSDOF 6
