REMARK  Name = ZINC34830259
REMARK  7 active torsions:
REMARK  status: ('A' for Active; 'I' for Inactive)
REMARK    1  A    between atoms: C_1  and  C_2
REMARK    2  A    between atoms: C_7  and  C_8
REMARK    3  A    between atoms: N_17  and  C_18
REMARK    4  A    between atoms: C_18  and  C_19
REMARK    5  A    between atoms: C_19  and  C_20
REMARK    6  A    between atoms: C_26  and  C_29
REMARK    7  A    between atoms: C_30  and  C_32
REMARK                            x       y       z     vdW  Elec       q    Type
REMARK                         _______ _______ _______ _____ _____    ______ ____
ROOT
ATOM      1  C   UNL     1       2.259  -3.276   4.056  0.00  0.00    +0.077 C 
ENDROOT
BRANCH   1   2
ATOM      2  C   UNL     1       3.696  -3.537   3.685  0.00  0.00    +0.214 C 
ATOM      3  O   UNL     1       4.096  -3.255   2.575  0.00  0.00    -0.276 OA
ATOM      4  N   UNL     1       4.537  -4.083   4.585  0.00  0.00    -0.298 N 
ATOM      5  C   UNL     1       4.064  -4.436   5.932  0.00  0.00    +0.127 C 
ATOM      6  C   UNL     1       4.958  -3.736   6.963  0.00  0.00    +0.127 C 
ATOM      7  N   UNL     1       6.364  -3.991   6.617  0.00  0.00    -0.292 N 
ATOM      8  C   UNL     1       6.836  -3.639   5.270  0.00  0.00    +0.091 C 
ATOM      9  C   UNL     1       5.941  -4.343   4.237  0.00  0.00    +0.130 C 
ATOM     10  C   UNL     1       6.758  -2.123   5.079  0.00  0.00    +0.029 C 
ATOM     11  C   UNL     1       7.204  -4.537   7.517  0.00  0.00    +0.247 C 
ATOM     12  O   UNL     1       6.822  -4.759   8.650  0.00  0.00    -0.270 OA
BRANCH  11  13
ATOM     13  C   UNL     1       8.591  -4.867   7.128  0.00  0.00    +0.037 A 
ATOM     14  C   UNL     1       9.396  -3.903   6.518  0.00  0.00    +0.014 A 
ATOM     15  C   UNL     1      10.690  -4.217   6.158  0.00  0.00    +0.021 A 
ATOM     16  C   UNL     1      11.191  -5.485   6.400  0.00  0.00    +0.041 A 
ATOM     17  C   UNL     1      10.397  -6.445   7.005  0.00  0.00    +0.021 A 
ATOM     18  C   UNL     1       9.104  -6.142   7.375  0.00  0.00    +0.014 A 
ATOM     19 CL   UNL     1      12.820  -5.872   5.942  0.00  0.00    -0.084 Cl
ENDBRANCH  11  13
ENDBRANCH   1   2
BRANCH   1  20
ATOM     20  C   UNL     1       1.528  -2.657   2.864  0.00  0.00    -0.068 C 
BRANCH  20  29
ATOM     21  C   UNL     1      -0.598  -1.921   2.044  0.00  0.00    -0.006 C 
ATOM     22  C   UNL     1      -2.023  -1.562   2.452  0.00  0.00    -0.047 A 
ATOM     23  C   UNL     1      -3.084  -1.448   1.558  0.00  0.00    +0.010 A 
ATOM     24  C   UNL     1      -4.319  -1.127   2.010  0.00  0.00    +0.045 A 
ATOM     25  S   UNL     1      -4.037  -0.965   3.768  0.00  0.00    -0.101 S 
ATOM     26  C   UNL     1      -2.307  -1.333   3.765  0.00  0.00    -0.010 A 
ATOM     27  C   UNL     1      -1.341  -1.390   4.904  0.00  0.00    +0.024 C 
ATOM     28  C   UNL     1       0.077  -1.411   4.309  0.00  0.00    -0.072 C 
ATOM     29  N   UNL     1       0.127  -2.403   3.226  0.00  0.00    +0.388 N 
ATOM     30  H   UNL     1      -0.293  -3.263   3.546  0.00  0.00    -0.080 HD
BRANCH  21  37
ATOM     31  C   UNL     1      -0.908  -1.224  -0.742  0.00  0.00    +0.044 C 
ATOM     32  C   UNL     1      -0.778  -2.669  -0.338  0.00  0.00    -0.049 A 
ATOM     33  C   UNL     1      -0.801  -3.662  -1.300  0.00  0.00    +0.003 A 
ATOM     34  C   UNL     1      -0.682  -4.988  -0.929  0.00  0.00    +0.000 A 
ATOM     35  C   UNL     1      -0.539  -5.322   0.405  0.00  0.00    +0.000 A 
ATOM     36  C   UNL     1      -0.515  -4.330   1.367  0.00  0.00    +0.002 A 
ATOM     37  C   UNL     1      -0.629  -3.003   0.996  0.00  0.00    -0.054 A 
ENDBRANCH  21  37
ENDBRANCH  20  29
ENDBRANCH   1  20
TORSDOF 5
