REMARK  Name = ZINC54649155
REMARK  7 active torsions:
REMARK  status: ('A' for Active; 'I' for Inactive)
REMARK    1  A    between atoms: C_3  and  C_6
REMARK    2  A    between atoms: C_6  and  C_8
REMARK    3  A    between atoms: C_6  and  N_24
REMARK    4  A    between atoms: C_8  and  N_9
REMARK    5  A    between atoms: N_12  and  C_13
REMARK    6  A    between atoms: C_13  and  C_14
REMARK    7  A    between atoms: N_16  and  C_17
REMARK                            x       y       z     vdW  Elec       q    Type
REMARK                         _______ _______ _______ _____ _____    ______ ____
ROOT
ATOM      1  N   UNL     1       5.993   2.104   1.388  0.00  0.00    -0.301 N 
ATOM      2  C   UNL     1       6.881   2.089   2.402  0.00  0.00    +0.300 C 
ATOM      3  O   UNL     1       6.512   1.818   3.529  0.00  0.00    -0.253 OA
ATOM      4  N   UNL     1       8.177   2.375   2.168  0.00  0.00    -0.291 N 
ATOM      5  H   UNL     1       6.288   2.320   0.489  0.00  0.00    +0.150 HD
ATOM      6  H   UNL     1       8.471   2.591   1.269  0.00  0.00    +0.151 HD
ENDROOT
BRANCH   1   7
ATOM      7  C   UNL     1       4.585   1.793   1.642  0.00  0.00    +0.095 C 
BRANCH   7   8
ATOM      8  C   UNL     1       3.822   1.759   0.316  0.00  0.00    -0.013 C 
BRANCH   8   9
ATOM      9  N   UNL     1       2.440   1.323   0.557  0.00  0.00    +0.386 N 
ATOM     10  C   UNL     1       1.739   1.107  -0.734  0.00  0.00    -0.078 C 
ATOM     11  C   UNL     1       0.578   0.154  -0.352  0.00  0.00    -0.020 C 
ATOM     12  C   UNL     1       1.225  -0.774   0.701  0.00  0.00    -0.020 C 
ATOM     13  C   UNL     1       2.431   0.013   1.245  0.00  0.00    -0.078 C 
ATOM     14  H   UNL     1       1.949   2.009   1.110  0.00  0.00    -0.081 HD
ENDBRANCH   8   9
BRANCH   8  17
ATOM     15  C   UNL     1       4.409   4.944  -1.689  0.00  0.00    +0.008 A 
ATOM     16  C   UNL     1       4.596   3.636  -1.284  0.00  0.00    +0.009 A 
ATOM     17  C   UNL     1       3.815   3.136  -0.294  0.00  0.00    -0.022 A 
ATOM     18  S   UNL     1       2.775   4.534   0.096  0.00  0.00    -0.103 S 
ATOM     19  C   UNL     1       3.451   5.689  -1.085  0.00  0.00    +0.045 A 
ENDBRANCH   8  17
ENDBRANCH   7   8
ENDBRANCH   1   7
BRANCH   4  20
ATOM     20  C   UNL     1       9.141   2.359   3.270  0.00  0.00    +0.202 C 
BRANCH  20  21
ATOM     21  C   UNL     1      10.510   2.710   2.746  0.00  0.00    +0.234 C 
ATOM     22  O   UNL     1      10.664   2.950   1.567  0.00  0.00    -0.274 OA
ATOM     23  N   UNL     1      11.562   2.757   3.587  0.00  0.00    -0.284 N 
ATOM     24  H   UNL     1      11.428   2.634   4.539  0.00  0.00    +0.155 HD
BRANCH  23  25
ATOM     25  C   UNL     1      12.849   2.984   3.085  0.00  0.00    +0.034 A 
ATOM     26  C   UNL     1      13.943   2.357   3.667  0.00  0.00    +0.025 A 
ATOM     27  C   UNL     1      15.211   2.583   3.171  0.00  0.00    +0.022 A 
ATOM     28  C   UNL     1      15.393   3.433   2.094  0.00  0.00    +0.041 A 
ATOM     29  C   UNL     1      14.305   4.059   1.512  0.00  0.00    +0.022 A 
ATOM     30  C   UNL     1      13.033   3.833   2.001  0.00  0.00    +0.025 A 
ATOM     31 CL   UNL     1      16.989   3.716   1.472  0.00  0.00    -0.084 Cl
ENDBRANCH  23  25
ENDBRANCH  20  21
ENDBRANCH   4  20
TORSDOF 7
