REMARK  Name = ZINC13576787
REMARK  2 active torsions:
REMARK  status: ('A' for Active; 'I' for Inactive)
REMARK    1  A    between atoms: C_2  and  C_12
REMARK    2  A    between atoms: C_17  and  C_18
REMARK                            x       y       z     vdW  Elec       q    Type
REMARK                         _______ _______ _______ _____ _____    ______ ____
ROOT
ATOM      1  C   UNL     1      -1.259   4.948  -0.313  0.00  0.00    +0.005 A 
ATOM      2  C   UNL     1      -1.281   3.830   0.533  0.00  0.00    +0.036 A 
ATOM      3  C   UNL     1      -1.068   2.565   0.041  0.00  0.00    +0.052 A 
ATOM      4  N   UNL     1      -0.824   2.344  -1.293  0.00  0.00    -0.326 N 
ATOM      5  C   UNL     1      -0.792   3.400  -2.179  0.00  0.00    +0.123 A 
ATOM      6  C   UNL     1      -1.016   4.763  -1.686  0.00  0.00    +0.099 A 
ATOM      7  C   UNL     1      -0.597   0.985  -1.790  0.00  0.00    +0.128 C 
ATOM      8  C   UNL     1       0.212   0.171  -0.780  0.00  0.00    +0.057 C 
ATOM      9  C   UNL     1      -0.465   0.224   0.565  0.00  0.00    -0.033 A 
ATOM     10  C   UNL     1      -1.099   1.407   0.958  0.00  0.00    +0.005 A 
ATOM     11  C   UNL     1      -1.743   1.480   2.192  0.00  0.00    +0.059 A 
ATOM     12  C   UNL     1      -1.746   0.378   3.027  0.00  0.00    +0.167 A 
ATOM     13  C   UNL     1      -1.105  -0.798   2.634  0.00  0.00    +0.167 A 
ATOM     14  C   UNL     1      -0.467  -0.869   1.402  0.00  0.00    +0.054 A 
ATOM     15  O   UNL     1      -1.250  -1.724   3.625  0.00  0.00    -0.453 OA
ATOM     16  C   UNL     1      -1.630  -0.978   4.797  0.00  0.00    +0.466 C 
ATOM     17  O   UNL     1      -2.291   0.184   4.264  0.00  0.00    -0.453 OA
ATOM     18  H   UNL     1      -0.521   3.867  -4.152  0.00  0.00    +0.157 HD
ATOM     19  N   UNL     1      -0.554   3.117  -3.462  0.00  0.00    -0.384 N 
ATOM     20  H   UNL     1      -0.404   2.144  -3.754  0.00  0.00    +0.157 HD
ENDROOT
BRANCH   1  22
ATOM     21  C   UNL     1      -0.601   7.338  -0.070  0.00  0.00    +0.058 A 
ATOM     22  C   UNL     1      -1.489   6.304   0.231  0.00  0.00    -0.012 A 
ATOM     23  C   UNL     1      -2.591   6.551   1.052  0.00  0.00    +0.027 A 
ATOM     24  C   UNL     1      -2.802   7.817   1.557  0.00  0.00    +0.064 A 
ATOM     25  C   UNL     1      -1.922   8.848   1.253  0.00  0.00    +0.176 A 
ATOM     26  C   UNL     1      -0.821   8.607   0.436  0.00  0.00    +0.164 A 
ATOM     27  O   UNL     1       0.053   9.605   0.132  0.00  0.00    -0.485 OA
ATOM     28  C   UNL     1      -0.399  10.946   0.354  0.00  0.00    +0.270 C 
ATOM     29  C   UNL     1      -1.054  11.008   1.741  0.00  0.00    +0.270 C 
ATOM     30  O   UNL     1      -2.153  10.090   1.759  0.00  0.00    -0.484 OA
ATOM     31 BR   UNL     1      -4.296   8.150   2.668  0.00  0.00    -0.046 Br
ENDBRANCH   1  22
BRANCH   6  32
ATOM     32  C   UNL     1      -0.988   5.880  -2.581  0.00  0.00    +0.103 C 
ATOM     33  N   UNL     1      -0.966   6.766  -3.292  0.00  0.00    -0.191 NA
ENDBRANCH   6  32
TORSDOF 2
