REMARK  Name = ZINC12983832
REMARK  9 active torsions:
REMARK  status: ('A' for Active; 'I' for Inactive)
REMARK    1  A    between atoms: C_1  and  C_2
REMARK    2  A    between atoms: C_2  and  C_4
REMARK    3  A    between atoms: C_2  and  N_61
REMARK    4  A    between atoms: C_7  and  S_10
REMARK    5  A    between atoms: S_10  and  N_13
REMARK    6  A    between atoms: C_14  and  N_61
REMARK    7  A    between atoms: C_15  and  C_16
REMARK    8  A    between atoms: C_15  and  N_61
REMARK    9  A    between atoms: N_18  and  C_19
REMARK                            x       y       z     vdW  Elec       q    Type
REMARK                         _______ _______ _______ _____ _____    ______ ____
ROOT
ATOM      1  C   UNL     1      -4.888   0.915   0.245  0.00  0.00    +0.019 C 
ENDROOT
BRANCH   1   2
ATOM      2  C   UNL     1      -3.601   1.691   0.130  0.00  0.00    +0.201 C 
ATOM      3  O   UNL     1      -3.621   2.903   0.137  0.00  0.00    -0.278 OA
ATOM      4  N   UNL     1      -2.428   1.037   0.019  0.00  0.00    -0.287 N 
ATOM      5  H   UNL     1      -2.417   0.070  -0.064  0.00  0.00    +0.155 HD
BRANCH   4   6
ATOM      6  C   UNL     1      -1.224   1.753   0.023  0.00  0.00    +0.037 A 
ATOM      7  C   UNL     1      -1.106   2.910   0.782  0.00  0.00    +0.027 A 
ATOM      8  C   UNL     1       0.079   3.620   0.782  0.00  0.00    +0.051 A 
ATOM      9  C   UNL     1       1.155   3.178   0.030  0.00  0.00    +0.167 A 
ATOM     10  C   UNL     1       1.042   2.015  -0.728  0.00  0.00    +0.169 A 
ATOM     11  C   UNL     1      -0.146   1.304  -0.728  0.00  0.00    +0.072 A 
ATOM     12  O   UNL     1       2.227   1.795  -1.371  0.00  0.00    -0.447 OA
ATOM     13  C   UNL     1       3.187   2.618  -0.694  0.00  0.00    +0.254 C 
ATOM     14  O   UNL     1       2.411   3.689  -0.138  0.00  0.00    -0.448 OA
ATOM     15  C   UNL     1       4.211   3.162  -1.684  0.00  0.00    +0.093 C 
ATOM     16  C   UNL     1       5.005   2.002  -2.289  0.00  0.00    +0.008 C 
ATOM     17  C   UNL     1       5.712   1.233  -1.171  0.00  0.00    +0.000 C 
ATOM     18  C   UNL     1       4.673   0.675  -0.196  0.00  0.00    +0.008 C 
ATOM     19  C   UNL     1       3.876   1.830   0.415  0.00  0.00    +0.093 C 
ENDBRANCH   4   6
ENDBRANCH   1   2
BRANCH   1  21
ATOM     20  C   UNL     1      -6.181   2.620  -0.887  0.00  0.00    -0.095 C 
ATOM     21  N   UNL     1      -6.010   1.869   0.374  0.00  0.00    +0.388 N 
ATOM     22  H   UNL     1      -5.799   2.530   1.131  0.00  0.00    -0.081 HD
BRANCH  21  24
ATOM     23  C   UNL     1      -7.075   0.434   2.047  0.00  0.00    -0.008 C 
ATOM     24  C   UNL     1      -7.254   1.143   0.703  0.00  0.00    -0.041 C 
BRANCH  24  25
ATOM     25  C   UNL     1      -8.386   2.133   0.805  0.00  0.00    -0.061 A 
ATOM     26  C   UNL     1      -8.176   3.365   1.393  0.00  0.00    +0.004 A 
ATOM     27  C   UNL     1      -9.213   4.275   1.482  0.00  0.00    +0.029 A 
ATOM     28  C   UNL     1     -10.463   3.948   0.991  0.00  0.00    +0.105 A 
ATOM     29  C   UNL     1     -10.675   2.713   0.407  0.00  0.00    +0.029 A 
ATOM     30  C   UNL     1      -9.637   1.805   0.314  0.00  0.00    +0.004 A 
BRANCH  28  31
ATOM     31  S   UNL     1     -11.787   5.105   1.111  0.00  0.00    +0.056 S 
ATOM     32  O   UNL     1     -11.194   6.392   1.206  0.00  0.00    -0.153 OA
ATOM     33  O   UNL     1     -12.715   4.767   0.089  0.00  0.00    -0.153 OA
BRANCH  31  34
ATOM     34  N   UNL     1     -12.551   4.827   2.554  0.00  0.00    -0.204 NA
ATOM     35  H   UNL     1     -12.233   4.125   3.143  0.00  0.00    +0.144 HD
ATOM     36  H   UNL     1     -13.315   5.367   2.810  0.00  0.00    +0.144 HD
ENDBRANCH  31  34
ENDBRANCH  28  31
ENDBRANCH  24  25
ENDBRANCH  21  24
ENDBRANCH   1  21
TORSDOF 7
