REMARK  Name = ZINC27193399
REMARK  6 active torsions:
REMARK  status: ('A' for Active; 'I' for Inactive)
REMARK    1  A    between atoms: C_3  and  C_25
REMARK    2  A    between atoms: C_6  and  C_7
REMARK    3  A    between atoms: C_10  and  C_12
REMARK    4  A    between atoms: C_16  and  C_21
REMARK    5  A    between atoms: N_22  and  O_23
REMARK    6  A    between atoms: N_27  and  O_28
REMARK                            x       y       z     vdW  Elec       q    Type
REMARK                         _______ _______ _______ _____ _____    ______ ____
ROOT
ATOM      1  C   UNL     1      -1.638  -5.556  -0.009  0.00  0.00    +0.136 A 
ATOM      2  C   UNL     1      -2.833  -4.901   0.006  0.00  0.00    +0.050 A 
ATOM      3  C   UNL     1      -2.546  -3.528   0.009  0.00  0.00    +0.052 A 
ATOM      4  C   UNL     1      -1.189  -3.405  -0.003  0.00  0.00    +0.155 A 
ATOM      5  O   UNL     1      -0.651  -4.639  -0.020  0.00  0.00    -0.453 OA
ENDROOT
BRANCH   4   6
ATOM      6  C   UNL     1      -0.436  -2.134  -0.004  0.00  0.00    +0.125 A 
ATOM      7  C   UNL     1       0.923  -2.009  -0.017  0.00  0.00    +0.124 A 
ATOM      8  N   UNL     1       1.202  -0.670  -0.013  0.00  0.00    -0.305 N 
ATOM      9  C   UNL     1       2.377   0.019  -0.021  0.00  0.00    +0.104 A 
ATOM     10  C   UNL     1       2.379   1.382  -0.013  0.00  0.00    +0.034 A 
ATOM     11  C   UNL     1       1.154   2.092   0.002  0.00  0.00    +0.016 A 
ATOM     12  C   UNL     1      -0.017   1.408   0.010  0.00  0.00    +0.047 A 
ATOM     13  C   UNL     1       0.002  -0.004   0.002  0.00  0.00    +0.138 A 
ATOM     14  N   UNL     1      -0.972  -0.901   0.007  0.00  0.00    -0.225 NA
BRANCH  10  15
ATOM     15  C   UNL     1       3.662   2.119  -0.021  0.00  0.00    +0.164 C 
ATOM     16  N   UNL     1       4.787   1.467  -0.035  0.00  0.00    -0.071 NA
ATOM     17  N   UNL     1       3.664   3.504  -0.013  0.00  0.00    -0.340 N 
ATOM     18  H   UNL     1       4.618   4.052  -0.018  0.00  0.00    +0.144 HD
ATOM     19  H   UNL     1       2.713   4.056  -0.001  0.00  0.00    +0.144 HD
BRANCH  16  20
ATOM     20  O   UNL     1       6.015   2.172  -0.042  0.00  0.00    -0.408 OA
ATOM     21  H   UNL     1       6.967   1.621  -0.054  0.00  0.00    +0.328 HD
ENDBRANCH  16  20
ENDBRANCH  10  15
ENDBRANCH   4   6
BRANCH   1  27
ATOM     22  C   UNL     1      -2.572  -7.863  -0.006  0.00  0.00    +0.012 A 
ATOM     23  C   UNL     1      -2.402  -9.219  -0.020  0.00  0.00    +0.012 A 
ATOM     24  C   UNL     1      -1.116  -9.762  -0.035  0.00  0.00    +0.017 A 
ATOM     25  C   UNL     1      -0.001  -8.920  -0.041  0.00  0.00    +0.012 A 
ATOM     26  C   UNL     1      -0.168  -7.565  -0.033  0.00  0.00    +0.012 A 
ATOM     27  C   UNL     1      -1.456  -7.020  -0.018  0.00  0.00    +0.017 A 
BRANCH  24  28
ATOM     28  C   UNL     1      -0.933 -11.230  -0.043  0.00  0.00    +0.129 C 
ATOM     29  N   UNL     1       0.267 -11.737  -0.056  0.00  0.00    -0.383 N 
ATOM     30  N   UNL     1      -2.033 -12.061  -0.036  0.00  0.00    -0.253 N 
ATOM     31  H   UNL     1       0.403 -12.829  -0.062  0.00  0.00    +0.157 HD
ATOM     32  H   UNL     1      -3.046 -11.633  -0.025  0.00  0.00    +0.195 HD
ATOM     33  H   UNL     1       1.145 -11.074  -0.061  0.00  0.00    +0.157 HD
BRANCH  30  34
ATOM     34  O   UNL     1      -1.859 -13.466  -0.044  0.00  0.00    -0.288 OA
ATOM     35  H   UNL     1      -2.736 -14.129  -0.038  0.00  0.00    +0.244 HD
ENDBRANCH  30  34
ENDBRANCH  24  28
ENDBRANCH   1  27
TORSDOF 6
