REMARK  Name = ZINC27257968
REMARK  16 active torsions:
REMARK  status: ('A' for Active; 'I' for Inactive)
REMARK    1  A    between atoms: C_1  and  C_2
REMARK    2  A    between atoms: C_2  and  C_3
REMARK    3  A    between atoms: C_3  and  C_4
REMARK    4  A    between atoms: C_4  and  O_5
REMARK    5  A    between atoms: O_5  and  C_6
REMARK    6  A    between atoms: C_9  and  C_12
REMARK    7  A    between atoms: C_12  and  C_13
REMARK    8  A    between atoms: C_12  and  C_16
REMARK    9  A    between atoms: C_12  and  O_35
REMARK   10  A    between atoms: C_13  and  C_14
REMARK   11  A    between atoms: C_16  and  C_18
REMARK   12  A    between atoms: C_16  and  C_28
REMARK   13  A    between atoms: C_18  and  N_19
REMARK   14  A    between atoms: N_19  and  C_20
REMARK   15  A    between atoms: N_19  and  C_21
REMARK   16  A    between atoms: C_21  and  C_22
REMARK                            x       y       z     vdW  Elec       q    Type
REMARK                         _______ _______ _______ _____ _____    ______ ____
ROOT
ATOM      1  C   UNL     1       2.079   4.427   0.727  0.00  0.00    +0.069 C 
ENDROOT
BRANCH   1   2
ATOM      2  C   UNL     1       3.452   4.203   0.147  0.00  0.00    -0.040 A 
ATOM      3  C   UNL     1       3.722   4.582  -1.155  0.00  0.00    +0.005 A 
ATOM      4  C   UNL     1       4.982   4.383  -1.686  0.00  0.00    +0.020 A 
ATOM      5  C   UNL     1       5.971   3.793  -0.917  0.00  0.00    +0.041 A 
ATOM      6  C   UNL     1       5.698   3.409   0.383  0.00  0.00    +0.020 A 
ATOM      7  C   UNL     1       4.439   3.615   0.915  0.00  0.00    +0.005 A 
ATOM      8 CL   UNL     1       7.552   3.536  -1.586  0.00  0.00    -0.084 Cl
ENDBRANCH   1   2
BRANCH   1   9
ATOM      9  C   UNL     1       1.050   3.630  -0.077  0.00  0.00    +0.102 C 
BRANCH   9  13
ATOM     10  C   UNL     1      -2.874   4.490   1.381  0.00  0.00    +0.121 A 
ATOM     11  C   UNL     1      -2.572   4.686   0.041  0.00  0.00    +0.046 A 
ATOM     12  C   UNL     1      -1.303   4.407  -0.428  0.00  0.00    +0.010 A 
ATOM     13  C   UNL     1      -0.334   3.933   0.437  0.00  0.00    -0.015 A 
ATOM     14  C   UNL     1      -0.632   3.737   1.772  0.00  0.00    +0.010 A 
ATOM     15  C   UNL     1      -1.900   4.014   2.246  0.00  0.00    +0.046 A 
BRANCH  10  16
ATOM     16  O   UNL     1      -4.122   4.764   1.845  0.00  0.00    -0.492 OA
BRANCH  16  17
ATOM     17  C   UNL     1      -4.361   4.539   3.235  0.00  0.00    +0.229 C 
BRANCH  17  18
ATOM     18  C   UNL     1      -5.809   4.901   3.569  0.00  0.00    +0.041 C 
BRANCH  18  20
ATOM     19  C   UNL     1      -7.514   5.022   5.391  0.00  0.00    +0.004 C 
ATOM     20  C   UNL     1      -6.066   4.660   5.058  0.00  0.00    -0.000 C 
ENDBRANCH  18  20
ENDBRANCH  17  18
ENDBRANCH  16  17
ENDBRANCH  10  16
ENDBRANCH   9  13
BRANCH   9  21
ATOM     21  O   UNL     1       1.136   3.994  -1.456  0.00  0.00    -0.383 OA
ATOM     22  H   UNL     1       2.077   3.845  -2.007  0.00  0.00    +0.211 HD
ENDBRANCH   9  21
BRANCH   9  23
ATOM     23  C   UNL     1       1.333   2.133   0.073  0.00  0.00    +0.066 C 
BRANCH  23  24
ATOM     24  C   UNL     1       2.682   1.816  -0.519  0.00  0.00    -0.031 C 
ATOM     25  C   UNL     1       3.578   1.182   0.197  0.00  0.00    +0.004 C 
ENDBRANCH  23  24
ENDBRANCH   9  23
ENDBRANCH   1   9
BRANCH   1  26
ATOM     26  C   UNL     1       1.734   5.916   0.662  0.00  0.00    +0.095 C 
BRANCH  26  27
ATOM     27  N   UNL     1       2.637   6.666   1.545  0.00  0.00    -0.300 NA
ATOM     28  C   UNL     1       2.408   6.315   2.953  0.00  0.00    +0.105 C 
BRANCH  27  29
ATOM     29  C   UNL     1       2.497   8.113   1.334  0.00  0.00    +0.119 C 
BRANCH  29  30
ATOM     30  C   UNL     1       3.598   8.836   2.067  0.00  0.00    -0.033 A 
ATOM     31  C   UNL     1       3.404   9.248   3.372  0.00  0.00    +0.005 A 
ATOM     32  C   UNL     1       4.416   9.906   4.046  0.00  0.00    +0.000 A 
ATOM     33  C   UNL     1       5.616  10.163   3.411  0.00  0.00    +0.000 A 
ATOM     34  C   UNL     1       5.808   9.757   2.104  0.00  0.00    +0.000 A 
ATOM     35  C   UNL     1       4.798   9.093   1.432  0.00  0.00    +0.005 A 
ENDBRANCH  29  30
ENDBRANCH  27  29
ENDBRANCH  26  27
ENDBRANCH   1  26
TORSDOF 14
