REMARK  Name = ZINC00694828
REMARK  7 active torsions:
REMARK  status: ('A' for Active; 'I' for Inactive)
REMARK    1  A    between atoms: C_1  and  C_2
REMARK    2  A    between atoms: C_3  and  C_28
REMARK    3  A    between atoms: C_4  and  N_9
REMARK    4  A    between atoms: C_6  and  C_8
REMARK    5  A    between atoms: N_17  and  C_18
REMARK    6  A    between atoms: C_22  and  C_24
REMARK    7  A    between atoms: C_28  and  C_29
REMARK                            x       y       z     vdW  Elec       q    Type
REMARK                         _______ _______ _______ _____ _____    ______ ____
ROOT
ATOM      1  N   UNL     1       1.533   4.380   9.052  0.00  0.00    -0.312 N 
ATOM      2  C   UNL     1       0.142   4.757   8.768  0.00  0.00    +0.125 C 
ATOM      3  C   UNL     1      -0.602   3.549   8.189  0.00  0.00    +0.128 C 
ATOM      4  N   UNL     1       0.154   3.044   7.033  0.00  0.00    -0.282 N 
ATOM      5  C   UNL     1       1.588   2.768   7.207  0.00  0.00    +0.128 C 
ATOM      6  C   UNL     1       2.248   4.012   7.823  0.00  0.00    +0.125 C 
ATOM      7  C   UNL     1      -0.452   2.835   5.848  0.00  0.00    +0.307 C 
ATOM      8  O   UNL     1       0.157   2.304   4.939  0.00  0.00    -0.252 OA
ATOM      9  N   UNL     1      -1.733   3.214   5.670  0.00  0.00    -0.269 N 
ATOM     10  H   UNL     1      -2.235   3.832   6.429  0.00  0.00    +0.156 HD
ENDROOT
BRANCH   1  14
ATOM     11  C   UNL     1       2.916   6.547  13.250  0.00  0.00    +0.064 C 
ATOM     12  C   UNL     1       2.877   6.463  11.746  0.00  0.00    +0.021 A 
ATOM     13  C   UNL     1       2.203   5.431  11.121  0.00  0.00    +0.016 A 
ATOM     14  C   UNL     1       2.195   5.394   9.726  0.00  0.00    +0.128 A 
ATOM     15  N   UNL     1       2.836   6.346   9.053  0.00  0.00    -0.219 NA
ATOM     16  C   UNL     1       3.462   7.314   9.690  0.00  0.00    +0.106 A 
ATOM     17  N   UNL     1       3.488   7.377  11.007  0.00  0.00    -0.347 N 
ATOM     18  C   UNL     1       4.172   8.377   8.892  0.00  0.00    +0.086 C 
ATOM     19  H   UNL     1       4.029   8.204  11.490  0.00  0.00    +0.167 HD
BRANCH  13  20
ATOM     20  C   UNL     1       1.495   4.372  11.926  0.00  0.00    +0.075 C 
BRANCH  20  21
ATOM     21  C   UNL     1       2.466   3.273  12.276  0.00  0.00    -0.040 A 
ATOM     22  C   UNL     1       2.731   2.269  11.363  0.00  0.00    +0.004 A 
ATOM     23  C   UNL     1       3.624   1.264  11.680  0.00  0.00    +0.003 A 
ATOM     24  C   UNL     1       4.246   1.255  12.914  0.00  0.00    +0.038 A 
ATOM     25  C   UNL     1       3.978   2.257  13.831  0.00  0.00    +0.124 A 
ATOM     26  C   UNL     1       3.086   3.267  13.510  0.00  0.00    +0.042 A 
ATOM     27  F   UNL     1       4.584   2.249  15.038  0.00  0.00    -0.205 F 
ENDBRANCH  20  21
ENDBRANCH  13  20
ENDBRANCH   1  14
BRANCH   9  28
ATOM     28  C   UNL     1      -2.426   2.821   4.519  0.00  0.00    +0.035 A 
ATOM     29  C   UNL     1      -1.730   2.537   3.351  0.00  0.00    +0.023 A 
ATOM     30  C   UNL     1      -2.417   2.149   2.217  0.00  0.00    +0.002 A 
ATOM     31  C   UNL     1      -3.795   2.038   2.246  0.00  0.00    +0.012 A 
ATOM     32  C   UNL     1      -4.491   2.325   3.406  0.00  0.00    +0.057 A 
ATOM     33  C   UNL     1      -3.810   2.713   4.543  0.00  0.00    +0.035 A 
BRANCH  32  34
ATOM     34  C   UNL     1      -5.993   2.207   3.431  0.00  0.00    +0.417 C 
ATOM     35  F   UNL     1      -6.563   3.433   3.070  0.00  0.00    -0.166 F 
ATOM     36  F   UNL     1      -6.412   1.859   4.719  0.00  0.00    -0.166 F 
ATOM     37  F   UNL     1      -6.399   1.220   2.526  0.00  0.00    -0.166 F 
ENDBRANCH  32  34
ENDBRANCH   9  28
TORSDOF 5
