REMARK  Name = ZINC47872193
REMARK  11 active torsions:
REMARK  status: ('A' for Active; 'I' for Inactive)
REMARK    1  A    between atoms: C_1  and  C_2
REMARK    2  A    between atoms: C_7  and  N_12
REMARK    3  A    between atoms: C_9  and  C_11
REMARK    4  A    between atoms: N_12  and  C_13
REMARK    5  A    between atoms: C_13  and  N_15
REMARK    6  A    between atoms: N_15  and  N_16
REMARK    7  A    between atoms: C_17  and  C_19
REMARK    8  A    between atoms: C_19  and  C_21
REMARK    9  A    between atoms: C_19  and  N_24
REMARK   10  A    between atoms: C_21  and  C_22
REMARK   11  A    between atoms: C_21  and  C_23
REMARK                            x       y       z     vdW  Elec       q    Type
REMARK                         _______ _______ _______ _____ _____    ______ ____
ROOT
ATOM      1  N   UNL     1       1.973  -1.541   5.885  0.00  0.00    -0.234 N 
ATOM      2  C   UNL     1       2.686  -1.953   6.952  0.00  0.00    +0.250 C 
ATOM      3  O   UNL     1       2.698  -1.288   7.966  0.00  0.00    -0.272 OA
ATOM      4  H   UNL     1       2.021  -2.034   5.050  0.00  0.00    +0.173 HD
ENDROOT
BRANCH   1   5
ATOM      5  N   UNL     1       1.161  -0.403   5.981  0.00  0.00    -0.246 N 
ATOM      6  H   UNL     1       1.113   0.089   6.815  0.00  0.00    +0.172 HD
BRANCH   5   7
ATOM      7  C   UNL     1       0.448   0.008   4.913  0.00  0.00    +0.147 C 
ATOM      8  S   UNL     1      -0.543   1.398   5.030  0.00  0.00    -0.017 S 
BRANCH   7   9
ATOM      9  N   UNL     1       0.516  -0.676   3.754  0.00  0.00    -0.322 N 
ATOM     10  H   UNL     1       1.078  -1.464   3.687  0.00  0.00    +0.148 HD
BRANCH   9  16
ATOM     11  C   UNL     1      -0.461   1.274   0.087  0.00  0.00    +0.008 C 
ATOM     12  C   UNL     1      -0.396  -0.254   0.099  0.00  0.00    -0.009 C 
ATOM     13  C   UNL     1      -1.814  -0.824   0.183  0.00  0.00    +0.003 C 
ATOM     14  C   UNL     1      -2.486  -0.332   1.466  0.00  0.00    +0.002 C 
ATOM     15  C   UNL     1      -1.677  -0.799   2.677  0.00  0.00    +0.022 C 
ATOM     16  C   UNL     1      -0.259  -0.229   2.594  0.00  0.00    +0.075 C 
ATOM     17  C   UNL     1       0.413  -0.721   1.311  0.00  0.00    +0.009 C 
ATOM     18  C   UNL     1       1.831  -0.151   1.227  0.00  0.00    +0.009 C 
ENDBRANCH   9  16
ENDBRANCH   7   9
ENDBRANCH   5   7
ENDBRANCH   1   5
BRANCH   2  19
ATOM     19  C   UNL     1       3.469  -3.239   6.885  0.00  0.00    +0.164 C 
BRANCH  19  20
ATOM     20  N   UNL     1       3.567  -3.821   8.226  0.00  0.00    -0.288 N 
ATOM     21  C   UNL     1       3.752  -5.148   8.372  0.00  0.00    +0.298 C 
ATOM     22  O   UNL     1       3.837  -5.862   7.392  0.00  0.00    -0.253 OA
ATOM     23  N   UNL     1       3.842  -5.683   9.606  0.00  0.00    -0.313 N 
ATOM     24  H   UNL     1       3.499  -3.251   9.008  0.00  0.00    +0.151 HD
ATOM     25  H   UNL     1       3.774  -5.114  10.388  0.00  0.00    +0.146 HD
ATOM     26  H   UNL     1       3.975  -6.638   9.711  0.00  0.00    +0.146 HD
ENDBRANCH  19  20
BRANCH  19  27
ATOM     27  C   UNL     1       4.873  -2.954   6.348  0.00  0.00    +0.012 C 
ATOM     28  C   UNL     1       5.634  -4.271   6.188  0.00  0.00    +0.009 C 
ATOM     29  C   UNL     1       4.768  -2.256   4.991  0.00  0.00    +0.009 C 
ENDBRANCH  19  27
ENDBRANCH   2  19
TORSDOF 7
