REMARK  Name = ZINC10010865
REMARK  11 active torsions:
REMARK  status: ('A' for Active; 'I' for Inactive)
REMARK    1  A    between atoms: C_1  and  C_2
REMARK    2  A    between atoms: C_4  and  C_35
REMARK    3  A    between atoms: C_6  and  N_8
REMARK    4  A    between atoms: N_8  and  S_9
REMARK    5  A    between atoms: S_9  and  C_12
REMARK    6  A    between atoms: C_15  and  N_18
REMARK    7  A    between atoms: N_18  and  C_19
REMARK    8  A    between atoms: C_19  and  N_21
REMARK    9  A    between atoms: C_22  and  C_24
REMARK   10  A    between atoms: C_25  and  C_26
REMARK   11  A    between atoms: C_30  and  N_32
REMARK                            x       y       z     vdW  Elec       q    Type
REMARK                         _______ _______ _______ _____ _____    ______ ____
ROOT
ATOM      1  N   UNL     1       0.119  -5.796   8.177  0.00  0.00    -0.297 N 
ATOM      2  H   UNL     1       0.606  -5.603   8.993  0.00  0.00    +0.154 HD
ENDROOT
BRANCH   1   6
ATOM      3  C   UNL     1       0.039  -2.996   5.093  0.00  0.00    +0.111 A 
ATOM      4  C   UNL     1      -1.113  -3.682   5.432  0.00  0.00    +0.031 A 
ATOM      5  C   UNL     1      -1.089  -4.611   6.454  0.00  0.00    +0.025 A 
ATOM      6  C   UNL     1       0.092  -4.856   7.141  0.00  0.00    +0.033 A 
ATOM      7  C   UNL     1       1.248  -4.165   6.798  0.00  0.00    +0.025 A 
ATOM      8  C   UNL     1       1.219  -3.241   5.771  0.00  0.00    +0.031 A 
BRANCH   3   9
ATOM      9  S   UNL     1       0.005  -1.812   3.789  0.00  0.00    +0.094 S 
ATOM     10  O   UNL     1       1.083  -0.916   4.025  0.00  0.00    -0.148 OA
ATOM     11  O   UNL     1      -1.341  -1.370   3.676  0.00  0.00    -0.148 OA
BRANCH   9  12
ATOM     12  N   UNL     1       0.358  -2.617   2.386  0.00  0.00    -0.058 NA
BRANCH  12  18
ATOM     13  C   UNL     1      -0.085   1.540   0.045  0.00  0.00    +0.066 C 
ATOM     14  C   UNL     1       0.193   0.059   0.046  0.00  0.00    +0.044 A 
ATOM     15  C   UNL     1       0.486  -0.601  -1.137  0.00  0.00    +0.046 A 
ATOM     16  C   UNL     1       0.736  -1.964  -1.091  0.00  0.00    +0.044 A 
ATOM     17  N   UNL     1       0.686  -2.590   0.072  0.00  0.00    -0.217 NA
ATOM     18  C   UNL     1       0.402  -1.930   1.185  0.00  0.00    +0.258 A 
ATOM     19  N   UNL     1       0.164  -0.627   1.177  0.00  0.00    -0.217 NA
ATOM     20  C   UNL     1       1.059  -2.722  -2.353  0.00  0.00    +0.066 C 
ENDBRANCH  12  18
ENDBRANCH   9  12
ENDBRANCH   3   9
ENDBRANCH   1   6
BRANCH   1  21
ATOM     21  C   UNL     1      -0.531  -6.968   8.040  0.00  0.00    +0.141 C 
ATOM     22  S   UNL     1      -1.269  -7.368   6.548  0.00  0.00    -0.018 S 
BRANCH  21  23
ATOM     23  N   UNL     1      -0.599  -7.826   9.077  0.00  0.00    -0.264 N 
ATOM     24  C   UNL     1      -1.249  -8.999   8.940  0.00  0.00    +0.242 C 
ATOM     25  O   UNL     1      -1.774  -9.283   7.880  0.00  0.00    -0.270 OA
ATOM     26  H   UNL     1      -0.180  -7.599   9.922  0.00  0.00    +0.157 HD
BRANCH  24  27
ATOM     27  C   UNL     1      -1.323  -9.930  10.066  0.00  0.00    +0.068 C 
ATOM     28  C   UNL     1      -1.974 -11.104   9.929  0.00  0.00    +0.013 C 
BRANCH  28  29
ATOM     29  C   UNL     1      -2.049 -12.040  11.062  0.00  0.00    -0.023 A 
ATOM     30  C   UNL     1      -1.451 -11.714  12.284  0.00  0.00    +0.008 A 
ATOM     31  C   UNL     1      -1.526 -12.597  13.340  0.00  0.00    +0.003 A 
ATOM     32  C   UNL     1      -2.190 -13.803  13.194  0.00  0.00    +0.033 A 
ATOM     33  C   UNL     1      -2.784 -14.132  11.988  0.00  0.00    +0.127 A 
ATOM     34  C   UNL     1      -2.722 -13.258  10.923  0.00  0.00    +0.040 A 
BRANCH  33  35
ATOM     35  N   UNL     1      -3.491 -15.424  11.842  0.00  0.00    +0.056 N 
ATOM     36  O   UNL     1      -3.549 -16.190  12.776  0.00  0.00    -0.126 OA
ATOM     37  O   UNL     1      -4.010 -15.714  10.789  0.00  0.00    -0.126 OA
ENDBRANCH  33  35
ENDBRANCH  28  29
ENDBRANCH  24  27
ENDBRANCH  21  23
ENDBRANCH   1  21
TORSDOF 9
