REMARK  Name = ZINC32796276
REMARK  11 active torsions:
REMARK  status: ('A' for Active; 'I' for Inactive)
REMARK    1  A    between atoms: C_1  and  C_2
REMARK    2  A    between atoms: C_6  and  C_8
REMARK    3  A    between atoms: C_8  and  C_10
REMARK    4  A    between atoms: C_8  and  N_30
REMARK    5  A    between atoms: C_10  and  C_11
REMARK    6  A    between atoms: N_13  and  C_14
REMARK    7  A    between atoms: C_14  and  C_15
REMARK    8  A    between atoms: C_15  and  N_16
REMARK    9  A    between atoms: N_16  and  C_17
REMARK   10  A    between atoms: C_20  and  C_26
REMARK   11  A    between atoms: C_22  and  N_23
REMARK                            x       y       z     vdW  Elec       q    Type
REMARK                         _______ _______ _______ _____ _____    ______ ____
ROOT
ATOM      1  C   UNL     1       1.384   1.966   1.410  0.00  0.00    +0.215 C 
ATOM      2  O   UNL     1       2.486   1.472   1.517  0.00  0.00    -0.276 OA
ATOM      3  N   UNL     1       0.328   1.195   1.084  0.00  0.00    -0.314 N 
ATOM      4  H   UNL     1      -0.671   1.643   0.987  0.00  0.00    +0.149 HD
ENDROOT
BRANCH   1   5
ATOM      5  C   UNL     1       1.195   3.443   1.642  0.00  0.00    +0.122 C 
BRANCH   5   6
ATOM      6  C   UNL     1       2.540   4.080   1.995  0.00  0.00    +0.113 C 
BRANCH   6  12
ATOM      7  C   UNL     1       3.238   8.669   0.124  0.00  0.00    +0.044 C 
ATOM      8  C   UNL     1       2.709   7.770   1.212  0.00  0.00    -0.050 A 
ATOM      9  C   UNL     1       2.072   8.315   2.311  0.00  0.00    +0.003 A 
ATOM     10  C   UNL     1       1.587   7.489   3.308  0.00  0.00    +0.001 A 
ATOM     11  C   UNL     1       1.738   6.119   3.206  0.00  0.00    +0.005 A 
ATOM     12  C   UNL     1       2.375   5.574   2.107  0.00  0.00    -0.026 A 
ATOM     13  C   UNL     1       2.865   6.400   1.112  0.00  0.00    +0.008 A 
ENDBRANCH   6  12
BRANCH   6  14
ATOM     14  N   UNL     1       3.013   3.545   3.274  0.00  0.00    -0.292 N 
ATOM     15  C   UNL     1       4.334   3.506   3.541  0.00  0.00    +0.298 C 
ATOM     16  O   UNL     1       5.127   4.000   2.763  0.00  0.00    -0.253 OA
ATOM     17  N   UNL     1       4.776   2.918   4.671  0.00  0.00    -0.313 N 
ATOM     18  H   UNL     1       2.291   3.175   4.017  0.00  0.00    +0.151 HD
ATOM     19  H   UNL     1       5.854   2.885   4.889  0.00  0.00    +0.146 HD
ATOM     20  H   UNL     1       4.059   2.470   5.375  0.00  0.00    +0.146 HD
ENDBRANCH   6  14
ENDBRANCH   5   6
ENDBRANCH   1   5
BRANCH   3  21
ATOM     21  C   UNL     1       0.512  -0.241   0.859  0.00  0.00    +0.123 C 
BRANCH  21  22
ATOM     22  C   UNL     1      -0.833  -0.878   0.506  0.00  0.00    +0.120 C 
BRANCH  22  23
ATOM     23  N   UNL     1      -0.649  -2.314   0.280  0.00  0.00    -0.341 N 
ATOM     24  H   UNL     1       0.350  -2.763   0.377  0.00  0.00    +0.146 HD
BRANCH  23  25
ATOM     25  C   UNL     1      -1.744  -3.114  -0.058  0.00  0.00    +0.058 A 
ATOM     26  C   UNL     1      -3.027  -2.583  -0.035  0.00  0.00    +0.026 A 
ATOM     27  C   UNL     1      -4.107  -3.376  -0.370  0.00  0.00    +0.014 A 
ATOM     28  C   UNL     1      -3.911  -4.698  -0.727  0.00  0.00    +0.057 A 
ATOM     29  C   UNL     1      -2.635  -5.229  -0.750  0.00  0.00    +0.047 A 
ATOM     30  C   UNL     1      -1.550  -4.440  -0.422  0.00  0.00    +0.147 A 
BRANCH  28  31
ATOM     31  C   UNL     1      -5.092  -5.561  -1.092  0.00  0.00    +0.417 C 
ATOM     32  F   UNL     1      -6.267  -4.808  -0.996  0.00  0.00    -0.166 F 
ATOM     33  F   UNL     1      -4.942  -6.026  -2.403  0.00  0.00    -0.166 F 
ATOM     34  F   UNL     1      -5.162  -6.649  -0.216  0.00  0.00    -0.166 F 
ENDBRANCH  28  31
BRANCH  30  35
ATOM     35  N   UNL     1      -0.184  -5.008  -0.454  0.00  0.00    +0.058 N 
ATOM     36  O   UNL     1       0.749  -4.329  -0.842  0.00  0.00    -0.126 OA
ATOM     37  O   UNL     1       0.007  -6.155  -0.091  0.00  0.00    -0.126 OA
ENDBRANCH  30  35
ENDBRANCH  23  25
ENDBRANCH  22  23
ENDBRANCH  21  22
ENDBRANCH   3  21
TORSDOF 10
