REMARK  Name = ZINC64720986
REMARK  6 active torsions:
REMARK  status: ('A' for Active; 'I' for Inactive)
REMARK    1  A    between atoms: C_1  and  C_2
REMARK    2  A    between atoms: C_2  and  C_3
REMARK    3  A    between atoms: C_4  and  C_10
REMARK    4  A    between atoms: C_5  and  C_9
REMARK    5  A    between atoms: C_15  and  C_18
REMARK    6  A    between atoms: C_26  and  C_28
REMARK                            x       y       z     vdW  Elec       q    Type
REMARK                         _______ _______ _______ _____ _____    ______ ____
ROOT
ATOM      1  C   UNL     1       2.857  -1.101  -0.111  0.00  0.00    +0.250 C 
ATOM      2  O   UNL     1       2.544  -0.536   0.921  0.00  0.00    -0.270 OA
ATOM      3  N   UNL     1       4.128  -1.510  -0.296  0.00  0.00    -0.261 N 
ATOM      4  C   UNL     1       5.078  -1.287   0.688  0.00  0.00    +0.165 A 
ATOM      5  N   UNL     1       6.356  -1.603   0.689  0.00  0.00    -0.225 NA
ATOM      6  C   UNL     1       7.092  -1.285   1.761  0.00  0.00    +0.079 A 
ATOM      7  C   UNL     1       6.468  -0.636   2.819  0.00  0.00    +0.076 A 
ATOM      8  S   UNL     1       4.883  -0.490   2.271  0.00  0.00    -0.060 S 
ATOM      9  H   UNL     1       4.378  -1.961  -1.118  0.00  0.00    +0.157 HD
ENDROOT
BRANCH   6  10
ATOM     10  C   UNL     1       8.466  -1.601   1.815  0.00  0.00    +0.009 C 
ATOM     11  C   UNL     1       9.246  -2.144   0.797  0.00  0.00    +0.005 A 
ATOM     12  C   UNL     1       8.948  -2.531  -0.528  0.00  0.00    +0.010 A 
ATOM     13  C   UNL     1       9.928  -3.043  -1.316  0.00  0.00    +0.001 A 
ATOM     14  C   UNL     1      11.235  -3.200  -0.849  0.00  0.00    +0.002 A 
ATOM     15  C   UNL     1      11.591  -2.850   0.412  0.00  0.00    +0.026 A 
ATOM     16  C   UNL     1      10.622  -2.308   1.294  0.00  0.00    +0.043 A 
ATOM     17  N   UNL     1      10.713  -1.896   2.544  0.00  0.00    -0.377 N 
ATOM     18  C   UNL     1       9.402  -1.415   2.990  0.00  0.00    +0.109 C 
ATOM     19  C   UNL     1       8.919  -2.240   4.184  0.00  0.00    +0.035 C 
ATOM     20  H   UNL     1      11.520  -1.907   3.081  0.00  0.00    +0.160 HD
ENDBRANCH   6  10
BRANCH   1  22
ATOM     21  C   UNL     1       0.589  -0.978  -1.067  0.00  0.00    +0.049 C 
ATOM     22  C   UNL     1       1.888  -1.329  -1.115  0.00  0.00    +0.066 C 
ATOM     23  C   UNL     1       2.115  -2.014  -2.444  0.00  0.00    +0.182 C 
ATOM     24  O   UNL     1       0.835  -1.995  -3.093  0.00  0.00    -0.266 OA
ATOM     25  N   UNL     1      -0.059  -1.355  -2.201  0.00  0.00    -0.269 N 
ATOM     26  C   UNL     1       2.584  -3.454  -2.228  0.00  0.00    +0.046 C 
ATOM     27  H   UNL     1      -1.002  -1.205  -2.376  0.00  0.00    +0.194 HD
BRANCH  21  29
ATOM     28  C   UNL     1      -0.077   1.239  -0.178  0.00  0.00    +0.010 C 
ATOM     29  C   UNL     1      -0.062  -0.267   0.092  0.00  0.00    +0.052 C 
ENDBRANCH  21  29
ENDBRANCH   1  22
TORSDOF 3
