REMARK  Name = ZINC59565010
REMARK  9 active torsions:
REMARK  status: ('A' for Active; 'I' for Inactive)
REMARK    1  A    between atoms: C_1  and  C_2
REMARK    2  A    between atoms: C_2  and  C_3
REMARK    3  A    between atoms: C_3  and  C_29
REMARK    4  A    between atoms: N_5  and  C_23
REMARK    5  A    between atoms: C_6  and  S_8
REMARK    6  A    between atoms: S_8  and  C_9
REMARK    7  A    between atoms: C_9  and  C_10
REMARK    8  A    between atoms: N_12  and  C_13
REMARK    9  A    between atoms: C_17  and  C_19
REMARK                            x       y       z     vdW  Elec       q    Type
REMARK                         _______ _______ _______ _____ _____    ______ ____
ROOT
ATOM      1  C   UNL     1       0.795  -0.492  -1.049  0.00  0.00    +0.104 C 
ATOM      2  N   UNL     1       0.876  -1.965  -0.976  0.00  0.00    -0.209 NA
ATOM      3  N   UNL     1       2.128  -2.285  -1.423  0.00  0.00    -0.213 N 
ATOM      4  C   UNL     1       2.814  -1.149  -1.761  0.00  0.00    +0.151 C 
ATOM      5  N   UNL     1       2.105  -0.076  -1.571  0.00  0.00    -0.348 N 
ATOM      6  C   UNL     1      -0.321  -0.064  -2.005  0.00  0.00    +0.053 C 
ATOM      7  H   UNL     1       0.737  -2.288  -0.030  0.00  0.00    +0.147 HD
ATOM      8  H   UNL     1       2.389   0.836  -1.742  0.00  0.00    +0.163 HD
ENDROOT
BRANCH   3   9
ATOM      9  C   UNL     1       2.635  -3.585  -1.520  0.00  0.00    +0.052 A 
ATOM     10  C   UNL     1       3.896  -3.880  -1.017  0.00  0.00    +0.025 A 
ATOM     11  C   UNL     1       4.394  -5.165  -1.115  0.00  0.00    +0.002 A 
ATOM     12  C   UNL     1       3.638  -6.157  -1.713  0.00  0.00    +0.000 A 
ATOM     13  C   UNL     1       2.383  -5.866  -2.216  0.00  0.00    +0.002 A 
ATOM     14  C   UNL     1       1.877  -4.585  -2.115  0.00  0.00    +0.025 A 
ENDBRANCH   3   9
BRANCH   1  16
ATOM     15  C   UNL     1       0.441   1.621   0.235  0.00  0.00    +0.007 C 
ATOM     16  C   UNL     1       0.561   0.100   0.342  0.00  0.00    +0.042 C 
ENDBRANCH   1  16
BRANCH   4  17
ATOM     17  S   UNL     1       4.464  -1.141  -2.380  0.00  0.00    -0.082 S 
BRANCH  17  18
ATOM     18  C   UNL     1       4.827   0.617  -2.641  0.00  0.00    +0.173 C 
BRANCH  18  19
ATOM     19  C   UNL     1       6.228   0.766  -3.177  0.00  0.00    +0.227 C 
ATOM     20  O   UNL     1       6.913  -0.216  -3.364  0.00  0.00    -0.275 OA
ATOM     21  N   UNL     1       6.718   1.992  -3.448  0.00  0.00    -0.285 N 
ATOM     22  H   UNL     1       6.195   2.781  -3.238  0.00  0.00    +0.155 HD
BRANCH  21  23
ATOM     23  C   UNL     1       7.982   2.126  -4.033  0.00  0.00    +0.034 A 
ATOM     24  C   UNL     1       8.787   3.211  -3.710  0.00  0.00    +0.023 A 
ATOM     25  C   UNL     1      10.034   3.341  -4.289  0.00  0.00    +0.002 A 
ATOM     26  C   UNL     1      10.482   2.391  -5.189  0.00  0.00    +0.012 A 
ATOM     27  C   UNL     1       9.683   1.310  -5.513  0.00  0.00    +0.057 A 
ATOM     28  C   UNL     1       8.437   1.171  -4.933  0.00  0.00    +0.035 A 
BRANCH  27  29
ATOM     29  C   UNL     1      10.175   0.279  -6.495  0.00  0.00    +0.417 C 
ATOM     30  F   UNL     1      11.455   0.629  -6.938  0.00  0.00    -0.166 F 
ATOM     31  F   UNL     1      10.224  -0.973  -5.872  0.00  0.00    -0.166 F 
ATOM     32  F   UNL     1       9.303   0.222  -7.588  0.00  0.00    -0.166 F 
ENDBRANCH  27  29
ENDBRANCH  21  23
ENDBRANCH  18  19
ENDBRANCH  17  18
ENDBRANCH   4  17
TORSDOF 7
