REMARK  Name = ZINC65182450
REMARK  9 active torsions:
REMARK  status: ('A' for Active; 'I' for Inactive)
REMARK    1  A    between atoms: C_1  and  C_2
REMARK    2  A    between atoms: C_2  and  C_3
REMARK    3  A    between atoms: C_6  and  C_33
REMARK    4  A    between atoms: C_11  and  C_13
REMARK    5  A    between atoms: C_16  and  C_19
REMARK    6  A    between atoms: C_19  and  C_20
REMARK    7  A    between atoms: C_20  and  N_21
REMARK    8  A    between atoms: N_21  and  C_22
REMARK    9  A    between atoms: C_23  and  C_25
REMARK                            x       y       z     vdW  Elec       q    Type
REMARK                         _______ _______ _______ _____ _____    ______ ____
ROOT
ATOM      1  C   UNL     1      -0.713  -3.043  -1.593  0.00  0.00    +0.318 C 
ATOM      2  N   UNL     1      -0.722  -4.452  -2.020  0.00  0.00    -0.291 N 
ATOM      3  C   UNL     1      -0.998  -4.458  -3.367  0.00  0.00    +0.139 C 
ATOM      4  N   UNL     1      -1.157  -3.268  -3.820  0.00  0.00    -0.072 NA
ATOM      5  O   UNL     1      -1.001  -2.305  -2.791  0.00  0.00    -0.367 OA
ATOM      6  H   UNL     1      -0.563  -5.227  -1.458  0.00  0.00    +0.151 HD
ENDROOT
BRANCH   1  15
ATOM      7  C   UNL     1       0.643  -1.234  -0.537  0.00  0.00    -0.033 C 
ATOM      8  C   UNL     1       1.556  -0.560  -1.274  0.00  0.00    -0.000 A 
ATOM      9  C   UNL     1       2.004   0.838  -1.265  0.00  0.00    +0.013 A 
ATOM     10  C   UNL     1       2.956   1.227  -2.143  0.00  0.00    -0.050 A 
ATOM     11  C   UNL     1       3.523   0.331  -3.060  0.00  0.00    +0.005 A 
ATOM     12  C   UNL     1       3.163  -0.968  -3.128  0.00  0.00    +0.026 A 
ATOM     13  C   UNL     1       2.171  -1.486  -2.251  0.00  0.00    +0.043 A 
ATOM     14  N   UNL     1       1.659  -2.686  -2.124  0.00  0.00    -0.373 N 
ATOM     15  C   UNL     1       0.663  -2.658  -1.046  0.00  0.00    +0.169 C 
ATOM     16  C   UNL     1       3.418   2.661  -2.137  0.00  0.00    +0.044 C 
ATOM     17  H   UNL     1       1.900  -3.464  -2.651  0.00  0.00    +0.160 HD
BRANCH   7  19
ATOM     18  C   UNL     1       0.087   0.808   0.754  0.00  0.00    +0.008 C 
ATOM     19  C   UNL     1      -0.216  -0.680   0.570  0.00  0.00    +0.030 C 
ENDBRANCH   7  19
ENDBRANCH   1  15
BRANCH   3  20
ATOM     20  C   UNL     1      -1.100  -5.705  -4.206  0.00  0.00    +0.094 C 
BRANCH  20  21
ATOM     21  C   UNL     1      -1.419  -5.323  -5.652  0.00  0.00    +0.115 C 
BRANCH  21  22
ATOM     22  N   UNL     1      -1.518  -6.536  -6.468  0.00  0.00    -0.300 N 
ATOM     23  C   UNL     1      -2.808  -7.212  -6.621  0.00  0.00    +0.132 C 
ATOM     24  C   UNL     1      -0.422  -7.030  -7.077  0.00  0.00    +0.249 C 
ATOM     25  O   UNL     1       0.666  -6.525  -6.875  0.00  0.00    -0.270 OA
BRANCH  24  26
ATOM     26  C   UNL     1      -0.542  -8.184  -7.991  0.00  0.00    +0.075 A 
ATOM     27  C   UNL     1      -1.590  -8.243  -8.913  0.00  0.00    +0.054 A 
ATOM     28  C   UNL     1      -1.696  -9.324  -9.764  0.00  0.00    +0.124 A 
ATOM     29  C   UNL     1      -0.765 -10.350  -9.707  0.00  0.00    +0.041 A 
ATOM     30  C   UNL     1       0.274 -10.299  -8.798  0.00  0.00    +0.042 A 
ATOM     31  C   UNL     1       0.396  -9.219  -7.942  0.00  0.00    +0.136 A 
ATOM     32  F   UNL     1       1.416  -9.167  -7.058  0.00  0.00    -0.205 F 
ATOM     33  F   UNL     1      -2.709  -9.382 -10.656  0.00  0.00    -0.205 F 
ENDBRANCH  24  26
ENDBRANCH  21  22
ENDBRANCH  20  21
ENDBRANCH   3  20
TORSDOF 6
