REMARK  Name = ZINC64709702
REMARK  7 active torsions:
REMARK  status: ('A' for Active; 'I' for Inactive)
REMARK    1  A    between atoms: C_1  and  C_2
REMARK    2  A    between atoms: C_2  and  C_3
REMARK    3  A    between atoms: C_2  and  C_4
REMARK    4  A    between atoms: C_4  and  N_5
REMARK    5  A    between atoms: N_8  and  C_9
REMARK    6  A    between atoms: C_13  and  C_15
REMARK    7  A    between atoms: C_18  and  C_21
REMARK                            x       y       z     vdW  Elec       q    Type
REMARK                         _______ _______ _______ _____ _____    ______ ____
ROOT
ATOM      1  C   UNL     1      -3.727  -4.792  -0.178  0.00  0.00    +0.035 A 
ATOM      2  C   UNL     1      -4.965  -4.167  -0.085  0.00  0.00    +0.023 A 
ATOM      3  C   UNL     1      -6.121  -4.921  -0.016  0.00  0.00    +0.002 A 
ATOM      4  C   UNL     1      -6.053  -6.300  -0.037  0.00  0.00    +0.011 A 
ATOM      5  C   UNL     1      -4.816  -6.936  -0.129  0.00  0.00    +0.020 A 
ATOM      6  C   UNL     1      -3.650  -6.176  -0.206  0.00  0.00    +0.034 A 
ENDROOT
BRANCH   1  10
ATOM      7  N   UNL     1      -1.315  -2.175   0.446  0.00  0.00    -0.299 N 
ATOM      8  C   UNL     1      -2.471  -2.867   0.438  0.00  0.00    +0.304 C 
ATOM      9  O   UNL     1      -3.435  -2.448   1.049  0.00  0.00    -0.253 OA
ATOM     10  N   UNL     1      -2.559  -4.024  -0.248  0.00  0.00    -0.269 N 
ATOM     11  H   UNL     1      -0.546  -2.509  -0.042  0.00  0.00    +0.150 HD
ATOM     12  H   UNL     1      -1.813  -4.325  -0.790  0.00  0.00    +0.156 HD
BRANCH   7  13
ATOM     13  C   UNL     1      -1.220  -0.917   1.191  0.00  0.00    +0.108 C 
BRANCH  13  15
ATOM     14  C   UNL     1       0.252   1.034   1.709  0.00  0.00    +0.009 C 
ATOM     15  C   UNL     1       0.188  -0.338   1.036  0.00  0.00    -0.000 C 
ATOM     16  C   UNL     1       1.201  -1.277   1.695  0.00  0.00    +0.009 C 
ENDBRANCH  13  15
ENDBRANCH   7  13
ENDBRANCH   1  10
BRANCH   5  17
ATOM     17  C   UNL     1      -4.740  -8.415  -0.151  0.00  0.00    +0.168 C 
ATOM     18  N   UNL     1      -3.640  -9.089  -0.229  0.00  0.00    -0.067 NA
ATOM     19  O   UNL     1      -3.898 -10.480  -0.228  0.00  0.00    -0.367 OA
ATOM     20  C   UNL     1      -5.323 -10.632  -0.140  0.00  0.00    +0.318 C 
ATOM     21  N   UNL     1      -5.838  -9.254  -0.086  0.00  0.00    -0.288 N 
ATOM     22  H   UNL     1      -6.768  -8.986  -0.019  0.00  0.00    +0.151 HD
BRANCH  20  23
ATOM     23  C   UNL     1      -5.702 -11.391   1.134  0.00  0.00    +0.165 C 
ATOM     24  C   UNL     1      -5.244 -10.623   2.354  0.00  0.00    +0.012 C 
ATOM     25  C   UNL     1      -4.372 -11.431   2.999  0.00  0.00    -0.004 A 
ATOM     26  C   UNL     1      -3.591 -11.269   4.232  0.00  0.00    +0.010 A 
ATOM     27  C   UNL     1      -2.785 -12.277   4.635  0.00  0.00    +0.001 A 
ATOM     28  C   UNL     1      -2.677 -13.470   3.908  0.00  0.00    +0.002 A 
ATOM     29  C   UNL     1      -3.363 -13.694   2.767  0.00  0.00    +0.026 A 
ATOM     30  C   UNL     1      -4.240 -12.701   2.249  0.00  0.00    +0.043 A 
ATOM     31  N   UNL     1      -5.002 -12.679   1.181  0.00  0.00    -0.373 N 
ATOM     32  H   UNL     1      -5.088 -13.394   0.531  0.00  0.00    +0.160 HD
ENDBRANCH  20  23
ENDBRANCH   5  17
TORSDOF 5
