REMARK  Name = ZINC20556658
REMARK  2 active torsions:
REMARK  status: ('A' for Active; 'I' for Inactive)
REMARK    1  A    between atoms: C_6  and  C_7
REMARK    2  A    between atoms: N_17  and  C_18
REMARK                            x       y       z     vdW  Elec       q    Type
REMARK                         _______ _______ _______ _____ _____    ______ ____
ROOT
ATOM      1  C   UNL     1       5.692  -2.529   2.324  0.00  0.00    +0.130 C 
ATOM      2  N   UNL     1       4.596  -1.970   2.733  0.00  0.00    -0.252 NA
ATOM      3  C   UNL     1       4.101  -1.093   1.669  0.00  0.00    +0.130 C 
ATOM      4  C   UNL     1       4.040   0.351   2.168  0.00  0.00    +0.069 C 
ATOM      5  C   UNL     1       3.571   1.262   1.029  0.00  0.00    +0.113 C 
ATOM      6  N   UNL     1       2.301   0.744   0.501  0.00  0.00    -0.285 N 
ATOM      7  C   UNL     1       2.233  -0.659   0.073  0.00  0.00    +0.113 C 
ATOM      8  C   UNL     1       2.715  -1.552   1.215  0.00  0.00    +0.069 C 
ATOM      9  C   UNL     1       1.217   1.541   0.417  0.00  0.00    +0.306 C 
ATOM     10  O   UNL     1       1.306   2.720   0.699  0.00  0.00    -0.252 OA
ATOM     11  N   UNL     1       0.035   1.030   0.020  0.00  0.00    -0.269 N 
ATOM     12  N   UNL     1       5.052  -1.198   0.557  0.00  0.00    -0.286 N 
ATOM     13  C   UNL     1       6.011  -2.062   0.950  0.00  0.00    +0.264 C 
ATOM     14  O   UNL     1       6.973  -2.402   0.291  0.00  0.00    -0.268 OA
ATOM     15  H   UNL     1      -0.015   0.008  -0.383  0.00  0.00    +0.156 HD
ATOM     16  H   UNL     1       4.886  -0.621  -0.365  0.00  0.00    +0.151 HD
ENDROOT
BRANCH   1  22
ATOM     17  C   UNL     1       6.109  -3.849   4.396  0.00  0.00    +0.011 A 
ATOM     18  C   UNL     1       6.867  -4.745   5.120  0.00  0.00    +0.020 A 
ATOM     19  C   UNL     1       8.024  -5.277   4.575  0.00  0.00    +0.041 A 
ATOM     20  C   UNL     1       8.424  -4.916   3.299  0.00  0.00    +0.020 A 
ATOM     21  C   UNL     1       7.672  -4.024   2.564  0.00  0.00    +0.011 A 
ATOM     22  C   UNL     1       6.505  -3.486   3.108  0.00  0.00    +0.005 A 
ATOM     23 CL   UNL     1       8.977  -6.399   5.495  0.00  0.00    -0.084 Cl
ENDBRANCH   1  22
BRANCH  11  24
ATOM     24  C   UNL     1      -1.130   1.800   0.122  0.00  0.00    +0.035 A 
ATOM     25  C   UNL     1      -1.048   3.187   0.134  0.00  0.00    +0.025 A 
ATOM     26  C   UNL     1      -2.199   3.944   0.228  0.00  0.00    +0.022 A 
ATOM     27  C   UNL     1      -3.432   3.323   0.322  0.00  0.00    +0.041 A 
ATOM     28  C   UNL     1      -3.515   1.942   0.317  0.00  0.00    +0.022 A 
ATOM     29  C   UNL     1      -2.368   1.179   0.216  0.00  0.00    +0.025 A 
ATOM     30 CL   UNL     1      -4.876   4.278   0.447  0.00  0.00    -0.084 Cl
ENDBRANCH  11  24
TORSDOF 2
