REMARK  Name = ZINC59035915
REMARK  14 active torsions:
REMARK  status: ('A' for Active; 'I' for Inactive)
REMARK    1  A    between atoms: C_1  and  C_2
REMARK    2  A    between atoms: C_2  and  C_3
REMARK    3  A    between atoms: C_2  and  C_4
REMARK    4  A    between atoms: C_2  and  C_5
REMARK    5  A    between atoms: C_5  and  C_6
REMARK    6  A    between atoms: C_6  and  C_7
REMARK    7  A    between atoms: C_6  and  C_8
REMARK    8  A    between atoms: C_6  and  N_9
REMARK    9  A    between atoms: N_9  and  C_10
REMARK   10  A    between atoms: C_10  and  N_12
REMARK   11  A    between atoms: N_12  and  C_13
REMARK   12  A    between atoms: N_12  and  C_19
REMARK   13  A    between atoms: C_13  and  C_14
REMARK   14  A    between atoms: C_19  and  C_20
REMARK                            x       y       z     vdW  Elec       q    Type
REMARK                         _______ _______ _______ _____ _____    ______ ____
ROOT
ATOM      1  N   UNL     1       3.878  -0.381  -3.023  0.00  0.00    -0.301 N 
ENDROOT
BRANCH   1   2
ATOM      2  C   UNL     1       3.340  -0.400  -1.788  0.00  0.00    +0.134 C 
ATOM      3  S   UNL     1       4.322  -0.092  -0.421  0.00  0.00    -0.019 S 
BRANCH   2   4
ATOM      4  N   UNL     1       2.027  -0.662  -1.630  0.00  0.00    -0.321 N 
ATOM      5  H   UNL     1       1.487  -0.917  -2.394  0.00  0.00    +0.148 HD
BRANCH   4   6
ATOM      6  C   UNL     1       1.415  -0.562  -0.302  0.00  0.00    +0.029 C 
ATOM      7  C   UNL     1      -0.099  -0.742  -0.424  0.00  0.00    +0.031 C 
ATOM      8  C   UNL     1       1.719   0.812   0.297  0.00  0.00    +0.031 C 
BRANCH   6   9
ATOM      9  C   UNL     1       1.987  -1.653   0.606  0.00  0.00    +0.031 C 
BRANCH   9  11
ATOM     10  C   UNL     1       2.992  -2.943  -1.283  0.00  0.00    +0.010 C 
ATOM     11  C   UNL     1       1.980  -2.991  -0.137  0.00  0.00    -0.036 C 
ATOM     12  C   UNL     1       0.582  -3.253  -0.700  0.00  0.00    +0.010 C 
ATOM     13  C   UNL     1       2.358  -4.113   0.832  0.00  0.00    +0.010 C 
ENDBRANCH   9  11
ENDBRANCH   6   9
ENDBRANCH   4   6
ENDBRANCH   2   4
ENDBRANCH   1   2
BRANCH   1  14
ATOM     14  C   UNL     1       3.015  -0.495  -4.201  0.00  0.00    +0.181 C 
BRANCH  14  15
ATOM     15  C   UNL     1       2.525   0.873  -4.600  0.00  0.00    +0.122 A 
ATOM     16  C   UNL     1       3.184   1.748  -5.380  0.00  0.00    +0.046 A 
ATOM     17  C   UNL     1       2.365   2.894  -5.494  0.00  0.00    +0.041 A 
ATOM     18  C   UNL     1       1.253   2.651  -4.777  0.00  0.00    +0.195 A 
ATOM     19  O   UNL     1       1.353   1.423  -4.242  0.00  0.00    -0.466 OA
ENDBRANCH  14  15
ENDBRANCH   1  14
BRANCH   1  20
ATOM     20  C   UNL     1       5.328  -0.245  -3.188  0.00  0.00    +0.145 C 
BRANCH  20  21
ATOM     21  C   UNL     1       5.885  -1.506  -3.795  0.00  0.00    +0.006 A 
ATOM     22  C   UNL     1       6.343  -2.524  -2.978  0.00  0.00    +0.047 A 
ATOM     23  C   UNL     1       6.854  -3.682  -3.536  0.00  0.00    +0.020 A 
ATOM     24  C   UNL     1       6.908  -3.822  -4.910  0.00  0.00    +0.003 A 
ATOM     25  C   UNL     1       6.450  -2.806  -5.727  0.00  0.00    +0.020 A 
ATOM     26  C   UNL     1       5.933  -1.650  -5.170  0.00  0.00    +0.047 A 
ATOM     27 CL   UNL     1       5.351  -0.377  -6.197  0.00  0.00    -0.083 Cl
ATOM     28 CL   UNL     1       6.276  -2.347  -1.252  0.00  0.00    -0.083 Cl
ENDBRANCH  20  21
ENDBRANCH   1  20
TORSDOF 9
