REMARK  Name = ZINC28822581
REMARK  10 active torsions:
REMARK  status: ('A' for Active; 'I' for Inactive)
REMARK    1  A    between atoms: C_1  and  N_2
REMARK    2  A    between atoms: C_10  and  C_11
REMARK    3  A    between atoms: N_13  and  C_14
REMARK    4  A    between atoms: C_17  and  C_22
REMARK    5  A    between atoms: C_19  and  O_20
REMARK    6  A    between atoms: O_20  and  C_21
REMARK    7  A    between atoms: C_27  and  N_35
REMARK    8  A    between atoms: C_30  and  C_31
REMARK    9  A    between atoms: C_32  and  C_33
REMARK   10  A    between atoms: C_33  and  O_34
REMARK                            x       y       z     vdW  Elec       q    Type
REMARK                         _______ _______ _______ _____ _____    ______ ____
ROOT
ATOM      1  C   UNL     1      -0.701  -0.000   4.639  0.00  0.00    +0.076 A 
ATOM      2  C   UNL     1      -0.004  -0.633   5.660  0.00  0.00    +0.027 A 
ATOM      3  C   UNL     1       0.014  -0.087   6.927  0.00  0.00    +0.010 A 
ATOM      4  C   UNL     1      -0.668   1.102   7.185  0.00  0.00    -0.013 A 
ATOM      5  C   UNL     1      -1.369   1.738   6.161  0.00  0.00    +0.056 A 
ATOM      6  C   UNL     1      -1.380   1.191   4.890  0.00  0.00    +0.142 A 
ENDROOT
BRANCH   4   7
ATOM      7  C   UNL     1      -0.649   1.688   8.546  0.00  0.00    +0.000 A 
ATOM      8  C   UNL     1      -1.805   1.926   9.210  0.00  0.00    +0.055 A 
ATOM      9  S   UNL     1      -1.258   2.614  10.761  0.00  0.00    -0.095 S 
ATOM     10  C   UNL     1       0.491   2.568  10.486  0.00  0.00    +0.032 A 
ATOM     11  C   UNL     1       0.617   2.013   9.197  0.00  0.00    +0.035 A 
ATOM     12  C   UNL     1       1.944   1.855   8.717  0.00  0.00    +0.103 A 
ATOM     13  N   UNL     1       2.981   2.207   9.448  0.00  0.00    -0.349 N 
ATOM     14  C   UNL     1       2.876   2.724  10.660  0.00  0.00    +0.093 A 
ATOM     15  C   UNL     1       1.618   2.931  11.223  0.00  0.00    +0.005 A 
ATOM     16  H   UNL     1       3.869   2.079   9.078  0.00  0.00    +0.167 HD
BRANCH  12  17
ATOM     17  N   UNL     1       2.151   1.320   7.455  0.00  0.00    -0.344 N 
ATOM     18  H   UNL     1       1.506   1.480   6.748  0.00  0.00    +0.144 HD
ATOM     19  H   UNL     1       2.941   0.785   7.278  0.00  0.00    +0.144 HD
ENDBRANCH  12  17
BRANCH  15  20
ATOM     20  C   UNL     1       1.482   3.507  12.576  0.00  0.00    +0.008 C 
ATOM     21  C   UNL     1       2.565   3.847  13.264  0.00  0.00    +0.001 C 
BRANCH  21  22
ATOM     22  C   UNL     1       2.426   4.435  14.645  0.00  0.00    +0.183 C 
BRANCH  22  23
ATOM     23  O   UNL     1       3.366   3.813  15.524  0.00  0.00    -0.391 OA
ATOM     24  H   UNL     1       3.334   4.144  16.432  0.00  0.00    +0.210 HD
ENDBRANCH  22  23
ENDBRANCH  21  22
ENDBRANCH  15  20
ENDBRANCH   4   7
BRANCH   1  27
ATOM     25  C   UNL     1       0.275  -1.382   2.965  0.00  0.00    +0.265 C 
ATOM     26  O   UNL     1       1.182  -1.646   3.731  0.00  0.00    -0.268 OA
ATOM     27  N   UNL     1      -0.718  -0.557   3.354  0.00  0.00    -0.277 N 
ATOM     28  H   UNL     1      -1.443  -0.349   2.745  0.00  0.00    +0.155 HD
BRANCH  25  38
ATOM     29  C   UNL     1       2.289  -3.454   1.879  0.00  0.00    +0.149 C 
ATOM     30  N   UNL     1       1.163  -2.890   1.131  0.00  0.00    -0.339 N 
ATOM     31  C   UNL     1       0.827  -3.202  -0.165  0.00  0.00    +0.049 A 
ATOM     32  C   UNL     1       1.376  -4.063  -1.111  0.00  0.00    +0.026 A 
ATOM     33  C   UNL     1       0.804  -4.164  -2.359  0.00  0.00    +0.002 A 
ATOM     34  C   UNL     1      -0.320  -3.415  -2.686  0.00  0.00    +0.001 A 
ATOM     35  C   UNL     1      -0.876  -2.564  -1.776  0.00  0.00    +0.010 A 
ATOM     36  C   UNL     1      -0.312  -2.443  -0.499  0.00  0.00    +0.001 A 
ATOM     37  C   UNL     1      -0.642  -1.670   0.641  0.00  0.00    +0.041 A 
ATOM     38  C   UNL     1       0.260  -1.963   1.614  0.00  0.00    +0.105 A 
ENDBRANCH  25  38
ENDBRANCH   1  27
BRANCH   6  39
ATOM     39  O   UNL     1      -2.057   1.813   3.888  0.00  0.00    -0.493 OA
ATOM     40  C   UNL     1      -2.730   3.030   4.217  0.00  0.00    +0.277 C 
ENDBRANCH   6  39
TORSDOF 8
