REMARK  Name = ZINC45050334
REMARK  5 active torsions:
REMARK  status: ('A' for Active; 'I' for Inactive)
REMARK    1  A    between atoms: C_1  and  N_2
REMARK    2  A    between atoms: N_2  and  C_3
REMARK    3  A    between atoms: C_3  and  C_4
REMARK    4  A    between atoms: N_5  and  O_6
REMARK    5  A    between atoms: C_8  and  C_10
REMARK                            x       y       z     vdW  Elec       q    Type
REMARK                         _______ _______ _______ _____ _____    ______ ____
ROOT
ATOM      1  C   UNL     1      -0.078   1.461   0.013  0.00  0.00    +0.133 C 
ATOM      2  N   UNL     1      -0.019  -0.003   0.003  0.00  0.00    -0.293 N 
ATOM      3  C   UNL     1      -0.102  -0.673  -1.163  0.00  0.00    +0.253 C 
ATOM      4  O   UNL     1      -0.158  -1.889  -1.164  0.00  0.00    -0.269 OA
ENDROOT
BRANCH   3   5
ATOM      5  C   UNL     1      -0.124   0.062  -2.430  0.00  0.00    +0.075 A 
ATOM      6  C   UNL     1      -0.322  -0.418  -3.716  0.00  0.00    +0.022 A 
ATOM      7  C   UNL     1      -0.288   0.522  -4.717  0.00  0.00    +0.024 A 
ATOM      8  C   UNL     1      -0.069   1.822  -4.393  0.00  0.00    +0.056 A 
ATOM      9  S   UNL     1       0.089   1.808  -2.720  0.00  0.00    -0.077 S 
ATOM     10 BR   UNL     1       0.027   3.309  -5.556  0.00  0.00    -0.043 Br
ENDBRANCH   3   5
BRANCH   2  11
ATOM     11  C   UNL     1       0.130  -0.738   1.261  0.00  0.00    +0.182 C 
BRANCH  11  12
ATOM     12  C   UNL     1      -1.232  -1.048   1.826  0.00  0.00    +0.149 C 
ATOM     13  N   UNL     1      -2.295  -0.667   1.197  0.00  0.00    -0.075 NA
ATOM     14  N   UNL     1      -1.345  -1.738   3.013  0.00  0.00    -0.343 N 
ATOM     15  H   UNL     1      -0.548  -2.025   3.485  0.00  0.00    +0.144 HD
ATOM     16  H   UNL     1      -2.222  -1.938   3.376  0.00  0.00    +0.144 HD
BRANCH  13  17
ATOM     17  O   UNL     1      -3.575  -0.958   1.728  0.00  0.00    -0.408 OA
ATOM     18  H   UNL     1      -4.308  -0.633   1.188  0.00  0.00    +0.328 HD
ENDBRANCH  13  17
ENDBRANCH  11  12
ENDBRANCH   2  11
TORSDOF 4
