REMARK  Name = ZINC63281768
REMARK  4 active torsions:
REMARK  status: ('A' for Active; 'I' for Inactive)
REMARK    1  A    between atoms: C_1  and  C_2
REMARK    2  A    between atoms: C_2  and  C_4
REMARK    3  A    between atoms: C_7  and  N_10
REMARK    4  A    between atoms: C_14  and  N_18
REMARK                            x       y       z     vdW  Elec       q    Type
REMARK                         _______ _______ _______ _____ _____    ______ ____
ROOT
ATOM      1  N   UNL     1      -4.842  -2.889   0.034  0.00  0.00    -0.209 N 
ATOM      2  C   UNL     1      -6.037  -2.296   0.137  0.00  0.00    +0.228 C 
ATOM      3  O   UNL     1      -6.223  -1.102   0.231  0.00  0.00    -0.275 OA
ATOM      4  C   UNL     1      -7.120  -3.352   0.115  0.00  0.00    +0.125 C 
ATOM      5  C   UNL     1      -6.335  -4.673  -0.019  0.00  0.00    +0.153 C 
ATOM      6  C   UNL     1      -4.891  -4.223  -0.065  0.00  0.00    +0.244 C 
ATOM      7  O   UNL     1      -3.931  -4.955  -0.171  0.00  0.00    -0.273 OA
ENDROOT
BRANCH   5   8
ATOM      8  N   UNL     1      -6.698  -5.367  -1.262  0.00  0.00    -0.287 NA
ATOM      9  C   UNL     1      -8.147  -5.572  -1.344  0.00  0.00    +0.088 C 
ATOM     10  C   UNL     1      -8.565  -6.073  -2.732  0.00  0.00    +0.044 C 
ATOM     11  C   UNL     1      -7.938  -7.452  -2.950  0.00  0.00    +0.109 C 
ATOM     12  C   UNL     1      -6.450  -7.290  -2.662  0.00  0.00    -0.024 C 
ATOM     13  C   UNL     1      -5.810  -7.738  -3.734  0.00  0.00    +0.001 A 
ATOM     14  C   UNL     1      -4.379  -7.918  -4.024  0.00  0.00    +0.010 A 
ATOM     15  C   UNL     1      -4.061  -8.397  -5.254  0.00  0.00    +0.002 A 
ATOM     16  C   UNL     1      -5.001  -8.721  -6.236  0.00  0.00    +0.017 A 
ATOM     17  C   UNL     1      -6.346  -8.601  -6.078  0.00  0.00    +0.041 A 
ATOM     18  C   UNL     1      -6.817  -8.096  -4.781  0.00  0.00    +0.057 A 
ATOM     19  N   UNL     1      -8.044  -7.903  -4.337  0.00  0.00    -0.377 N 
ATOM     20 BR   UNL     1      -7.552  -9.062  -7.460  0.00  0.00    -0.048 Br
ATOM     21  C   UNL     1      -5.950  -6.634  -1.399  0.00  0.00    +0.118 C 
ATOM     22  H   UNL     1      -8.869  -8.030  -4.832  0.00  0.00    +0.160 HD
ENDBRANCH   5   8
BRANCH   1  26
ATOM     23  C   UNL     1      -1.261  -0.755   0.008  0.00  0.00    +0.017 A 
ATOM     24  C   UNL     1      -1.684  -1.430  -1.143  0.00  0.00    +0.013 A 
ATOM     25  C   UNL     1      -2.867  -2.133  -1.129  0.00  0.00    +0.024 A 
ATOM     26  C   UNL     1      -3.641  -2.174   0.026  0.00  0.00    +0.044 A 
ATOM     27  C   UNL     1      -3.225  -1.505   1.172  0.00  0.00    +0.024 A 
ATOM     28  C   UNL     1      -2.041  -0.804   1.170  0.00  0.00    +0.013 A 
BRANCH  23  30
ATOM     29  C   UNL     1       0.838   0.049  -1.253  0.00  0.00    +0.091 C 
ATOM     30  C   UNL     1       0.001  -0.002  -0.001  0.00  0.00    +0.160 C 
ATOM     31  O   UNL     1       0.368   0.578   0.999  0.00  0.00    -0.292 OA
ENDBRANCH  23  30
ENDBRANCH   1  26
TORSDOF 3
