REMARK  Name = ZINC13346067
REMARK  9 active torsions:
REMARK  status: ('A' for Active; 'I' for Inactive)
REMARK    1  A    between atoms: C_1  and  C_2
REMARK    2  A    between atoms: C_2  and  N_3
REMARK    3  A    between atoms: N_3  and  C_4
REMARK    4  A    between atoms: C_7  and  C_13
REMARK    5  A    between atoms: C_9  and  N_10
REMARK    6  A    between atoms: N_15  and  N_16
REMARK    7  A    between atoms: N_16  and  S_17
REMARK    8  A    between atoms: S_17  and  C_20
REMARK    9  A    between atoms: C_22  and  C_27
REMARK                            x       y       z     vdW  Elec       q    Type
REMARK                         _______ _______ _______ _____ _____    ______ ____
ROOT
ATOM      1  C   UNL     1      -2.437  -6.686  -0.016  0.00  0.00    +0.259 C 
ATOM      2  O   UNL     1      -3.538  -7.195  -0.105  0.00  0.00    -0.269 OA
ATOM      3  N   UNL     1      -1.331  -7.451  -0.110  0.00  0.00    -0.228 N 
ATOM      4  H   UNL     1      -0.453  -7.045  -0.038  0.00  0.00    +0.171 HD
ENDROOT
BRANCH   1   8
ATOM      5  C   UNL     1      -2.076  -2.499   0.590  0.00  0.00    +0.058 A 
ATOM      6  C   UNL     1      -0.933  -3.288   0.494  0.00  0.00    +0.026 A 
ATOM      7  C   UNL     1      -1.047  -4.645   0.298  0.00  0.00    +0.015 A 
ATOM      8  C   UNL     1      -2.312  -5.231   0.195  0.00  0.00    +0.040 A 
ATOM      9  C   UNL     1      -3.457  -4.436   0.292  0.00  0.00    +0.047 A 
ATOM     10  C   UNL     1      -3.337  -3.080   0.493  0.00  0.00    +0.148 A 
BRANCH  10  11
ATOM     11  N   UNL     1      -4.550  -2.239   0.602  0.00  0.00    +0.058 N 
ATOM     12  O   UNL     1      -5.532  -2.658   1.186  0.00  0.00    -0.126 OA
ATOM     13  O   UNL     1      -4.565  -1.126   0.106  0.00  0.00    -0.126 OA
ENDBRANCH  10  11
BRANCH   5  14
ATOM     14  N   UNL     1      -1.958  -1.128   0.789  0.00  0.00    -0.342 N 
ATOM     15  H   UNL     1      -2.751  -0.570   0.804  0.00  0.00    +0.146 HD
BRANCH  14  17
ATOM     16  C   UNL     1      -0.785   0.984   1.173  0.00  0.00    +0.024 C 
ATOM     17  C   UNL     1      -0.635  -0.526   0.976  0.00  0.00    +0.098 C 
ENDBRANCH  14  17
ENDBRANCH   5  14
ENDBRANCH   1   8
BRANCH   3  18
ATOM     18  N   UNL     1      -1.451  -8.833  -0.310  0.00  0.00    -0.108 NA
ATOM     19  H   UNL     1      -1.969  -9.370   0.310  0.00  0.00    +0.172 HD
BRANCH  18  20
ATOM     20  S   UNL     1      -0.707  -9.549  -1.604  0.00  0.00    +0.075 S 
ATOM     21  O   UNL     1      -0.791 -10.952  -1.396  0.00  0.00    -0.152 OA
ATOM     22  O   UNL     1      -1.223  -8.919  -2.769  0.00  0.00    -0.152 OA
BRANCH  20  23
ATOM     23  C   UNL     1       1.002  -9.129  -1.521  0.00  0.00    +0.126 A 
ATOM     24  C   UNL     1       1.571  -8.359  -2.514  0.00  0.00    +0.045 A 
ATOM     25  C   UNL     1       2.925  -8.023  -2.444  0.00  0.00    +0.065 A 
ATOM     26  C   UNL     1       3.697  -8.479  -1.373  0.00  0.00    +0.016 A 
ATOM     27  C   UNL     1       3.118  -9.252  -0.390  0.00  0.00    +0.023 A 
ATOM     28  C   UNL     1       1.774  -9.578  -0.462  0.00  0.00    +0.067 A 
ATOM     29 CL   UNL     1       1.052 -10.552   0.781  0.00  0.00    -0.082 Cl
BRANCH  25  30
ATOM     30  C   UNL     1       3.538  -7.194  -3.500  0.00  0.00    +0.387 C 
ATOM     31  O   UNL     1       2.864  -6.798  -4.431  0.00  0.00    -0.241 OA
ATOM     32  O   UNL     1       4.845  -6.875  -3.433  0.00  0.00    -0.241 OA
ENDBRANCH  25  30
ENDBRANCH  20  23
ENDBRANCH  18  20
ENDBRANCH   3  18
TORSDOF 8
