REMARK  Name = ZINC08733823
REMARK  8 active torsions:
REMARK  status: ('A' for Active; 'I' for Inactive)
REMARK    1  A    between atoms: C_4  and  O_7
REMARK    2  A    between atoms: O_7  and  C_8
REMARK    3  A    between atoms: C_13  and  N_14
REMARK    4  A    between atoms: C_15  and  C_17
REMARK    5  A    between atoms: C_17  and  N_61
REMARK    6  A    between atoms: N_20  and  S_23
REMARK    7  A    between atoms: S_23  and  C_26
REMARK    8  A    between atoms: C_29  and  C_32
REMARK                            x       y       z     vdW  Elec       q    Type
REMARK                         _______ _______ _______ _____ _____    ______ ____
ROOT
ATOM      1  C   UNL     1       2.270   1.686  -0.446  0.00  0.00    -0.061 C 
ATOM      2  C   UNL     1       3.607   2.042  -1.105  0.00  0.00    +0.091 C 
ATOM      3  N   UNL     1       3.541   3.435  -1.574  0.00  0.00    -0.180 NA
ATOM      4  C   UNL     1       2.396   3.836  -2.405  0.00  0.00    +0.091 C 
ATOM      5  C   UNL     1       1.106   3.409  -1.695  0.00  0.00    -0.061 C 
ATOM      6  N   UNL     1       1.179   1.960  -1.408  0.00  0.00    +0.387 N 
ATOM      7  H   UNL     1       1.372   1.457  -2.281  0.00  0.00    -0.081 HD
ENDROOT
BRANCH   3   8
ATOM      8  S   UNL     1       4.724   4.522  -1.176  0.00  0.00    +0.061 S 
ATOM      9  O   UNL     1       5.893   3.765  -0.890  0.00  0.00    -0.153 OA
ATOM     10  O   UNL     1       4.697   5.535  -2.172  0.00  0.00    -0.153 OA
BRANCH   8  11
ATOM     11  C   UNL     1       4.240   5.290   0.335  0.00  0.00    +0.106 A 
ATOM     12  C   UNL     1       3.480   6.445   0.307  0.00  0.00    +0.029 A 
ATOM     13  C   UNL     1       3.094   7.048   1.486  0.00  0.00    +0.015 A 
ATOM     14  C   UNL     1       3.480   6.496   2.708  0.00  0.00    +0.037 A 
ATOM     15  C   UNL     1       4.252   5.333   2.729  0.00  0.00    +0.015 A 
ATOM     16  C   UNL     1       4.627   4.737   1.543  0.00  0.00    +0.029 A 
BRANCH  14  17
ATOM     17  C   UNL     1       3.074   7.140   3.976  0.00  0.00    +0.242 C 
ATOM     18  O   UNL     1       3.412   6.657   5.039  0.00  0.00    -0.270 OA
ATOM     19  N   UNL     1       2.329   8.263   3.953  0.00  0.00    -0.325 N 
ATOM     20  H   UNL     1       2.059   8.649   3.105  0.00  0.00    +0.145 HD
ATOM     21  H   UNL     1       2.062   8.685   4.784  0.00  0.00    +0.145 HD
ENDBRANCH  14  17
ENDBRANCH   8  11
ENDBRANCH   3   8
BRANCH   6  22
ATOM     22  C   UNL     1      -0.108   1.490  -0.857  0.00  0.00    +0.019 C 
BRANCH  22  24
ATOM     23  N   UNL     1      -1.158  -0.685  -0.323  0.00  0.00    -0.284 N 
ATOM     24  C   UNL     1      -0.082  -0.015  -0.779  0.00  0.00    +0.201 C 
ATOM     25  O   UNL     1       0.909  -0.623  -1.126  0.00  0.00    -0.278 OA
ATOM     26  H   UNL     1      -1.945  -0.199  -0.031  0.00  0.00    +0.155 HD
BRANCH  23  32
ATOM     27  C   UNL     1      -2.337  -2.796  -0.196  0.00  0.00    +0.150 A 
ATOM     28  C   UNL     1      -2.314  -4.181  -0.148  0.00  0.00    +0.048 A 
ATOM     29  C   UNL     1      -1.106  -4.853  -0.163  0.00  0.00    +0.004 A 
ATOM     30  C   UNL     1       0.082  -4.148  -0.231  0.00  0.00    +0.002 A 
ATOM     31  C   UNL     1       0.067  -2.767  -0.284  0.00  0.00    +0.027 A 
ATOM     32  C   UNL     1      -1.141  -2.085  -0.269  0.00  0.00    +0.076 A 
BRANCH  27  33
ATOM     33  O   UNL     1      -3.524  -2.133  -0.175  0.00  0.00    -0.454 OA
BRANCH  33  37
ATOM     34  C   UNL     1      -5.103  -0.879  -3.774  0.00  0.00    +0.000 A 
ATOM     35  C   UNL     1      -5.827  -0.713  -2.607  0.00  0.00    +0.004 A 
ATOM     36  C   UNL     1      -5.300  -1.132  -1.401  0.00  0.00    +0.046 A 
ATOM     37  C   UNL     1      -4.044  -1.720  -1.361  0.00  0.00    +0.129 A 
ATOM     38  C   UNL     1      -3.318  -1.881  -2.532  0.00  0.00    +0.046 A 
ATOM     39  C   UNL     1      -3.851  -1.464  -3.736  0.00  0.00    +0.004 A 
ENDBRANCH  33  37
ENDBRANCH  27  33
ENDBRANCH  23  32
ENDBRANCH  22  24
ENDBRANCH   6  22
TORSDOF 8
