REMARK  Name = ZINC30952358
REMARK  6 active torsions:
REMARK  status: ('A' for Active; 'I' for Inactive)
REMARK    1  A    between atoms: C_4  and  C_7
REMARK    2  A    between atoms: C_7  and  O_8
REMARK    3  A    between atoms: O_8  and  C_9
REMARK    4  A    between atoms: C_14  and  C_15
REMARK    5  A    between atoms: N_16  and  N_17
REMARK    6  A    between atoms: C_20  and  N_30
REMARK                            x       y       z     vdW  Elec       q    Type
REMARK                         _______ _______ _______ _____ _____    ______ ____
ROOT
ATOM      1  N   UNL     1       2.939  -0.623  -4.962  0.00  0.00    -0.222 N 
ATOM      2  C   UNL     1       1.859   0.230  -4.801  0.00  0.00    +0.121 A 
ATOM      3  C   UNL     1       1.117   0.644  -5.904  0.00  0.00    +0.087 A 
ATOM      4  C   UNL     1       0.038   1.497  -5.694  0.00  0.00    +0.128 A 
ATOM      5  N   UNL     1      -0.242   1.895  -4.455  0.00  0.00    -0.201 NA
ATOM      6  C   UNL     1       0.488   1.484  -3.430  0.00  0.00    +0.199 A 
ATOM      7  N   UNL     1       1.519   0.669  -3.591  0.00  0.00    -0.315 N 
ATOM      8  N   UNL     1       0.166   1.919  -2.156  0.00  0.00    -0.297 N 
ATOM      9  C   UNL     1      -0.066   3.371  -2.138  0.00  0.00    +0.136 C 
ATOM     10  C   UNL     1      -0.477   3.799  -0.726  0.00  0.00    +0.179 C 
ATOM     11  O   UNL     1       0.536   3.400   0.202  0.00  0.00    -0.377 OA
ATOM     12  C   UNL     1       0.786   1.992   0.210  0.00  0.00    +0.179 C 
ATOM     13  C   UNL     1       1.211   1.546  -1.192  0.00  0.00    +0.136 C 
ATOM     14  H   UNL     1       2.909  -1.411  -5.728  0.00  0.00    +0.176 HD
ATOM     15  H   UNL     1       2.098   0.354  -2.709  0.00  0.00    +0.170 HD
ENDROOT
BRANCH   4  16
ATOM     16  N   UNL     1      -0.732   1.931  -6.762  0.00  0.00    -0.311 N 
ATOM     17  C   UNL     1       0.100   2.593  -7.777  0.00  0.00    +0.134 C 
ATOM     18  C   UNL     1      -0.779   3.003  -8.962  0.00  0.00    +0.178 C 
ATOM     19  O   UNL     1      -1.836   3.845  -8.496  0.00  0.00    -0.377 OA
ATOM     20  C   UNL     1      -2.667   3.232  -7.507  0.00  0.00    +0.178 C 
ATOM     21  C   UNL     1      -1.808   2.824  -6.307  0.00  0.00    +0.134 C 
ENDBRANCH   4  16
BRANCH   1  23
ATOM     22  C   UNL     1       5.035  -1.347  -4.219  0.00  0.00    +0.142 C 
ATOM     23  N   UNL     1       4.071  -0.481  -4.147  0.00  0.00    -0.189 NA
BRANCH  22  29
ATOM     24  C   UNL     1       6.622   0.263  -3.171  0.00  0.00    +0.130 A 
ATOM     25  C   UNL     1       7.872   0.559  -2.652  0.00  0.00    +0.048 A 
ATOM     26  C   UNL     1       8.852  -0.414  -2.607  0.00  0.00    +0.023 A 
ATOM     27  C   UNL     1       8.598  -1.688  -3.089  0.00  0.00    +0.042 A 
ATOM     28  C   UNL     1       7.360  -1.998  -3.615  0.00  0.00    +0.033 A 
ATOM     29  C   UNL     1       6.359  -1.024  -3.660  0.00  0.00    +0.038 A 
ATOM     30 CL   UNL     1       9.841  -2.898  -3.033  0.00  0.00    -0.084 Cl
BRANCH  24  31
ATOM     31  O   UNL     1       5.657   1.218  -3.210  0.00  0.00    -0.487 OA
BRANCH  31  32
ATOM     32  C   UNL     1       6.029   2.534  -2.797  0.00  0.00    +0.264 C 
BRANCH  32  36
ATOM     33  C   UNL     1       2.546   4.999  -2.591  0.00  0.00    +0.000 A 
ATOM     34  C   UNL     1       2.842   4.316  -3.756  0.00  0.00    +0.000 A 
ATOM     35  C   UNL     1       3.969   3.518  -3.822  0.00  0.00    +0.007 A 
ATOM     36  C   UNL     1       4.800   3.404  -2.724  0.00  0.00    -0.010 A 
ATOM     37  C   UNL     1       4.505   4.087  -1.559  0.00  0.00    +0.007 A 
ATOM     38  C   UNL     1       3.378   4.885  -1.493  0.00  0.00    +0.000 A 
ENDBRANCH  32  36
ENDBRANCH  31  32
ENDBRANCH  24  31
ENDBRANCH  22  29
ENDBRANCH   1  23
TORSDOF 6
