REMARK  Name = ZINC06849409
REMARK  5 active torsions:
REMARK  status: ('A' for Active; 'I' for Inactive)
REMARK    1  A    between atoms: C_1  and  C_2
REMARK    2  A    between atoms: C_5  and  C_7
REMARK    3  A    between atoms: C_5  and  O_11
REMARK    4  A    between atoms: C_12  and  C_14
REMARK    5  A    between atoms: C_17  and  O_21
REMARK                            x       y       z     vdW  Elec       q    Type
REMARK                         _______ _______ _______ _____ _____    ______ ____
ROOT
ATOM      1  C   UNL     1       5.343   5.029  -0.280  0.00  0.00    +0.062 C 
ATOM      2  C   UNL     1       4.940   3.577  -0.245  0.00  0.00    +0.039 C 
ATOM      3  N   UNL     1       3.749   3.151  -0.137  0.00  0.00    -0.183 NA
ATOM      4  N   UNL     1       3.630   1.763  -0.124  0.00  0.00    -0.148 N 
ATOM      5  C   UNL     1       4.973   1.173  -0.257  0.00  0.00    +0.257 C 
ATOM      6  C   UNL     1       5.894   2.407  -0.342  0.00  0.00    +0.118 C 
ATOM      7  C   UNL     1       2.477   1.074  -0.015  0.00  0.00    +0.269 C 
ATOM      8  O   UNL     1       2.498  -0.140   0.052  0.00  0.00    -0.268 OA
ENDROOT
BRANCH   7   9
ATOM      9  C   UNL     1       1.189   1.793   0.022  0.00  0.00    +0.042 A 
ATOM     10  C   UNL     1      -0.013   1.079   0.010  0.00  0.00    +0.037 A 
ATOM     11  C   UNL     1      -1.214   1.754   0.040  0.00  0.00    +0.084 A 
ATOM     12  C   UNL     1      -1.231   3.144   0.093  0.00  0.00    +0.153 A 
ATOM     13  C   UNL     1      -0.038   3.858   0.106  0.00  0.00    +0.084 A 
ATOM     14  C   UNL     1       1.167   3.190   0.070  0.00  0.00    +0.037 A 
ATOM     15 CL   UNL     1      -0.066   5.592   0.166  0.00  0.00    -0.080 Cl
ATOM     16 CL   UNL     1      -2.707   0.869   0.017  0.00  0.00    -0.080 Cl
BRANCH  12  17
ATOM     17  O   UNL     1      -2.416   3.805   0.127  0.00  0.00    -0.504 OA
ATOM     18  H   UNL     1      -2.768   4.027  -0.746  0.00  0.00    +0.292 HD
ENDBRANCH  12  17
ENDBRANCH   7   9
BRANCH   5  19
ATOM     19  C   UNL     1       5.315   0.328   0.972  0.00  0.00    +0.438 C 
ATOM     20  F   UNL     1       4.398  -0.723   1.085  0.00  0.00    -0.166 F 
ATOM     21  F   UNL     1       6.606  -0.192   0.835  0.00  0.00    -0.166 F 
ATOM     22  F   UNL     1       5.252   1.126   2.119  0.00  0.00    -0.166 F 
ENDBRANCH   5  19
BRANCH   5  23
ATOM     23  O   UNL     1       5.065   0.392  -1.450  0.00  0.00    -0.363 OA
ATOM     24  H   UNL     1       4.453  -0.356  -1.478  0.00  0.00    +0.212 HD
ENDBRANCH   5  23
TORSDOF 4
