REMARK  Name = ZINC03979024
REMARK  18 active torsions:
REMARK  status: ('A' for Active; 'I' for Inactive)
REMARK    1  A    between atoms: C_2  and  C_3
REMARK    2  A    between atoms: C_3  and  C_4
REMARK    3  A    between atoms: C_4  and  C_5
REMARK    4  A    between atoms: C_5  and  C_6
REMARK    5  A    between atoms: C_6  and  C_7
REMARK    6  A    between atoms: C_7  and  C_8
REMARK    7  A    between atoms: C_8  and  C_9
REMARK    8  A    between atoms: C_9  and  C_10
REMARK    9  A    between atoms: C_10  and  C_11
REMARK   10  A    between atoms: C_11  and  C_12
REMARK   11  A    between atoms: C_12  and  C_13
REMARK   12  A    between atoms: C_13  and  C_14
REMARK   13  A    between atoms: C_14  and  C_16
REMARK   14  A    between atoms: C_14  and  O_22
REMARK   15  A    between atoms: C_16  and  C_17
REMARK   16  A    between atoms: C_17  and  C_19
REMARK   17  A    between atoms: C_17  and  O_21
REMARK   18  A    between atoms: C_19  and  O_20
REMARK                            x       y       z     vdW  Elec       q    Type
REMARK                         _______ _______ _______ _____ _____    ______ ____
ROOT
ATOM      1  C   UNL     1       7.076  10.235  -0.011  0.00  0.00    +0.002 C 
ENDROOT
BRANCH   1   2
ATOM      2  C   UNL     1       5.641   9.705   0.000  0.00  0.00    +0.000 C 
BRANCH   2   3
ATOM      3  C   UNL     1       5.661   8.176  -0.008  0.00  0.00    +0.000 C 
BRANCH   3   4
ATOM      4  C   UNL     1       4.226   7.646   0.003  0.00  0.00    +0.000 C 
BRANCH   4   5
ATOM      5  C   UNL     1       4.247   6.116  -0.006  0.00  0.00    +0.000 C 
BRANCH   5   6
ATOM      6  C   UNL     1       2.811   5.587   0.005  0.00  0.00    +0.000 C 
BRANCH   6   7
ATOM      7  C   UNL     1       2.832   4.057  -0.003  0.00  0.00    +0.000 C 
BRANCH   7   8
ATOM      8  C   UNL     1       1.397   3.527   0.008  0.00  0.00    +0.001 C 
BRANCH   8   9
ATOM      9  C   UNL     1       1.417   1.997  -0.001  0.00  0.00    +0.013 C 
BRANCH   9  10
ATOM     10  C   UNL     1      -0.018   1.468   0.010  0.00  0.00    +0.088 C 
BRANCH  10  12
ATOM     11  C   UNL     1       0.018  -1.178  -0.004  0.00  0.00    +0.004 C 
ATOM     12  C   UNL     1       0.002  -0.004   0.002  0.00  0.00    -0.106 C 
ENDBRANCH  10  12
ENDBRANCH   9  10
ENDBRANCH   8   9
ENDBRANCH   7   8
ENDBRANCH   6   7
ENDBRANCH   5   6
ENDBRANCH   4   5
ENDBRANCH   3   4
ENDBRANCH   2   3
ENDBRANCH   1   2
BRANCH   1  13
ATOM     13  C   UNL     1       7.055  11.765  -0.002  0.00  0.00    +0.031 C 
BRANCH  13  14
ATOM     14  C   UNL     1       8.491  12.294  -0.013  0.00  0.00    +0.117 C 
BRANCH  14  15
ATOM     15  O   UNL     1       9.123  11.932  -1.242  0.00  0.00    -0.392 OA
ATOM     16  H   UNL     1       8.684  12.282  -2.029  0.00  0.00    +0.210 HD
ENDBRANCH  14  15
BRANCH  14  17
ATOM     17  C   UNL     1       8.473  13.819   0.121  0.00  0.00    +0.065 C 
BRANCH  17  18
ATOM     18  C   UNL     1       9.908  14.337   0.236  0.00  0.00    +0.142 C 
BRANCH  18  19
ATOM     19  O   UNL     1      10.492  13.857   1.448  0.00  0.00    -0.389 OA
ATOM     20  H   UNL     1      10.024  14.135   2.247  0.00  0.00    +0.210 HD
ENDBRANCH  18  19
BRANCH  18  21
ATOM     21  C   UNL     1       9.898  15.867   0.244  0.00  0.00    +0.187 C 
BRANCH  21  22
ATOM     22  O   UNL     1      11.242  16.352   0.234  0.00  0.00    -0.392 OA
ATOM     23  H   UNL     1      11.312  17.316   0.238  0.00  0.00    +0.210 HD
ENDBRANCH  21  22
ENDBRANCH  18  21
ENDBRANCH  17  18
ENDBRANCH  14  17
ENDBRANCH  13  14
ENDBRANCH   1  13
TORSDOF 18
