REMARK  Name = ZINC39558437
REMARK  8 active torsions:
REMARK  status: ('A' for Active; 'I' for Inactive)
REMARK    1  A    between atoms: C_3  and  N_12
REMARK    2  A    between atoms: C_5  and  N_7
REMARK    3  A    between atoms: N_7  and  S_8
REMARK    4  A    between atoms: S_8  and  N_11
REMARK    5  A    between atoms: C_13  and  C_15
REMARK    6  A    between atoms: C_18  and  S_21
REMARK    7  A    between atoms: S_21  and  N_24
REMARK    8  A    between atoms: N_24  and  C_25
REMARK                            x       y       z     vdW  Elec       q    Type
REMARK                         _______ _______ _______ _____ _____    ______ ____
ROOT
ATOM      1  N   UNL     1       3.583   2.133  -0.021  0.00  0.00    -0.281 N 
ATOM      2  C   UNL     1       3.561   3.478  -0.116  0.00  0.00    +0.248 C 
ATOM      3  O   UNL     1       2.501   4.071  -0.103  0.00  0.00    -0.270 OA
ATOM      4  H   UNL     1       4.430   1.665   0.036  0.00  0.00    +0.155 HD
ENDROOT
BRANCH   1   7
ATOM      5  C   UNL     1       1.128  -0.544  -0.598  0.00  0.00    +0.004 A 
ATOM      6  C   UNL     1       2.312   0.167  -0.614  0.00  0.00    +0.023 A 
ATOM      7  C   UNL     1       2.383   1.414  -0.005  0.00  0.00    +0.036 A 
ATOM      8  C   UNL     1       1.263   1.946   0.618  0.00  0.00    +0.050 A 
ATOM      9  C   UNL     1       0.075   1.229   0.632  0.00  0.00    +0.077 A 
ATOM     10  C   UNL     1       0.011  -0.018   0.022  0.00  0.00    +0.027 A 
BRANCH   9  11
ATOM     11  N   UNL     1      -1.054   1.759   1.259  0.00  0.00    -0.087 NA
BRANCH  11  12
ATOM     12  S   UNL     1      -2.472   0.903   1.275  0.00  0.00    +0.126 S 
ATOM     13  O   UNL     1      -2.916   0.828  -0.072  0.00  0.00    -0.137 OA
ATOM     14  O   UNL     1      -2.238  -0.254   2.066  0.00  0.00    -0.137 OA
BRANCH  12  15
ATOM     15  N   UNL     1      -3.586   1.816   2.091  0.00  0.00    -0.189 NA
ATOM     16  H   UNL     1      -4.527   1.748   1.866  0.00  0.00    +0.146 HD
ATOM     17  H   UNL     1      -3.298   2.419   2.794  0.00  0.00    +0.146 HD
ENDBRANCH  12  15
ENDBRANCH  11  12
ENDBRANCH   9  11
ENDBRANCH   1   7
BRANCH   2  18
ATOM     18  C   UNL     1       4.828   4.230  -0.236  0.00  0.00    +0.037 A 
ATOM     19  C   UNL     1       6.047   3.551  -0.257  0.00  0.00    +0.015 A 
ATOM     20  C   UNL     1       7.226   4.260  -0.369  0.00  0.00    +0.029 A 
ATOM     21  C   UNL     1       7.201   5.641  -0.460  0.00  0.00    +0.110 A 
ATOM     22  C   UNL     1       5.995   6.319  -0.440  0.00  0.00    +0.029 A 
ATOM     23  C   UNL     1       4.809   5.623  -0.334  0.00  0.00    +0.015 A 
BRANCH  21  24
ATOM     24  S   UNL     1       8.710   6.538  -0.603  0.00  0.00    +0.092 S 
ATOM     25  O   UNL     1       8.450   7.850  -0.124  0.00  0.00    -0.148 OA
ATOM     26  O   UNL     1       9.727   5.713  -0.051  0.00  0.00    -0.148 OA
BRANCH  24  27
ATOM     27  N   UNL     1       9.044   6.681  -2.219  0.00  0.00    -0.098 NA
BRANCH  27  28
ATOM     28  C   UNL     1      10.194   7.354  -2.638  0.00  0.00    +0.074 A 
ATOM     29  C   UNL     1      11.062   7.899  -1.700  0.00  0.00    +0.028 A 
ATOM     30  C   UNL     1      12.199   8.563  -2.117  0.00  0.00    +0.022 A 
ATOM     31  C   UNL     1      12.473   8.687  -3.468  0.00  0.00    +0.041 A 
ATOM     32  C   UNL     1      11.610   8.146  -4.404  0.00  0.00    +0.022 A 
ATOM     33  C   UNL     1      10.475   7.475  -3.993  0.00  0.00    +0.028 A 
ATOM     34 CL   UNL     1      13.903   9.524  -3.988  0.00  0.00    -0.084 Cl
ENDBRANCH  27  28
ENDBRANCH  24  27
ENDBRANCH  21  24
ENDBRANCH   2  18
TORSDOF 8
