REMARK  Name = ZINC66169611
REMARK  12 active torsions:
REMARK  status: ('A' for Active; 'I' for Inactive)
REMARK    1  A    between atoms: C_1  and  C_2
REMARK    2  A    between atoms: C_2  and  C_3
REMARK    3  A    between atoms: C_3  and  C_5
REMARK    4  A    between atoms: C_3  and  C_6
REMARK    5  A    between atoms: C_11  and  O_12
REMARK    6  A    between atoms: O_12  and  C_13
REMARK    7  A    between atoms: C_13  and  C_14
REMARK    8  A    between atoms: C_14  and  N_15
REMARK    9  A    between atoms: N_15  and  C_16
REMARK   10  A    between atoms: C_21  and  O_22
REMARK   11  A    between atoms: O_22  and  C_23
REMARK   12  A    between atoms: C_23  and  C_24
REMARK                            x       y       z     vdW  Elec       q    Type
REMARK                         _______ _______ _______ _____ _____    ______ ____
ROOT
ATOM      1  N   UNL     1       5.619  -0.654  -0.178  0.00  0.00    -0.338 N 
ATOM      2  H   UNL     1       4.969  -0.823   0.521  0.00  0.00    +0.146 HD
ENDROOT
BRANCH   1   3
ATOM      3  C   UNL     1       6.571   0.360  -0.019  0.00  0.00    +0.070 A 
ATOM      4  C   UNL     1       7.499   0.606  -1.021  0.00  0.00    +0.026 A 
ATOM      5  C   UNL     1       8.438   1.608  -0.861  0.00  0.00    +0.002 A 
ATOM      6  C   UNL     1       8.455   2.366   0.294  0.00  0.00    +0.004 A 
ATOM      7  C   UNL     1       7.533   2.127   1.297  0.00  0.00    +0.047 A 
ATOM      8  C   UNL     1       6.586   1.128   1.143  0.00  0.00    +0.142 A 
BRANCH   8   9
ATOM      9  O   UNL     1       5.675   0.895   2.126  0.00  0.00    -0.486 OA
BRANCH   9  10
ATOM     10  C   UNL     1       5.750   1.721   3.289  0.00  0.00    +0.264 C 
BRANCH  10  11
ATOM     11  C   UNL     1       4.671   1.319   4.261  0.00  0.00    -0.010 A 
ATOM     12  C   UNL     1       3.425   1.914   4.195  0.00  0.00    +0.007 A 
ATOM     13  C   UNL     1       2.435   1.545   5.087  0.00  0.00    +0.000 A 
ATOM     14  C   UNL     1       2.691   0.582   6.044  0.00  0.00    +0.000 A 
ATOM     15  C   UNL     1       3.937  -0.013   6.110  0.00  0.00    +0.000 A 
ATOM     16  C   UNL     1       4.926   0.352   5.215  0.00  0.00    +0.007 A 
ENDBRANCH  10  11
ENDBRANCH   9  10
ENDBRANCH   8   9
ENDBRANCH   1   3
BRANCH   1  17
ATOM     17  C   UNL     1       5.606  -1.461  -1.401  0.00  0.00    +0.142 C 
BRANCH  17  18
ATOM     18  C   UNL     1       4.476  -2.490  -1.321  0.00  0.00    +0.247 C 
BRANCH  18  19
ATOM     19  O   UNL     1       3.217  -1.814  -1.300  0.00  0.00    -0.490 OA
BRANCH  19  25
ATOM     20  C   UNL     1       0.847  -1.998  -1.206  0.00  0.00    -0.003 A 
ATOM     21  C   UNL     1      -0.285  -2.788  -1.141  0.00  0.00    +0.007 A 
ATOM     22  C   UNL     1      -0.167  -4.164  -1.093  0.00  0.00    +0.001 A 
ATOM     23  C   UNL     1       1.083  -4.755  -1.111  0.00  0.00    +0.004 A 
ATOM     24  C   UNL     1       2.218  -3.970  -1.177  0.00  0.00    +0.046 A 
ATOM     25  C   UNL     1       2.103  -2.588  -1.230  0.00  0.00    +0.124 A 
BRANCH  20  26
ATOM     26  C   UNL     1       0.718  -0.497  -1.257  0.00  0.00    +0.019 C 
ATOM     27  C   UNL     1      -0.089  -0.097  -2.493  0.00  0.00    +0.012 C 
BRANCH  26  29
ATOM     28  C   UNL     1      -0.019   1.526   0.010  0.00  0.00    +0.004 C 
ATOM     29  C   UNL     1       0.002  -0.004   0.002  0.00  0.00    +0.004 C 
ENDBRANCH  26  29
ENDBRANCH  20  26
ENDBRANCH  19  25
ENDBRANCH  18  19
ENDBRANCH  17  18
ENDBRANCH   1  17
TORSDOF 10
