REMARK  Name = ZINC05949329
REMARK  9 active torsions:
REMARK  status: ('A' for Active; 'I' for Inactive)
REMARK    1  A    between atoms: C_1  and  C_2
REMARK    2  A    between atoms: C_2  and  O_3
REMARK    3  A    between atoms: O_3  and  C_4
REMARK    4  A    between atoms: C_7  and  C_11
REMARK    5  A    between atoms: N_13  and  C_14
REMARK    6  A    between atoms: C_14  and  N_16
REMARK    7  A    between atoms: N_16  and  C_17
REMARK    8  A    between atoms: C_20  and  C_23
REMARK    9  A    between atoms: C_23  and  N_24
REMARK                            x       y       z     vdW  Elec       q    Type
REMARK                         _______ _______ _______ _____ _____    ______ ____
ROOT
ATOM      1  C   UNL     1       2.636  -7.832  -2.940  0.00  0.00    +0.141 C 
ATOM      2  S   UNL     1       2.998  -8.864  -1.623  0.00  0.00    -0.018 S 
ENDROOT
BRANCH   1   5
ATOM      3  C   UNL     1       2.707  -5.986  -1.512  0.00  0.00    +0.250 C 
ATOM      4  O   UNL     1       2.963  -6.719  -0.577  0.00  0.00    -0.270 OA
ATOM      5  N   UNL     1       2.529  -6.503  -2.744  0.00  0.00    -0.264 N 
ATOM      6  H   UNL     1       2.325  -5.918  -3.491  0.00  0.00    +0.157 HD
BRANCH   3  10
ATOM      7  C   UNL     1       2.371  -1.798  -0.896  0.00  0.00    +0.134 A 
ATOM      8  C   UNL     1       2.663  -2.635   0.174  0.00  0.00    +0.047 A 
ATOM      9  C   UNL     1       2.773  -3.993  -0.021  0.00  0.00    +0.017 A 
ATOM     10  C   UNL     1       2.589  -4.531  -1.299  0.00  0.00    +0.038 A 
ATOM     11  C   UNL     1       2.295  -3.687  -2.373  0.00  0.00    +0.032 A 
ATOM     12  C   UNL     1       2.182  -2.329  -2.168  0.00  0.00    +0.060 A 
ATOM     13 BR   UNL     1       1.778  -1.185  -3.618  0.00  0.00    -0.046 Br
BRANCH   7  14
ATOM     14  O   UNL     1       2.263  -0.459  -0.699  0.00  0.00    -0.491 OA
BRANCH  14  16
ATOM     15  C   UNL     1       2.309   1.540   0.657  0.00  0.00    +0.048 C 
ATOM     16  C   UNL     1       2.469   0.019   0.632  0.00  0.00    +0.226 C 
ENDBRANCH  14  16
ENDBRANCH   7  14
ENDBRANCH   3  10
ENDBRANCH   1   5
BRANCH   1  17
ATOM     17  N   UNL     1       2.459  -8.348  -4.172  0.00  0.00    -0.297 N 
ATOM     18  H   UNL     1       2.194  -7.772  -4.906  0.00  0.00    +0.154 HD
BRANCH  17  19
ATOM     19  C   UNL     1       2.657  -9.715  -4.392  0.00  0.00    +0.033 A 
ATOM     20  C   UNL     1       2.127 -10.647  -3.509  0.00  0.00    +0.023 A 
ATOM     21  C   UNL     1       2.324 -11.996  -3.730  0.00  0.00    +0.003 A 
ATOM     22  C   UNL     1       3.049 -12.419  -4.829  0.00  0.00    -0.064 A 
ATOM     23  C   UNL     1       3.579 -11.495  -5.710  0.00  0.00    +0.003 A 
ATOM     24  C   UNL     1       3.380 -10.144  -5.498  0.00  0.00    +0.023 A 
BRANCH  22  25
ATOM     25  C   UNL     1       3.262 -13.892  -5.066  0.00  0.00    -0.043 C 
BRANCH  25  26
ATOM     26  N   UNL     1       2.168 -14.419  -5.893  0.00  0.00    +0.382 N 
ATOM     27  C   UNL     1       2.255 -13.868  -7.269  0.00  0.00    -0.078 C 
ATOM     28  C   UNL     1       1.455 -14.893  -8.113  0.00  0.00    -0.020 C 
ATOM     29  C   UNL     1       1.825 -16.243  -7.457  0.00  0.00    -0.020 C 
ATOM     30  C   UNL     1       2.296 -15.885  -6.036  0.00  0.00    -0.078 C 
ATOM     31  H   UNL     1       1.277 -14.186  -5.480  0.00  0.00    -0.081 HD
ENDBRANCH  25  26
ENDBRANCH  22  25
ENDBRANCH  17  19
ENDBRANCH   1  17
TORSDOF 8
