REMARK  Name = ZINC17913958
REMARK  7 active torsions:
REMARK  status: ('A' for Active; 'I' for Inactive)
REMARK    1  A    between atoms: C_1  and  C_2
REMARK    2  A    between atoms: C_2  and  C_25
REMARK    3  A    between atoms: N_5  and  C_9
REMARK    4  A    between atoms: C_9  and  C_10
REMARK    5  A    between atoms: N_12  and  C_13
REMARK    6  A    between atoms: C_13  and  C_14
REMARK    7  A    between atoms: N_16  and  C_17
REMARK                            x       y       z     vdW  Elec       q    Type
REMARK                         _______ _______ _______ _____ _____    ______ ____
ROOT
ATOM      1  C   UNL     1       9.758   9.257   0.270  0.00  0.00    +0.047 C 
ATOM      2  C   UNL     1       8.464   9.931  -0.190  0.00  0.00    +0.135 C 
ATOM      3  C   UNL     1       7.253   9.240   0.404  0.00  0.00    +0.251 C 
ATOM      4  O   UNL     1       6.976   9.129   1.579  0.00  0.00    -0.272 OA
ATOM      5  N   UNL     1       6.548   8.773  -0.645  0.00  0.00    -0.215 N 
ATOM      6  C   UNL     1       7.135   9.076  -1.808  0.00  0.00    +0.310 C 
ATOM      7  O   UNL     1       6.686   8.765  -2.894  0.00  0.00    -0.252 OA
ATOM      8  N   UNL     1       8.280   9.764  -1.642  0.00  0.00    -0.281 N 
ATOM      9  H   UNL     1       8.868  10.087  -2.342  0.00  0.00    +0.152 HD
ENDROOT
BRANCH   2  10
ATOM     10  C   UNL     1       8.469  11.392   0.179  0.00  0.00    -0.015 A 
ATOM     11  C   UNL     1       7.976  11.789   1.420  0.00  0.00    +0.007 A 
ATOM     12  C   UNL     1       7.971  13.100   1.786  0.00  0.00    +0.009 A 
ATOM     13  C   UNL     1       8.460  14.072   0.897  0.00  0.00    -0.018 A 
ATOM     14  C   UNL     1       8.467  15.435   1.238  0.00  0.00    +0.008 A 
ATOM     15  C   UNL     1       8.948  16.348   0.351  0.00  0.00    +0.001 A 
ATOM     16  C   UNL     1       9.437  15.953  -0.893  0.00  0.00    +0.001 A 
ATOM     17  C   UNL     1       9.447  14.641  -1.256  0.00  0.00    +0.008 A 
ATOM     18  C   UNL     1       8.957  13.669  -0.368  0.00  0.00    -0.018 A 
ATOM     19  C   UNL     1       8.951  12.306  -0.708  0.00  0.00    +0.014 A 
ENDBRANCH   2  10
BRANCH   5  20
ATOM     20  C   UNL     1       5.291   8.030  -0.527  0.00  0.00    +0.213 C 
BRANCH  20  21
ATOM     21  C   UNL     1       5.585   6.555  -0.438  0.00  0.00    +0.231 C 
ATOM     22  O   UNL     1       6.732   6.162  -0.470  0.00  0.00    -0.274 OA
ATOM     23  N   UNL     1       4.574   5.672  -0.323  0.00  0.00    -0.305 N 
ATOM     24  H   UNL     1       3.656   5.986  -0.297  0.00  0.00    +0.149 HD
BRANCH  23  25
ATOM     25  C   UNL     1       4.860   4.237  -0.236  0.00  0.00    +0.200 C 
BRANCH  25  26
ATOM     26  C   UNL     1       3.567   3.474  -0.115  0.00  0.00    +0.234 C 
ATOM     27  O   UNL     1       2.510   4.069  -0.102  0.00  0.00    -0.274 OA
ATOM     28  N   UNL     1       3.584   2.129  -0.020  0.00  0.00    -0.284 N 
ATOM     29  H   UNL     1       4.430   1.659   0.046  0.00  0.00    +0.155 HD
BRANCH  28  30
ATOM     30  C   UNL     1       2.382   1.411  -0.019  0.00  0.00    +0.036 A 
ATOM     31  C   UNL     1       2.272   0.241   0.720  0.00  0.00    +0.026 A 
ATOM     32  C   UNL     1       1.086  -0.467   0.720  0.00  0.00    +0.043 A 
ATOM     33  C   UNL     1       0.006  -0.010  -0.015  0.00  0.00    +0.159 A 
ATOM     34  C   UNL     1       0.112   1.158  -0.754  0.00  0.00    +0.160 A 
ATOM     35  C   UNL     1       1.299   1.869  -0.756  0.00  0.00    +0.064 A 
ATOM     36  F   UNL     1      -0.943   1.602  -1.472  0.00  0.00    -0.202 F 
ATOM     37  F   UNL     1      -1.154  -0.704  -0.013  0.00  0.00    -0.202 F 
ENDBRANCH  28  30
ENDBRANCH  25  26
ENDBRANCH  23  25
ENDBRANCH  20  21
ENDBRANCH   5  20
TORSDOF 6
