REMARK  Name = ZINC35527527
REMARK  2 active torsions:
REMARK  status: ('A' for Active; 'I' for Inactive)
REMARK    1  A    between atoms: C_6  and  N_7
REMARK    2  A    between atoms: C_9  and  C_20
REMARK                            x       y       z     vdW  Elec       q    Type
REMARK                         _______ _______ _______ _____ _____    ______ ____
ROOT
ATOM      1  N   UNL     1      -1.192  -0.722   0.043  0.00  0.00    -0.272 N 
ATOM      2  C   UNL     1      -1.097  -2.065  -0.068  0.00  0.00    +0.113 C 
ATOM      3  C   UNL     1      -2.072  -2.924   0.284  0.00  0.00    +0.169 C 
ATOM      4  S   UNL     1      -3.591  -2.278   0.917  0.00  0.00    +0.033 S 
ATOM      5  O   UNL     1      -4.638  -2.858   0.152  0.00  0.00    -0.164 OA
ATOM      6  O   UNL     1      -3.526  -2.382   2.333  0.00  0.00    -0.164 OA
ATOM      7  C   UNL     1      -3.563  -0.556   0.525  0.00  0.00    +0.116 A 
ATOM      8  C   UNL     1      -2.362   0.021   0.134  0.00  0.00    +0.066 A 
ATOM      9  C   UNL     1      -2.338   1.379  -0.177  0.00  0.00    +0.064 A 
ATOM     10  C   UNL     1      -3.493   2.132  -0.085  0.00  0.00    +0.125 A 
ATOM     11  C   UNL     1      -4.681   1.543   0.316  0.00  0.00    +0.040 A 
ATOM     12  C   UNL     1      -4.713   0.197   0.612  0.00  0.00    +0.032 A 
ATOM     13  F   UNL     1      -3.463   3.448  -0.388  0.00  0.00    -0.205 F 
ENDROOT
BRANCH   1  19
ATOM     14  C   UNL     1       0.808   0.064  -1.061  0.00  0.00    +0.027 A 
ATOM     15  C   UNL     1       1.997   0.768  -1.029  0.00  0.00    +0.051 A 
ATOM     16  C   UNL     1       2.398   1.406   0.135  0.00  0.00    +0.162 A 
ATOM     17  C   UNL     1       1.602   1.339   1.272  0.00  0.00    +0.164 A 
ATOM     18  C   UNL     1       0.410   0.632   1.241  0.00  0.00    +0.073 A 
ATOM     19  C   UNL     1       0.012  -0.007   0.074  0.00  0.00    +0.042 A 
ATOM     20  O   UNL     1       1.975   1.966   2.422  0.00  0.00    -0.485 OA
ATOM     21  C   UNL     1       3.350   2.352   2.527  0.00  0.00    +0.270 C 
ATOM     22  C   UNL     1       3.761   3.030   1.213  0.00  0.00    +0.270 C 
ATOM     23  O   UNL     1       3.575   2.092   0.147  0.00  0.00    -0.485 OA
ENDBRANCH   1  19
BRANCH   3  24
ATOM     24  C   UNL     1      -1.885  -4.320   0.148  0.00  0.00    +0.266 C 
ATOM     25  O   UNL     1      -1.471  -4.973   1.089  0.00  0.00    -0.268 OA
ATOM     26  N   UNL     1      -2.166  -4.927  -1.022  0.00  0.00    -0.292 N 
ATOM     27  C   UNL     1      -2.556  -4.146  -2.206  0.00  0.00    +0.136 C 
ATOM     28  C   UNL     1      -1.682  -4.588  -3.386  0.00  0.00    +0.179 C 
ATOM     29  O   UNL     1      -1.748  -6.010  -3.514  0.00  0.00    -0.377 OA
ATOM     30  C   UNL     1      -1.240  -6.723  -2.384  0.00  0.00    +0.179 C 
ATOM     31  C   UNL     1      -2.086  -6.390  -1.154  0.00  0.00    +0.136 C 
ENDBRANCH   3  24
TORSDOF 2
