REMARK  Name = ZINC40476174
REMARK  8 active torsions:
REMARK  status: ('A' for Active; 'I' for Inactive)
REMARK    1  A    between atoms: C_1  and  C_2
REMARK    2  A    between atoms: C_2  and  C_38
REMARK    3  A    between atoms: C_6  and  C_25
REMARK    4  A    between atoms: C_12  and  S_16
REMARK    5  A    between atoms: S_16  and  C_17
REMARK    6  A    between atoms: C_17  and  C_18
REMARK    7  A    between atoms: C_28  and  O_34
REMARK    8  A    between atoms: C_29  and  N_31
REMARK                            x       y       z     vdW  Elec       q    Type
REMARK                         _______ _______ _______ _____ _____    ______ ____
ROOT
ATOM      1  C   UNL     1      -0.019   1.526   0.010  0.00  0.00    +0.011 C 
ATOM      2  C   UNL     1       0.002  -0.004   0.002  0.00  0.00    -0.023 C 
ATOM      3  C   UNL     1       0.732  -0.500  -1.249  0.00  0.00    +0.062 C 
ATOM      4  C   UNL     1       2.166  -0.023  -1.210  0.00  0.00    +0.052 C 
ATOM      5  C   UNL     1       2.797   0.179   0.034  0.00  0.00    +0.028 C 
ATOM      6  C   UNL     1       4.238   0.659   0.032  0.00  0.00    +0.093 C 
ATOM      7  C   UNL     1       4.854   0.872  -1.331  0.00  0.00    +0.075 A 
ATOM      8  C   UNL     1       6.155   1.305  -1.487  0.00  0.00    +0.280 A 
ATOM      9  O   UNL     1       6.935   1.557  -0.407  0.00  0.00    -0.265 OA
ATOM     10  N   UNL     1       6.629   1.469  -2.722  0.00  0.00    -0.183 NA
ATOM     11  C   UNL     1       5.866   1.222  -3.778  0.00  0.00    +0.194 A 
ATOM     12  N   UNL     1       4.615   0.807  -3.666  0.00  0.00    -0.202 NA
ATOM     13  C   UNL     1       4.067   0.617  -2.459  0.00  0.00    +0.165 A 
ATOM     14  N   UNL     1       2.788   0.192  -2.338  0.00  0.00    -0.232 NA
ATOM     15  C   UNL     1       2.170  -0.037   1.198  0.00  0.00    +0.162 C 
ATOM     16  O   UNL     1       2.830   0.176   2.354  0.00  0.00    -0.292 OA
ATOM     17  C   UNL     1       0.742  -0.514   1.242  0.00  0.00    +0.086 C 
ATOM     18  C   UNL     1      -1.432  -0.536   0.007  0.00  0.00    +0.011 C 
ENDROOT
BRANCH   6  19
ATOM     19  C   UNL     1       5.074  -0.353   0.771  0.00  0.00    -0.033 A 
ATOM     20  C   UNL     1       5.141  -1.657   0.315  0.00  0.00    +0.008 A 
ATOM     21  C   UNL     1       5.906  -2.588   0.991  0.00  0.00    +0.048 A 
ATOM     22  C   UNL     1       6.609  -2.213   2.127  0.00  0.00    +0.147 A 
ATOM     23  C   UNL     1       6.541  -0.904   2.582  0.00  0.00    +0.168 A 
ATOM     24  C   UNL     1       5.777   0.024   1.899  0.00  0.00    +0.041 A 
BRANCH  23  25
ATOM     25  N   UNL     1       7.288  -0.501   3.793  0.00  0.00    +0.060 N 
ATOM     26  O   UNL     1       7.229   0.640   4.189  0.00  0.00    -0.126 OA
ATOM     27  O   UNL     1       7.959  -1.313   4.388  0.00  0.00    -0.126 OA
ENDBRANCH  23  25
BRANCH  22  28
ATOM     28  O   UNL     1       7.362  -3.127   2.794  0.00  0.00    -0.504 OA
ATOM     29  H   UNL     1       8.278  -3.181   2.486  0.00  0.00    +0.292 HD
ENDBRANCH  22  28
ENDBRANCH   6  19
BRANCH  11  30
ATOM     30  S   UNL     1       6.543   1.456  -5.388  0.00  0.00    -0.081 S 
BRANCH  30  31
ATOM     31  C   UNL     1       8.239   2.017  -5.074  0.00  0.00    +0.112 C 
BRANCH  31  32
ATOM     32  C   UNL     1       8.940   2.258  -6.386  0.00  0.00    -0.037 A 
ATOM     33  C   UNL     1       9.633   1.230  -6.997  0.00  0.00    +0.007 A 
ATOM     34  C   UNL     1      10.276   1.449  -8.201  0.00  0.00    +0.038 A 
ATOM     35  C   UNL     1      10.225   2.698  -8.795  0.00  0.00    +0.123 A 
ATOM     36  C   UNL     1       9.530   3.727  -8.182  0.00  0.00    +0.038 A 
ATOM     37  C   UNL     1       8.884   3.504  -6.981  0.00  0.00    +0.007 A 
ATOM     38  F   UNL     1      10.853   2.914  -9.972  0.00  0.00    -0.205 F 
ENDBRANCH  31  32
ENDBRANCH  30  31
ENDBRANCH  11  30
TORSDOF 6
