REMARK  Name = ZINC12217813
REMARK  5 active torsions:
REMARK  status: ('A' for Active; 'I' for Inactive)
REMARK    1  A    between atoms: C_4  and  C_7
REMARK    2  A    between atoms: C_15  and  C_17
REMARK    3  A    between atoms: C_21  and  C_26
REMARK    4  A    between atoms: C_26  and  O_36
REMARK    5  A    between atoms: C_31  and  N_74
REMARK                            x       y       z     vdW  Elec       q    Type
REMARK                         _______ _______ _______ _____ _____    ______ ____
ROOT
ATOM      1  C   UNL     1      -0.262  -0.633  -2.179  0.00  0.00    +0.191 A 
ATOM      2  C   UNL     1      -0.281  -1.542  -3.188  0.00  0.00    +0.063 A 
ATOM      3  C   UNL     1       0.432  -2.717  -2.688  0.00  0.00    +0.021 A 
ATOM      4  C   UNL     1       0.754  -3.964  -3.229  0.00  0.00    +0.018 A 
ATOM      5  C   UNL     1       1.446  -4.870  -2.477  0.00  0.00    -0.015 A 
ATOM      6  C   UNL     1       1.832  -4.560  -1.180  0.00  0.00    +0.010 A 
ATOM      7  C   UNL     1       1.524  -3.336  -0.627  0.00  0.00    +0.047 A 
ATOM      8  C   UNL     1       0.820  -2.397  -1.373  0.00  0.00    +0.136 A 
ATOM      9  O   UNL     1       0.386  -1.148  -1.113  0.00  0.00    -0.450 OA
ENDROOT
BRANCH   1  17
ATOM     10  C   UNL     1       1.342   2.576   0.545  0.00  0.00    +0.021 C 
ATOM     11  C   UNL     1       0.932   3.511  -0.589  0.00  0.00    +0.010 C 
ATOM     12  C   UNL     1      -0.528   3.856  -0.447  0.00  0.00    +0.020 C 
ATOM     13  C   UNL     1      -1.389   2.865  -1.251  0.00  0.00    +0.108 C 
ATOM     14  N   UNL     1      -0.896   1.479  -1.131  0.00  0.00    -0.295 N 
ATOM     15  C   UNL     1      -0.447   0.914   0.122  0.00  0.00    +0.109 C 
ATOM     16  C   UNL     1       1.074   1.154   0.284  0.00  0.00    +0.027 C 
ATOM     17  C   UNL     1      -0.863   0.707  -2.236  0.00  0.00    +0.282 C 
ATOM     18  O   UNL     1      -1.331   1.120  -3.280  0.00  0.00    -0.267 OA
BRANCH  10  22
ATOM     19  C   UNL     1       5.527   3.059   1.254  0.00  0.00    +0.000 A 
ATOM     20  C   UNL     1       4.615   3.412   2.231  0.00  0.00    +0.000 A 
ATOM     21  C   UNL     1       3.261   3.256   2.002  0.00  0.00    +0.004 A 
ATOM     22  C   UNL     1       2.819   2.747   0.795  0.00  0.00    -0.044 A 
ATOM     23  C   UNL     1       3.731   2.389  -0.180  0.00  0.00    +0.004 A 
ATOM     24  C   UNL     1       5.085   2.549   0.048  0.00  0.00    +0.000 A 
ENDBRANCH  10  22
ENDBRANCH   1  17
BRANCH   5  25
ATOM     25  C   UNL     1       1.794  -6.216  -3.060  0.00  0.00    +0.088 C 
ATOM     26  C   UNL     1       0.673  -7.212  -2.753  0.00  0.00    +0.021 C 
ATOM     27  C   UNL     1       1.059  -8.590  -3.294  0.00  0.00    -0.075 C 
ATOM     28  C   UNL     1       3.415  -8.114  -2.987  0.00  0.00    -0.075 C 
ATOM     29  C   UNL     1       3.099  -6.721  -2.437  0.00  0.00    +0.021 C 
ATOM     30  N   UNL     1       2.309  -9.030  -2.638  0.00  0.00    +0.382 N 
ATOM     31  H   UNL     1       2.174  -9.016  -1.620  0.00  0.00    -0.081 HD
BRANCH  30  32
ATOM     32  C   UNL     1       2.642 -10.407  -3.058  0.00  0.00    -0.069 C 
ATOM     33  C   UNL     1       2.839 -10.490  -4.586  0.00  0.00    -0.015 C 
ATOM     34  C   UNL     1       2.237 -11.863  -4.972  0.00  0.00    -0.002 C 
ATOM     35  C   UNL     1       1.001 -11.968  -4.044  0.00  0.00    -0.002 C 
ATOM     36  C   UNL     1       1.474 -11.346  -2.714  0.00  0.00    -0.015 C 
ENDBRANCH  30  32
BRANCH  25  37
ATOM     37  O   UNL     1       1.956  -6.096  -4.474  0.00  0.00    -0.384 OA
ATOM     38  H   UNL     1       1.165  -5.782  -4.935  0.00  0.00    +0.211 HD
ENDBRANCH  25  37
ENDBRANCH   5  25
TORSDOF 5
