REMARK  Name = ZINC08816821
REMARK  14 active torsions:
REMARK  status: ('A' for Active; 'I' for Inactive)
REMARK    1  A    between atoms: C_1  and  C_2
REMARK    2  A    between atoms: C_2  and  C_3
REMARK    3  A    between atoms: C_3  and  O_4
REMARK    4  A    between atoms: O_4  and  C_5
REMARK    5  A    between atoms: C_8  and  C_14
REMARK    6  A    between atoms: C_10  and  O_11
REMARK    7  A    between atoms: O_11  and  C_12
REMARK    8  A    between atoms: C_12  and  C_13
REMARK    9  A    between atoms: C_22  and  C_30
REMARK   10  A    between atoms: C_24  and  C_25
REMARK   11  A    between atoms: C_24  and  C_27
REMARK   12  A    between atoms: C_32  and  C_33
REMARK   13  A    between atoms: C_32  and  C_34
REMARK   14  A    between atoms: C_32  and  N_64
REMARK                            x       y       z     vdW  Elec       q    Type
REMARK                         _______ _______ _______ _____ _____    ______ ____
ROOT
ATOM      1  C   UNL     1       3.715  -0.701  -0.037  0.00  0.00    +0.064 C 
ATOM      2  C   UNL     1       4.582  -0.224   1.129  0.00  0.00    +0.010 C 
ATOM      3  C   UNL     1       4.041  -0.679   2.465  0.00  0.00    -0.070 C 
ATOM      4  C   UNL     1       4.201   1.543   3.385  0.00  0.00    -0.051 C 
ATOM      5  C   UNL     1       4.599   2.086   2.035  0.00  0.00    -0.044 C 
ATOM      6  C   UNL     1       4.744   1.265   1.012  0.00  0.00    -0.051 C 
ATOM      7  C   UNL     1       5.079   1.803  -0.331  0.00  0.00    +0.163 C 
ATOM      8  C   UNL     1       4.921   1.008  -1.420  0.00  0.00    +0.065 C 
ATOM      9  C   UNL     1       4.446  -0.411  -1.349  0.00  0.00    +0.188 C 
ATOM     10  N   UNL     1       5.212   1.531  -2.649  0.00  0.00    -0.304 NA
ATOM     11  H   UNL     1       5.108   0.986  -3.445  0.00  0.00    +0.186 HD
ATOM     12  N   UNL     1       3.298   0.396   3.141  0.00  0.00    +0.384 N 
ATOM     13  H   UNL     1       2.525   0.700   2.538  0.00  0.00    -0.081 HD
ENDROOT
BRANCH   1  17
ATOM     14  C   UNL     1      -0.022   1.380   0.014  0.00  0.00    +0.162 A 
ATOM     15  C   UNL     1       0.112   0.173   0.683  0.00  0.00    +0.050 A 
ATOM     16  C   UNL     1       1.321  -0.497   0.664  0.00  0.00    +0.008 A 
ATOM     17  C   UNL     1       2.399   0.034  -0.020  0.00  0.00    -0.037 A 
ATOM     18  C   UNL     1       2.272   1.237  -0.690  0.00  0.00    +0.053 A 
ATOM     19  C   UNL     1       1.063   1.914  -0.675  0.00  0.00    +0.162 A 
BRANCH  14  20
ATOM     20  O   UNL     1      -1.209   2.043   0.036  0.00  0.00    -0.488 OA
BRANCH  20  21
ATOM     21  C   UNL     1      -2.278   1.435   0.763  0.00  0.00    +0.229 C 
BRANCH  21  23
ATOM     22  C   UNL     1      -4.668   1.669   1.453  0.00  0.00    +0.007 C 
ATOM     23  C   UNL     1      -3.523   2.320   0.675  0.00  0.00    +0.038 C 
ENDBRANCH  21  23
ENDBRANCH  20  21
ENDBRANCH  14  20
BRANCH  19  24
ATOM     24  O   UNL     1       0.936   3.098  -1.332  0.00  0.00    -0.489 OA
BRANCH  24  25
ATOM     25  C   UNL     1       2.091   3.585  -2.018  0.00  0.00    +0.226 C 
ATOM     26  C   UNL     1       1.759   4.918  -2.693  0.00  0.00    +0.048 C 
ENDBRANCH  24  25
ENDBRANCH  19  24
ENDBRANCH   1  17
BRANCH  12  27
ATOM     27  C   UNL     1       2.745  -0.097   4.421  0.00  0.00    -0.074 C 
ATOM     28  C   UNL     1       2.017   1.050   5.126  0.00  0.00    -0.014 C 
ATOM     29  C   UNL     1       1.756  -1.229   4.135  0.00  0.00    -0.014 C 
ENDBRANCH  12  27
BRANCH   9  30
ATOM     30  C   UNL     1       5.606  -1.311  -1.459  0.00  0.00    +0.091 C 
ATOM     31  N   UNL     1       6.501  -2.006  -1.545  0.00  0.00    -0.195 NA
ENDBRANCH   9  30
BRANCH   9  32
ATOM     32  C   UNL     1       3.533  -0.669  -2.474  0.00  0.00    +0.091 C 
ATOM     33  N   UNL     1       2.828  -0.868  -3.342  0.00  0.00    -0.195 NA
ENDBRANCH   9  32
BRANCH   7  34
ATOM     34  C   UNL     1       5.561   3.143  -0.475  0.00  0.00    +0.076 C 
ATOM     35  N   UNL     1       5.944   4.207  -0.589  0.00  0.00    -0.196 NA
ENDBRANCH   7  34
TORSDOF 10
