REMARK  Name = ZINC25539019
REMARK  8 active torsions:
REMARK  status: ('A' for Active; 'I' for Inactive)
REMARK    1  A    between atoms: C_6  and  C_7
REMARK    2  A    between atoms: C_10  and  S_13
REMARK    3  A    between atoms: N_11  and  N_12
REMARK    4  A    between atoms: S_13  and  C_14
REMARK    5  A    between atoms: C_14  and  C_15
REMARK    6  A    between atoms: N_20  and  C_23
REMARK    7  A    between atoms: C_23  and  C_24
REMARK    8  A    between atoms: N_26  and  C_27
REMARK                            x       y       z     vdW  Elec       q    Type
REMARK                         _______ _______ _______ _____ _____    ______ ____
ROOT
ATOM      1  C   UNL     1       4.398  -2.947  -1.424  0.00  0.00    +0.226 C 
ATOM      2  O   UNL     1       4.327  -4.078  -0.992  0.00  0.00    -0.275 OA
ATOM      3  N   UNL     1       3.729  -1.949  -0.814  0.00  0.00    -0.304 N 
ATOM      4  C   UNL     1       2.907  -2.210   0.378  0.00  0.00    +0.089 C 
ATOM      5  C   UNL     1       1.515  -1.610   0.149  0.00  0.00    -0.059 C 
ATOM      6  N   UNL     1       1.649  -0.194  -0.215  0.00  0.00    +0.387 N 
ATOM      7  C   UNL     1       2.375  -0.036  -1.483  0.00  0.00    -0.059 C 
ATOM      8  C   UNL     1       3.802  -0.571  -1.321  0.00  0.00    +0.089 C 
ATOM      9  H   UNL     1       2.239   0.299   0.571  0.00  0.00    -0.081 HD
ENDROOT
BRANCH   1  10
ATOM     10  C   UNL     1       5.235  -2.658  -2.643  0.00  0.00    +0.173 C 
BRANCH  10  11
ATOM     11  S   UNL     1       6.001  -4.191  -3.227  0.00  0.00    -0.075 S 
BRANCH  11  15
ATOM     12  C   UNL     1       8.163  -3.411  -6.387  0.00  0.00    +0.182 A 
ATOM     13  N   UNL     1       7.674  -2.233  -6.074  0.00  0.00    -0.127 NA
ATOM     14  N   UNL     1       6.923  -2.332  -5.036  0.00  0.00    -0.121 NA
ATOM     15  C   UNL     1       6.893  -3.577  -4.617  0.00  0.00    +0.209 A 
ATOM     16  N   UNL     1       7.678  -4.308  -5.463  0.00  0.00    -0.224 N 
BRANCH  12  22
ATOM     17  C   UNL     1       9.750  -2.686  -8.165  0.00  0.00    +0.014 A 
ATOM     18  C   UNL     1      10.592  -2.977  -9.217  0.00  0.00    +0.039 A 
ATOM     19  C   UNL     1      10.752  -4.287  -9.639  0.00  0.00    +0.123 A 
ATOM     20  C   UNL     1      10.070  -5.313  -9.004  0.00  0.00    +0.039 A 
ATOM     21  C   UNL     1       9.228  -5.034  -7.947  0.00  0.00    +0.014 A 
ATOM     22  C   UNL     1       9.064  -3.716  -7.518  0.00  0.00    +0.021 A 
ATOM     23  F   UNL     1      11.575  -4.566 -10.674  0.00  0.00    -0.205 F 
ENDBRANCH  12  22
BRANCH  16  24
ATOM     24  N   UNL     1       7.929  -5.649  -5.404  0.00  0.00    -0.295 N 
ATOM     25  H   UNL     1       7.476  -6.259  -4.609  0.00  0.00    +0.163 HD
ATOM     26  H   UNL     1       8.585  -6.119  -6.152  0.00  0.00    +0.163 HD
ENDBRANCH  16  24
ENDBRANCH  11  15
ENDBRANCH  10  11
ENDBRANCH   1  10
BRANCH   6  27
ATOM     27  C   UNL     1       0.336   0.461  -0.276  0.00  0.00    +0.019 C 
BRANCH  27  28
ATOM     28  C   UNL     1       0.523   1.951  -0.407  0.00  0.00    +0.201 C 
ATOM     29  O   UNL     1       1.641   2.421  -0.447  0.00  0.00    -0.278 OA
ATOM     30  N   UNL     1      -0.552   2.761  -0.486  0.00  0.00    -0.287 N 
ATOM     31  H   UNL     1      -1.562   2.330  -0.540  0.00  0.00    +0.155 HD
BRANCH  30  32
ATOM     32  C   UNL     1      -0.381   4.151  -0.499  0.00  0.00    +0.033 A 
ATOM     33  C   UNL     1       0.646   4.732   0.231  0.00  0.00    +0.026 A 
ATOM     34  C   UNL     1       0.816   6.103   0.212  0.00  0.00    +0.040 A 
ATOM     35  C   UNL     1      -0.045   6.898  -0.526  0.00  0.00    +0.124 A 
ATOM     36  C   UNL     1      -1.074   6.320  -1.250  0.00  0.00    +0.040 A 
ATOM     37  C   UNL     1      -1.244   4.949  -1.238  0.00  0.00    +0.026 A 
ATOM     38  F   UNL     1       0.119   8.239  -0.539  0.00  0.00    -0.205 F 
ENDBRANCH  30  32
ENDBRANCH  27  28
ENDBRANCH   6  27
TORSDOF 8
