REMARK  Name = ZINC55168927
REMARK  4 active torsions:
REMARK  status: ('A' for Active; 'I' for Inactive)
REMARK    1  A    between atoms: C_6  and  N_7
REMARK    2  A    between atoms: N_7  and  C_8
REMARK    3  A    between atoms: C_8  and  C_9
REMARK    4  A    between atoms: C_12  and  C_14
REMARK                            x       y       z     vdW  Elec       q    Type
REMARK                         _______ _______ _______ _____ _____    ______ ____
ROOT
ATOM      1  N   UNL     1      -1.214  -0.721   0.005  0.00  0.00    -0.254 N 
ATOM      2  C   UNL     1      -2.375  -0.049   0.139  0.00  0.00    +0.290 C 
ATOM      3  O   UNL     1      -2.375   1.167   0.148  0.00  0.00    -0.266 OA
ENDROOT
BRANCH   2   4
ATOM      4  C   UNL     1      -3.647  -0.789   0.273  0.00  0.00    +0.238 A 
ATOM      5  N   UNL     1      -4.852  -0.239   0.494  0.00  0.00    -0.190 NA
ATOM      6  C   UNL     1      -5.763  -1.182   0.559  0.00  0.00    +0.209 A 
ATOM      7  N   UNL     1      -5.148  -2.373   0.377  0.00  0.00    -0.246 N 
ATOM      8  H   UNL     1      -5.568  -3.248   0.373  0.00  0.00    +0.192 HD
ATOM      9  N   UNL     1      -3.785  -2.095   0.188  0.00  0.00    -0.146 NA
ATOM     10  N   UNL     1      -7.115  -0.991   0.776  0.00  0.00    -0.328 N 
ATOM     11  H   UNL     1      -7.465  -0.094   0.896  0.00  0.00    +0.145 HD
ATOM     12  H   UNL     1      -7.714  -1.753   0.808  0.00  0.00    +0.145 HD
ENDBRANCH   2   4
BRANCH   1  18
ATOM     13  C   UNL     1       0.006   1.362  -0.027  0.00  0.00    +0.025 A 
ATOM     14  C   UNL     1       1.206   2.046  -0.035  0.00  0.00    +0.022 A 
ATOM     15  C   UNL     1       2.401   1.349  -0.021  0.00  0.00    +0.041 A 
ATOM     16  C   UNL     1       2.398  -0.035   0.002  0.00  0.00    +0.022 A 
ATOM     17  C   UNL     1       1.201  -0.724   0.010  0.00  0.00    +0.025 A 
ATOM     18  C   UNL     1      -0.000  -0.026  -0.004  0.00  0.00    +0.037 A 
ATOM     19 CL   UNL     1       3.908   2.211  -0.031  0.00  0.00    -0.084 Cl
ENDBRANCH   1  18
BRANCH   1  20
ATOM     20  C   UNL     1      -1.224  -2.180  -0.130  0.00  0.00    +0.239 C 
BRANCH  20  21
ATOM     21  C   UNL     1      -1.279  -2.811   1.237  0.00  0.00    +0.373 C 
ATOM     22  O   UNL     1      -1.307  -2.107   2.233  0.00  0.00    -0.245 OA
ATOM     23  O   UNL     1      -1.296  -4.025   1.348  0.00  0.00    -0.245 OA
ENDBRANCH  20  21
ENDBRANCH   1  20
TORSDOF 4
