REMARK  Name = ZINC02413248
REMARK  1 active torsions:
REMARK  status: ('A' for Active; 'I' for Inactive)
REMARK    1  A    between atoms: C_5  and  C_7
REMARK                            x       y       z     vdW  Elec       q    Type
REMARK                         _______ _______ _______ _____ _____    ______ ____
ROOT
ATOM      1  C   UNL     1       2.095   5.429   0.006  0.00  0.00    +0.154 C 
ATOM      2  C   UNL     1       3.517   5.925   0.002  0.00  0.00    +0.073 A 
ATOM      3  C   UNL     1       4.100   7.269   0.004  0.00  0.00    +0.199 A 
ATOM      4  O   UNL     1       3.403   8.268   0.017  0.00  0.00    -0.287 OA
ATOM      5  C   UNL     1       5.574   7.352  -0.010  0.00  0.00    +0.065 A 
ATOM      6  C   UNL     1       6.232   8.581  -0.009  0.00  0.00    +0.030 A 
ATOM      7  C   UNL     1       7.610   8.613  -0.021  0.00  0.00    +0.019 A 
ATOM      8  C   UNL     1       8.336   7.428  -0.035  0.00  0.00    +0.019 A 
ATOM      9  C   UNL     1       7.696   6.209  -0.036  0.00  0.00    +0.048 A 
ATOM     10  C   UNL     1       6.305   6.152  -0.024  0.00  0.00    +0.140 A 
ATOM     11  O   UNL     1       5.669   4.966  -0.024  0.00  0.00    -0.450 OA
ATOM     12  C   UNL     1       4.327   4.837  -0.012  0.00  0.00    +0.199 A 
ATOM     13  C   UNL     1       3.478   3.622  -0.011  0.00  0.00    +0.289 C 
ATOM     14  O   UNL     1       3.896   2.481  -0.022  0.00  0.00    -0.266 OA
ATOM     15  N   UNL     1       2.178   3.963   0.003  0.00  0.00    -0.232 N 
ATOM     16  C   UNL     1       1.103   3.085   0.008  0.00  0.00    +0.168 A 
ATOM     17  N   UNL     1       1.111   1.766   0.001  0.00  0.00    -0.233 NA
ATOM     18  C   UNL     1      -0.013   1.076   0.008  0.00  0.00    +0.120 A 
ATOM     19  C   UNL     1      -1.187   1.754   0.017  0.00  0.00    +0.068 A 
ATOM     20  S   UNL     1      -0.597   3.440   0.026  0.00  0.00    -0.060 S 
ATOM     21 BR   UNL     1       8.515  10.273  -0.020  0.00  0.00    -0.050 Br
ENDROOT
BRANCH   1  26
ATOM     22  C   UNL     1       0.705   5.547   3.514  0.00  0.00    +0.001 A 
ATOM     23  C   UNL     1       0.084   6.783   3.525  0.00  0.00    +0.003 A 
ATOM     24  C   UNL     1       0.113   7.581   2.398  0.00  0.00    +0.039 A 
ATOM     25  C   UNL     1       0.769   7.146   1.258  0.00  0.00    +0.129 A 
ATOM     26  C   UNL     1       1.385   5.906   1.247  0.00  0.00    +0.013 A 
ATOM     27  C   UNL     1       1.355   5.109   2.376  0.00  0.00    +0.008 A 
ATOM     28  F   UNL     1       0.803   7.928   0.157  0.00  0.00    -0.205 F 
ENDBRANCH   1  26
TORSDOF 1
