REMARK  Name = ZINC26569207
REMARK  7 active torsions:
REMARK  status: ('A' for Active; 'I' for Inactive)
REMARK    1  A    between atoms: C_1  and  N_2
REMARK    2  A    between atoms: C_8  and  C_12
REMARK    3  A    between atoms: C_14  and  O_21
REMARK    4  A    between atoms: C_15  and  O_20
REMARK    5  A    between atoms: C_16  and  O_18
REMARK    6  A    between atoms: O_18  and  C_19
REMARK    7  A    between atoms: O_21  and  C_22
REMARK                            x       y       z     vdW  Elec       q    Type
REMARK                         _______ _______ _______ _____ _____    ______ ____
ROOT
ATOM      1  C   UNL     1      -4.264  -2.107  -0.126  0.00  0.00    +0.143 C 
ATOM      2  N   UNL     1      -3.977  -0.670  -0.082  0.00  0.00    -0.223 N 
ATOM      3  C   UNL     1      -2.694  -0.255  -0.063  0.00  0.00    +0.260 C 
ATOM      4  O   UNL     1      -1.778  -1.055  -0.082  0.00  0.00    -0.269 OA
ATOM      5  C   UNL     1      -2.432   1.194  -0.012  0.00  0.00    +0.119 C 
ATOM      6  C   UNL     1      -1.143   1.694   0.016  0.00  0.00    +0.038 C 
ATOM      7  C   UNL     1      -0.754   3.161   0.066  0.00  0.00    +0.077 C 
ATOM      8  C   UNL     1       0.741   3.092   0.460  0.00  0.00    +0.108 C 
ATOM      9  N   UNL     1       1.115   1.734   0.001  0.00  0.00    -0.235 NA
ATOM     10  N   UNL     1      -0.011   0.966   0.007  0.00  0.00    -0.283 N 
ATOM     11  C   UNL     1      -3.604   2.088   0.001  0.00  0.00    +0.278 C 
ATOM     12  O   UNL     1      -3.467   3.297   0.036  0.00  0.00    -0.268 OA
ATOM     13  N   UNL     1      -4.832   1.530  -0.029  0.00  0.00    -0.123 NA
ATOM     14  C   UNL     1      -4.996   0.201  -0.069  0.00  0.00    +0.335 C 
ATOM     15  O   UNL     1      -6.129  -0.239  -0.093  0.00  0.00    -0.250 OA
ATOM     16  H   UNL     1       1.828   1.336   0.593  0.00  0.00    +0.145 HD
ATOM     17  H   UNL     1       0.071  -0.131   0.005  0.00  0.00    +0.166 HD
ENDROOT
BRANCH   8  18
ATOM     18  C   UNL     1       1.538   4.145  -0.266  0.00  0.00    -0.021 A 
ATOM     19  C   UNL     1       1.825   3.989  -1.609  0.00  0.00    +0.055 A 
ATOM     20  C   UNL     1       2.554   4.957  -2.282  0.00  0.00    +0.165 A 
ATOM     21  C   UNL     1       3.006   6.082  -1.601  0.00  0.00    +0.201 A 
ATOM     22  C   UNL     1       2.720   6.232  -0.250  0.00  0.00    +0.165 A 
ATOM     23  C   UNL     1       1.986   5.262   0.414  0.00  0.00    +0.055 A 
BRANCH  22  24
ATOM     24  O   UNL     1       3.160   7.331   0.421  0.00  0.00    -0.491 OA
ATOM     25  C   UNL     1       2.829   7.420   1.808  0.00  0.00    +0.277 C 
ENDBRANCH  22  24
BRANCH  21  26
ATOM     26  O   UNL     1       3.727   7.032  -2.257  0.00  0.00    -0.501 OA
ATOM     27  H   UNL     1       4.084   7.921  -1.717  0.00  0.00    +0.292 HD
ENDBRANCH  21  26
BRANCH  20  28
ATOM     28  O   UNL     1       2.830   4.805  -3.605  0.00  0.00    -0.491 OA
ATOM     29  C   UNL     1       2.334   3.625  -4.240  0.00  0.00    +0.277 C 
ENDBRANCH  20  28
ENDBRANCH   8  18
TORSDOF 4
