REMARK  Name = ZINC59928045
REMARK  5 active torsions:
REMARK  status: ('A' for Active; 'I' for Inactive)
REMARK    1  A    between atoms: C_2  and  C_3
REMARK    2  A    between atoms: C_3  and  S_4
REMARK    3  A    between atoms: S_4  and  C_5
REMARK    4  A    between atoms: N_9  and  C_20
REMARK    5  A    between atoms: C_10  and  O_11
REMARK                            x       y       z     vdW  Elec       q    Type
REMARK                         _______ _______ _______ _____ _____    ______ ____
ROOT
ATOM      1  C   UNL     1       3.195  -2.248   1.449  0.00  0.00    +0.172 A 
ATOM      2  N   UNL     1       3.772  -2.204   0.273  0.00  0.00    -0.202 NA
ATOM      3  C   UNL     1       4.959  -2.809   0.085  0.00  0.00    +0.190 A 
ATOM      4  N   UNL     1       5.788  -2.967  -0.922  0.00  0.00    -0.143 NA
ATOM      5  N   UNL     1       6.895  -3.711  -0.497  0.00  0.00    -0.198 N 
ATOM      6  C   UNL     1       6.762  -4.030   0.803  0.00  0.00    +0.227 A 
ATOM      7  C   UNL     1       5.558  -3.493   1.244  0.00  0.00    +0.101 A 
ATOM      8  C   UNL     1       4.861  -3.475   2.470  0.00  0.00    +0.037 A 
ATOM      9  N   UNL     1       3.705  -2.868   2.531  0.00  0.00    -0.323 N 
ATOM     10  C   UNL     1       2.865  -2.828   3.736  0.00  0.00    +0.124 C 
ATOM     11  C   UNL     1       3.693  -2.869   5.017  0.00  0.00    +0.022 C 
ATOM     12  C   UNL     1       3.842  -4.332   5.454  0.00  0.00    +0.002 C 
ATOM     13  C   UNL     1       4.543  -5.104   4.337  0.00  0.00    +0.006 C 
ATOM     14  C   UNL     1       5.506  -4.144   3.652  0.00  0.00    +0.054 C 
ENDROOT
BRANCH   5  15
ATOM     15  C   UNL     1       7.980  -4.070  -1.306  0.00  0.00    +0.069 A 
ATOM     16  C   UNL     1       9.259  -4.134  -0.767  0.00  0.00    +0.028 A 
ATOM     17  C   UNL     1      10.327  -4.489  -1.568  0.00  0.00    +0.002 A 
ATOM     18  C   UNL     1      10.124  -4.780  -2.904  0.00  0.00    +0.000 A 
ATOM     19  C   UNL     1       8.853  -4.718  -3.444  0.00  0.00    +0.002 A 
ATOM     20  C   UNL     1       7.779  -4.369  -2.647  0.00  0.00    +0.028 A 
ENDBRANCH   5  15
BRANCH   6  21
ATOM     21  O   UNL     1       7.641  -4.743   1.546  0.00  0.00    -0.492 OA
ATOM     22  H   UNL     1       8.312  -4.204   1.987  0.00  0.00    +0.294 HD
ENDBRANCH   6  21
BRANCH   1  23
ATOM     23  S   UNL     1       1.645  -1.430   1.631  0.00  0.00    -0.082 S 
BRANCH  23  24
ATOM     24  C   UNL     1       1.317  -0.740  -0.015  0.00  0.00    +0.119 C 
BRANCH  24  26
ATOM     25  C   UNL     1      -0.016   1.307   0.009  0.00  0.00    +0.021 C 
ATOM     26  C   UNL     1       0.002  -0.004   0.002  0.00  0.00    -0.001 C 
ATOM     27 BR   UNL     1      -1.623  -0.972   0.012  0.00  0.00    -0.055 Br
ENDBRANCH  24  26
ENDBRANCH  23  24
ENDBRANCH   1  23
TORSDOF 5
