REMARK  Name = ZINC33494469
REMARK  4 active torsions:
REMARK  status: ('A' for Active; 'I' for Inactive)
REMARK    1  A    between atoms: C_1  and  C_2
REMARK    2  A    between atoms: C_2  and  C_3
REMARK    3  A    between atoms: C_2  and  C_4
REMARK    4  A    between atoms: C_4  and  N_5
REMARK                            x       y       z     vdW  Elec       q    Type
REMARK                         _______ _______ _______ _____ _____    ______ ____
ROOT
ATOM      1  N   UNL     1      -0.092   0.997   2.451  0.00  0.00    -0.277 N 
ATOM      2  C   UNL     1      -0.544  -0.215   2.956  0.00  0.00    +0.062 A 
ATOM      3  C   UNL     1      -1.429  -1.023   2.260  0.00  0.00    +0.028 A 
ATOM      4  C   UNL     1      -1.843  -2.218   2.816  0.00  0.00    +0.017 A 
ATOM      5  C   UNL     1      -1.380  -2.621   4.060  0.00  0.00    +0.019 A 
ATOM      6  C   UNL     1      -0.492  -1.832   4.764  0.00  0.00    +0.032 A 
ATOM      7  C   UNL     1      -0.067  -0.629   4.214  0.00  0.00    +0.084 A 
ATOM      8  C   UNL     1       0.884   0.268   4.899  0.00  0.00    +0.350 A 
ATOM      9  O   UNL     1       1.031   0.250   6.105  0.00  0.00    -0.244 OA
ATOM     10  O   UNL     1       1.587   1.116   4.101  0.00  0.00    -0.373 OA
ATOM     11  C   UNL     1       0.928   1.641   3.051  0.00  0.00    +0.423 A 
ATOM     12  O   UNL     1       1.264   2.731   2.631  0.00  0.00    -0.223 OA
ATOM     13 BR   UNL     1      -1.968  -4.261   4.796  0.00  0.00    -0.050 Br
ENDROOT
BRANCH   1  14
ATOM     14  C   UNL     1      -0.729   1.579   1.267  0.00  0.00    +0.131 C 
BRANCH  14  16
ATOM     15  C   UNL     1       1.423   1.615  -0.003  0.00  0.00    +0.009 C 
ATOM     16  C   UNL     1      -0.013   1.086   0.008  0.00  0.00    +0.003 C 
ATOM     17  C   UNL     1      -0.753   1.593  -1.232  0.00  0.00    +0.009 C 
ENDBRANCH  14  16
ENDBRANCH   1  14
TORSDOF 2
