REMARK  Name = ZINC61820302
REMARK  3 active torsions:
REMARK  status: ('A' for Active; 'I' for Inactive)
REMARK    1  A    between atoms: C_1  and  C_2
REMARK    2  A    between atoms: C_2  and  C_20
REMARK    3  A    between atoms: C_9  and  C_17
REMARK                            x       y       z     vdW  Elec       q    Type
REMARK                         _______ _______ _______ _____ _____    ______ ____
ROOT
ATOM      1  C   UNL     1      -0.374   0.783   0.323  0.00  0.00    +0.011 C 
ATOM      2  C   UNL     1       0.168   0.218  -0.991  0.00  0.00    -0.032 C 
ATOM      3  C   UNL     1       1.426   0.989  -1.398  0.00  0.00    +0.025 C 
ATOM      4  C   UNL     1       2.474   0.871  -0.286  0.00  0.00    +0.107 C 
ATOM      5  N   UNL     1       2.704  -0.552  -0.002  0.00  0.00    -0.315 N 
ATOM      6  C   UNL     1       1.550  -1.405   0.312  0.00  0.00    +0.107 C 
ATOM      7  C   UNL     1       0.512  -1.262  -0.806  0.00  0.00    +0.025 C 
ATOM      8  C   UNL     1       3.983  -1.078  -0.029  0.00  0.00    +0.132 A 
ATOM      9  C   UNL     1       4.714  -1.200   1.165  0.00  0.00    +0.052 A 
ATOM     10  C   UNL     1       6.004  -1.735   1.108  0.00  0.00    +0.020 A 
ATOM     11  C   UNL     1       6.506  -2.124  -0.123  0.00  0.00    -0.025 A 
ATOM     12  C   UNL     1       5.729  -1.975  -1.258  0.00  0.00    +0.047 A 
ATOM     13  N   UNL     1       4.508  -1.470  -1.177  0.00  0.00    -0.236 NA
ATOM     14  C   UNL     1       6.497  -2.470  -2.467  0.00  0.00    +0.056 C 
ATOM     15  C   UNL     1       7.972  -2.524  -2.016  0.00  0.00    +0.011 C 
ATOM     16  C   UNL     1       7.845  -2.725  -0.491  0.00  0.00    +0.037 C 
ATOM     17  C   UNL     1      -0.893   0.361  -2.084  0.00  0.00    +0.011 C 
ENDROOT
BRANCH   9  18
ATOM     18  C   UNL     1       4.132  -0.770   2.451  0.00  0.00    +0.098 C 
ATOM     19  N   UNL     1       4.042  -1.633   3.463  0.00  0.00    -0.387 N 
ATOM     20  N   UNL     1       3.697   0.481   2.601  0.00  0.00    -0.344 N 
ATOM     21  H   UNL     1       4.421  -2.522   3.378  0.00  0.00    +0.157 HD
ATOM     22  H   UNL     1       3.762   1.109   1.865  0.00  0.00    +0.144 HD
ATOM     23  H   UNL     1       3.315   0.763   3.447  0.00  0.00    +0.144 HD
ATOM     24  H   UNL     1       3.598  -1.372   4.285  0.00  0.00    +0.157 HD
ENDBRANCH   9  18
TORSDOF 1
