REMARK  Name = ZINC08644552
REMARK  7 active torsions:
REMARK  status: ('A' for Active; 'I' for Inactive)
REMARK    1  A    between atoms: C_3  and  C_9
REMARK    2  A    between atoms: C_12  and  S_15
REMARK    3  A    between atoms: N_13  and  N_14
REMARK    4  A    between atoms: S_15  and  C_16
REMARK    5  A    between atoms: C_16  and  C_17
REMARK    6  A    between atoms: N_19  and  C_20
REMARK    7  A    between atoms: C_21  and  C_25
REMARK                            x       y       z     vdW  Elec       q    Type
REMARK                         _______ _______ _______ _____ _____    ______ ____
ROOT
ATOM      1  C   UNL     1       1.068   2.208   0.004  0.00  0.00    +0.183 A 
ATOM      2  N   UNL     1       0.600   3.434   0.014  0.00  0.00    -0.127 NA
ATOM      3  N   UNL     1      -0.684   3.414   0.026  0.00  0.00    -0.121 NA
ATOM      4  C   UNL     1      -1.116   2.172   0.018  0.00  0.00    +0.209 A 
ATOM      5  N   UNL     1      -0.016   1.362   0.009  0.00  0.00    -0.224 N 
ENDROOT
BRANCH   1   8
ATOM      6  C   UNL     1       4.173   0.096  -0.032  0.00  0.00    +0.021 A 
ATOM      7  C   UNL     1       2.843   0.460  -0.014  0.00  0.00    +0.014 A 
ATOM      8  C   UNL     1       2.492   1.811  -0.011  0.00  0.00    +0.039 A 
ATOM      9  C   UNL     1       3.492   2.787  -0.015  0.00  0.00    +0.053 A 
ATOM     10  C   UNL     1       4.820   2.409  -0.028  0.00  0.00    +0.040 A 
ATOM     11  C   UNL     1       5.161   1.067  -0.037  0.00  0.00    +0.042 A 
ATOM     12 CL   UNL     1       6.832   0.599  -0.053  0.00  0.00    -0.083 Cl
ATOM     13 CL   UNL     1       3.066   4.469  -0.004  0.00  0.00    -0.083 Cl
ENDBRANCH   1   8
BRANCH   5  14
ATOM     14  N   UNL     1       0.002  -0.004   0.002  0.00  0.00    -0.295 N 
ATOM     15  H   UNL     1       0.016  -0.371   0.942  0.00  0.00    +0.163 HD
ATOM     16  H   UNL     1      -0.779  -0.373  -0.519  0.00  0.00    +0.163 HD
ENDBRANCH   5  14
BRANCH   4  17
ATOM     17  S   UNL     1      -2.799   1.651   0.023  0.00  0.00    -0.075 S 
BRANCH  17  18
ATOM     18  C   UNL     1      -3.627   3.260   0.035  0.00  0.00    +0.173 C 
BRANCH  18  19
ATOM     19  C   UNL     1      -5.120   3.057   0.040  0.00  0.00    +0.228 C 
ATOM     20  O   UNL     1      -5.579   1.935   0.037  0.00  0.00    -0.275 OA
ATOM     21  N   UNL     1      -5.945   4.123   0.049  0.00  0.00    -0.279 N 
ATOM     22  H   UNL     1      -5.578   5.020   0.052  0.00  0.00    +0.155 HD
BRANCH  21  23
ATOM     23  C   UNL     1      -7.319   3.936   0.054  0.00  0.00    +0.084 A 
ATOM     24  C   UNL     1      -8.321   4.899   0.069  0.00  0.00    +0.065 A 
ATOM     25  C   UNL     1      -9.683   4.418   0.067  0.00  0.00    +0.022 A 
ATOM     26  C   UNL     1      -9.864   3.086   0.062  0.00  0.00    +0.048 A 
ATOM     27  S   UNL     1      -8.202   2.446   0.051  0.00  0.00    -0.081 S 
BRANCH  24  28
ATOM     28  C   UNL     1      -8.011   6.331   0.082  0.00  0.00    +0.244 C 
ATOM     29  O   UNL     1      -6.852   6.703   0.080  0.00  0.00    -0.270 OA
ATOM     30  N   UNL     1      -9.009   7.237   0.096  0.00  0.00    -0.325 N 
ATOM     31  H   UNL     1      -9.933   6.941   0.098  0.00  0.00    +0.145 HD
ATOM     32  H   UNL     1      -8.804   8.185   0.105  0.00  0.00    +0.145 HD
ENDBRANCH  24  28
ENDBRANCH  21  23
ENDBRANCH  18  19
ENDBRANCH  17  18
ENDBRANCH   4  17
TORSDOF 7
