REMARK  Name = ZINC31044013
REMARK  10 active torsions:
REMARK  status: ('A' for Active; 'I' for Inactive)
REMARK    1  A    between atoms: C_1  and  C_2
REMARK    2  A    between atoms: C_2  and  C_3
REMARK    3  A    between atoms: C_3  and  C_5
REMARK    4  A    between atoms: C_3  and  N_13
REMARK    5  A    between atoms: C_8  and  C_12
REMARK    6  A    between atoms: C_10  and  C_11
REMARK    7  A    between atoms: C_14  and  C_16
REMARK    8  A    between atoms: N_21  and  C_23
REMARK    9  A    between atoms: C_23  and  C_24
REMARK   10  A    between atoms: C_26  and  C_29
REMARK                            x       y       z     vdW  Elec       q    Type
REMARK                         _______ _______ _______ _____ _____    ______ ____
ROOT
ATOM      1  C   UNL     1      -5.686   5.366   4.761  0.00  0.00    +0.058 C 
ATOM      2  C   UNL     1      -5.502   6.015   3.387  0.00  0.00    +0.009 C 
ATOM      3  C   UNL     1      -6.770   6.793   3.024  0.00  0.00    -0.018 C 
ATOM      4  C   UNL     1      -7.050   7.837   4.108  0.00  0.00    -0.078 C 
ATOM      5  N   UNL     1      -7.220   7.166   5.403  0.00  0.00    +0.386 N 
ATOM      6  C   UNL     1      -5.998   6.452   5.795  0.00  0.00    -0.065 C 
ATOM      7  H   UNL     1      -8.022   6.422   5.293  0.00  0.00    -0.081 HD
ENDROOT
BRANCH   1   9
ATOM      8  N   UNL     1      -3.948   3.648   4.382  0.00  0.00    -0.308 N 
ATOM      9  C   UNL     1      -4.421   4.648   5.153  0.00  0.00    +0.215 C 
ATOM     10  O   UNL     1      -3.828   4.969   6.161  0.00  0.00    -0.276 OA
ATOM     11  H   UNL     1      -4.486   3.357   3.468  0.00  0.00    +0.149 HD
BRANCH   8  12
ATOM     12  C   UNL     1      -2.717   2.950   4.762  0.00  0.00    +0.103 C 
BRANCH  12  13
ATOM     13  C   UNL     1      -1.527   3.695   4.216  0.00  0.00    -0.024 A 
ATOM     14  C   UNL     1      -1.662   4.478   3.084  0.00  0.00    +0.006 A 
ATOM     15  C   UNL     1      -0.571   5.165   2.585  0.00  0.00    +0.004 A 
ATOM     16  C   UNL     1       0.656   5.062   3.212  0.00  0.00    -0.050 A 
ATOM     17  C   UNL     1       0.791   4.279   4.344  0.00  0.00    +0.007 A 
ATOM     18  C   UNL     1      -0.301   3.596   4.846  0.00  0.00    -0.045 A 
ATOM     19  C   UNL     1      -0.154   2.743   6.079  0.00  0.00    +0.044 C 
ATOM     20  C   UNL     1       1.847   5.807   2.666  0.00  0.00    +0.044 C 
ENDBRANCH  12  13
BRANCH  12  22
ATOM     21  C   UNL     1      -3.873   0.736   4.838  0.00  0.00    +0.006 C 
ATOM     22  C   UNL     1      -2.738   1.531   4.189  0.00  0.00    +0.024 C 
ENDBRANCH  12  22
ENDBRANCH   8  12
ENDBRANCH   1   9
BRANCH   5  23
ATOM     23  C   UNL     1      -7.626   8.122   6.441  0.00  0.00    +0.022 C 
BRANCH  23  24
ATOM     24  C   UNL     1      -9.003   8.649   6.128  0.00  0.00    +0.211 A 
ATOM     25  N   UNL     1     -10.141   8.132   6.518  0.00  0.00    -0.193 NA
ATOM     26  C   UNL     1     -11.100   8.936   6.005  0.00  0.00    +0.202 A 
ATOM     27  N   UNL     1     -10.494   9.880   5.333  0.00  0.00    -0.056 NA
ATOM     28  O   UNL     1      -9.292   9.729   5.394  0.00  0.00    -0.340 OA
BRANCH  26  29
ATOM     29  C   UNL     1     -12.566   8.774   6.170  0.00  0.00    +0.023 A 
ATOM     30  C   UNL     1     -13.073   7.711   6.914  0.00  0.00    +0.013 A 
ATOM     31  C   UNL     1     -14.437   7.568   7.068  0.00  0.00    +0.016 A 
ATOM     32  C   UNL     1     -15.301   8.473   6.476  0.00  0.00    +0.018 A 
ATOM     33  C   UNL     1     -14.803   9.528   5.732  0.00  0.00    +0.016 A 
ATOM     34  C   UNL     1     -13.441   9.682   5.576  0.00  0.00    +0.013 A 
ATOM     35 BR   UNL     1     -17.169   8.267   6.687  0.00  0.00    -0.050 Br
ENDBRANCH  26  29
ENDBRANCH  23  24
ENDBRANCH   5  23
TORSDOF 7
