REMARK  Name = ZINC66200673
REMARK  14 active torsions:
REMARK  status: ('A' for Active; 'I' for Inactive)
REMARK    1  A    between atoms: C_1  and  C_2
REMARK    2  A    between atoms: C_2  and  C_3
REMARK    3  A    between atoms: C_3  and  C_4
REMARK    4  A    between atoms: C_4  and  O_5
REMARK    5  A    between atoms: O_5  and  C_6
REMARK    6  A    between atoms: C_11  and  C_12
REMARK    7  A    between atoms: N_14  and  C_15
REMARK    8  A    between atoms: C_15  and  N_17
REMARK    9  A    between atoms: N_17  and  C_18
REMARK   10  A    between atoms: C_21  and  S_24
REMARK   11  A    between atoms: S_24  and  N_27
REMARK   12  A    between atoms: N_27  and  C_28
REMARK   13  A    between atoms: C_30  and  O_34
REMARK   14  A    between atoms: O_34  and  C_35
REMARK                            x       y       z     vdW  Elec       q    Type
REMARK                         _______ _______ _______ _____ _____    ______ ____
ROOT
ATOM      1  N   UNL     1      -8.941  -3.866   0.067  0.00  0.00    -0.297 N 
ATOM      2  H   UNL     1      -9.009  -4.811   0.273  0.00  0.00    +0.154 HD
ENDROOT
BRANCH   1   3
ATOM      3  C   UNL     1     -10.063  -3.041   0.188  0.00  0.00    +0.033 A 
ATOM      4  C   UNL     1     -10.372  -2.134  -0.818  0.00  0.00    +0.025 A 
ATOM      5  C   UNL     1     -11.481  -1.321  -0.696  0.00  0.00    +0.031 A 
ATOM      6  C   UNL     1     -12.285  -1.409   0.426  0.00  0.00    +0.111 A 
ATOM      7  C   UNL     1     -11.981  -2.311   1.429  0.00  0.00    +0.031 A 
ATOM      8  C   UNL     1     -10.876  -3.131   1.310  0.00  0.00    +0.025 A 
BRANCH   6   9
ATOM      9  S   UNL     1     -13.700  -0.369   0.578  0.00  0.00    +0.093 S 
ATOM     10  O   UNL     1     -13.977  -0.262   1.968  0.00  0.00    -0.148 OA
ATOM     11  O   UNL     1     -13.458   0.767  -0.240  0.00  0.00    -0.148 OA
BRANCH   9  12
ATOM     12  N   UNL     1     -14.976  -1.178  -0.099  0.00  0.00    -0.078 NA
BRANCH  12  13
ATOM     13  C   UNL     1     -16.233  -0.593  -0.122  0.00  0.00    +0.169 A 
ATOM     14  C   UNL     1     -17.315  -1.266  -0.683  0.00  0.00    +0.114 A 
ATOM     15  C   UNL     1     -18.554  -0.638  -0.682  0.00  0.00    +0.219 A 
ATOM     16  N   UNL     1     -18.662   0.576  -0.148  0.00  0.00    -0.201 NA
ATOM     17  C   UNL     1     -17.615   1.181   0.374  0.00  0.00    +0.227 A 
ATOM     18  N   UNL     1     -16.425   0.617   0.398  0.00  0.00    -0.217 NA
BRANCH  15  19
ATOM     19  O   UNL     1     -19.637  -1.252  -1.217  0.00  0.00    -0.480 OA
ATOM     20  C   UNL     1     -20.874  -0.539  -1.176  0.00  0.00    +0.279 C 
ENDBRANCH  15  19
ENDBRANCH  12  13
ENDBRANCH   9  12
ENDBRANCH   6   9
ENDBRANCH   1   3
BRANCH   1  21
ATOM     21  C   UNL     1      -7.764  -3.348  -0.337  0.00  0.00    +0.141 C 
ATOM     22  S   UNL     1      -7.668  -1.704  -0.806  0.00  0.00    -0.018 S 
BRANCH  21  25
ATOM     23  C   UNL     1      -5.485  -3.606  -0.775  0.00  0.00    +0.253 C 
ATOM     24  O   UNL     1      -5.417  -2.438  -1.108  0.00  0.00    -0.270 OA
ATOM     25  N   UNL     1      -6.662  -4.124  -0.371  0.00  0.00    -0.263 N 
ATOM     26  H   UNL     1      -6.716  -5.055  -0.106  0.00  0.00    +0.157 HD
BRANCH  23  32
ATOM     27  C   UNL     1      -3.054  -3.920  -1.232  0.00  0.00    +0.133 A 
ATOM     28  C   UNL     1      -1.926  -4.726  -1.258  0.00  0.00    +0.046 A 
ATOM     29  C   UNL     1      -2.013  -6.051  -0.878  0.00  0.00    +0.004 A 
ATOM     30  C   UNL     1      -3.224  -6.585  -0.469  0.00  0.00    +0.001 A 
ATOM     31  C   UNL     1      -4.355  -5.798  -0.437  0.00  0.00    +0.017 A 
ATOM     32  C   UNL     1      -4.280  -4.455  -0.813  0.00  0.00    +0.079 A 
BRANCH  27  33
ATOM     33  O   UNL     1      -2.970  -2.618  -1.605  0.00  0.00    -0.491 OA
BRANCH  33  34
ATOM     34  C   UNL     1      -1.688  -2.144  -2.020  0.00  0.00    +0.229 C 
BRANCH  34  35
ATOM     35  C   UNL     1      -1.790  -0.665  -2.400  0.00  0.00    +0.041 C 
BRANCH  35  37
ATOM     36  C   UNL     1      -0.518   1.321  -3.224  0.00  0.00    +0.004 C 
ATOM     37  C   UNL     1      -0.416  -0.157  -2.844  0.00  0.00    -0.000 C 
ENDBRANCH  35  37
ENDBRANCH  34  35
ENDBRANCH  33  34
ENDBRANCH  27  33
ENDBRANCH  23  32
ENDBRANCH  21  25
ENDBRANCH   1  21
TORSDOF 12
