REMARK  Name = ZINC13036269
REMARK  1 active torsions:
REMARK  status: ('A' for Active; 'I' for Inactive)
REMARK    1  A    between atoms: C_21  and  C_24
REMARK                            x       y       z     vdW  Elec       q    Type
REMARK                         _______ _______ _______ _____ _____    ______ ____
ROOT
ATOM      1  C   UNL     1      -0.103   1.282   0.041  0.00  0.00    +0.001 A 
ATOM      2  C   UNL     1       1.069   2.017   0.027  0.00  0.00    +0.004 A 
ATOM      3  C   UNL     1       2.290   1.377   0.009  0.00  0.00    +0.046 A 
ATOM      4  C   UNL     1       2.354  -0.013   0.001  0.00  0.00    +0.128 A 
ATOM      5  C   UNL     1       1.170  -0.744   0.004  0.00  0.00    +0.014 A 
ATOM      6  C   UNL     1      -0.048  -0.100   0.031  0.00  0.00    +0.009 A 
ATOM      7  C   UNL     1       1.252  -2.240  -0.043  0.00  0.00    +0.119 C 
ATOM      8  C   UNL     1       0.297  -2.952   0.939  0.00  0.00    +0.078 C 
ATOM      9  C   UNL     1       1.145  -4.176   1.300  0.00  0.00    +0.032 C 
ATOM     10  C   UNL     1       0.677  -5.378   1.835  0.00  0.00    +0.041 C 
ATOM     11  C   UNL     1      -0.699  -5.566   2.093  0.00  0.00    +0.033 C 
ATOM     12  C   UNL     1      -1.135  -6.744   2.615  0.00  0.00    +0.042 C 
ATOM     13  C   UNL     1      -0.253  -7.782   2.905  0.00  0.00    +0.024 C 
ATOM     14  C   UNL     1       1.084  -7.664   2.680  0.00  0.00    +0.053 C 
ATOM     15  C   UNL     1       1.603  -6.476   2.137  0.00  0.00    +0.188 C 
ATOM     16  O   UNL     1       2.802  -6.358   1.925  0.00  0.00    -0.287 OA
ATOM     17 CL   UNL     1      -2.830  -6.959   2.926  0.00  0.00    -0.084 Cl
ATOM     18  N   UNL     1       2.436  -3.875   1.003  0.00  0.00    -0.277 N 
ATOM     19  N   UNL     1       2.545  -2.598   0.606  0.00  0.00    -0.177 NA
ATOM     20  C   UNL     1       3.653  -2.041  -0.125  0.00  0.00    +0.329 C 
ATOM     21  O   UNL     1       3.576  -0.610   0.002  0.00  0.00    -0.465 OA
ATOM     22  H   UNL     1       3.178  -4.497   1.060  0.00  0.00    +0.166 HD
ENDROOT
BRANCH  20  23
ATOM     23  C   UNL     1       3.559  -2.433  -1.577  0.00  0.00    +0.162 A 
ATOM     24  C   UNL     1       3.864  -1.648  -2.626  0.00  0.00    +0.050 A 
ATOM     25  C   UNL     1       3.631  -2.413  -3.792  0.00  0.00    +0.041 A 
ATOM     26  C   UNL     1       3.198  -3.620  -3.386  0.00  0.00    +0.195 A 
ATOM     27  O   UNL     1       3.162  -3.628  -2.043  0.00  0.00    -0.463 OA
ENDBRANCH  20  23
TORSDOF 1
