REMARK  Name = ZINC13245540
REMARK  9 active torsions:
REMARK  status: ('A' for Active; 'I' for Inactive)
REMARK    1  A    between atoms: N_9  and  C_29
REMARK    2  A    between atoms: C_10  and  S_12
REMARK    3  A    between atoms: S_12  and  C_13
REMARK    4  A    between atoms: C_13  and  C_14
REMARK    5  A    between atoms: N_16  and  C_17
REMARK    6  A    between atoms: N_16  and  C_22
REMARK    7  A    between atoms: C_17  and  C_18
REMARK    8  A    between atoms: C_18  and  C_19
REMARK    9  A    between atoms: C_29  and  C_30
REMARK                            x       y       z     vdW  Elec       q    Type
REMARK                         _______ _______ _______ _____ _____    ______ ____
ROOT
ATOM      1  C   UNL     1       1.001   5.110   2.126  0.00  0.00    +0.173 C 
ENDROOT
BRANCH   1   2
ATOM      2  C   UNL     1       2.062   6.072   1.658  0.00  0.00    +0.230 C 
ATOM      3  O   UNL     1       2.717   5.819   0.669  0.00  0.00    -0.274 OA
ATOM      4  N   UNL     1       2.283   7.215   2.338  0.00  0.00    -0.269 N 
BRANCH   4   5
ATOM      5  C   UNL     1       1.528   7.508   3.479  0.00  0.00    +0.055 A 
ATOM      6  C   UNL     1       1.961   7.084   4.728  0.00  0.00    +0.025 A 
ATOM      7  C   UNL     1       1.216   7.380   5.853  0.00  0.00    +0.002 A 
ATOM      8  C   UNL     1       0.033   8.086   5.735  0.00  0.00    +0.002 A 
ATOM      9  C   UNL     1      -0.405   8.505   4.493  0.00  0.00    +0.022 A 
ATOM     10  C   UNL     1       0.339   8.217   3.364  0.00  0.00    +0.062 A 
ATOM     11 CL   UNL     1      -0.212   8.742   1.803  0.00  0.00    -0.082 Cl
ENDBRANCH   4   5
BRANCH   4  12
ATOM     12  C   UNL     1       3.315   8.150   1.883  0.00  0.00    +0.123 C 
BRANCH  12  13
ATOM     13  C   UNL     1       2.699   9.153   0.905  0.00  0.00    +0.115 C 
BRANCH  13  14
ATOM     14  C   UNL     1       3.760  10.115   0.437  0.00  0.00    +0.212 C 
ATOM     15  O   UNL     1       4.897  10.009   0.845  0.00  0.00    -0.276 OA
ATOM     16  N   UNL     1       3.446  11.093  -0.436  0.00  0.00    -0.329 N 
ATOM     17  H   UNL     1       2.537  11.177  -0.762  0.00  0.00    +0.145 HD
ATOM     18  H   UNL     1       4.129  11.712  -0.737  0.00  0.00    +0.145 HD
ENDBRANCH  13  14
ENDBRANCH  12  13
ENDBRANCH   4  12
ENDBRANCH   1   2
BRANCH   1  19
ATOM     19  S   UNL     1       0.946   3.684   1.013  0.00  0.00    -0.078 S 
BRANCH  19  29
ATOM     20  C   UNL     1      -3.925   1.160   4.744  0.00  0.00    +0.001 A 
ATOM     21  C   UNL     1      -3.504   2.385   5.245  0.00  0.00    +0.002 A 
ATOM     22  C   UNL     1      -2.508   3.091   4.632  0.00  0.00    +0.028 A 
ATOM     23  C   UNL     1      -1.901   2.575   3.482  0.00  0.00    +0.079 A 
ATOM     24  C   UNL     1      -2.332   1.328   2.975  0.00  0.00    +0.065 A 
ATOM     25  C   UNL     1      -3.351   0.629   3.622  0.00  0.00    +0.015 A 
ATOM     26  C   UNL     1      -1.678   0.807   1.767  0.00  0.00    +0.263 A 
ATOM     27  O   UNL     1      -2.006  -0.261   1.283  0.00  0.00    -0.267 OA
ATOM     28  N   UNL     1      -0.698   1.558   1.213  0.00  0.00    -0.276 N 
ATOM     29  C   UNL     1      -0.341   2.752   1.773  0.00  0.00    +0.173 A 
ATOM     30  N   UNL     1      -0.914   3.238   2.847  0.00  0.00    -0.223 NA
BRANCH  28  31
ATOM     31  C   UNL     1      -0.013   1.086   0.008  0.00  0.00    +0.252 C 
BRANCH  31  32
ATOM     32  C   UNL     1      -0.742   1.585  -1.213  0.00  0.00    +0.375 C 
ATOM     33  O   UNL     1      -1.732   2.266  -1.089  0.00  0.00    -0.244 OA
ATOM     34  O   UNL     1      -0.290   1.274  -2.438  0.00  0.00    -0.244 OA
ENDBRANCH  31  32
ENDBRANCH  28  31
ENDBRANCH  19  29
ENDBRANCH   1  19
TORSDOF 9
