REMARK  Name = ZINC21968168
REMARK  9 active torsions:
REMARK  status: ('A' for Active; 'I' for Inactive)
REMARK    1  A    between atoms: C_1  and  C_2
REMARK    2  A    between atoms: C_2  and  C_4
REMARK    3  A    between atoms: C_2  and  O_27
REMARK    4  A    between atoms: N_6  and  N_7
REMARK    5  A    between atoms: C_8  and  C_10
REMARK    6  A    between atoms: C_13  and  S_16
REMARK    7  A    between atoms: S_16  and  N_19
REMARK    8  A    between atoms: N_19  and  C_20
REMARK    9  A    between atoms: O_27  and  C_28
REMARK                            x       y       z     vdW  Elec       q    Type
REMARK                         _______ _______ _______ _____ _____    ______ ____
ROOT
ATOM      1  N   UNL     1      -3.506  -0.329   1.101  0.00  0.00    -0.230 N 
ATOM      2  C   UNL     1      -3.841  -1.608   1.365  0.00  0.00    +0.260 C 
ATOM      3  O   UNL     1      -3.006  -2.378   1.797  0.00  0.00    -0.269 OA
ATOM      4  H   UNL     1      -4.261   0.368   0.710  0.00  0.00    +0.173 HD
ENDROOT
BRANCH   2   5
ATOM      5  C   UNL     1      -5.224  -2.073   1.127  0.00  0.00    +0.038 A 
ATOM      6  C   UNL     1      -6.187  -1.190   0.636  0.00  0.00    +0.015 A 
ATOM      7  C   UNL     1      -7.474  -1.632   0.412  0.00  0.00    +0.029 A 
ATOM      8  C   UNL     1      -7.815  -2.945   0.684  0.00  0.00    +0.109 A 
ATOM      9  C   UNL     1      -6.867  -3.824   1.176  0.00  0.00    +0.029 A 
ATOM     10  C   UNL     1      -5.575  -3.397   1.399  0.00  0.00    +0.015 A 
BRANCH   8  11
ATOM     11  S   UNL     1      -9.463  -3.499   0.402  0.00  0.00    +0.072 S 
ATOM     12  O   UNL     1      -9.989  -2.696  -0.645  0.00  0.00    -0.150 OA
ATOM     13  O   UNL     1      -9.407  -4.917   0.319  0.00  0.00    -0.150 OA
BRANCH  11  14
ATOM     14  N   UNL     1     -10.340  -3.140   1.760  0.00  0.00    -0.216 N 
ATOM     15  H   UNL     1     -10.751  -3.950   2.380  0.00  0.00    +0.174 HD
BRANCH  14  16
ATOM     16  C   UNL     1     -10.558  -1.807   2.118  0.00  0.00    +0.048 A 
ATOM     17  C   UNL     1      -9.859  -1.248   3.180  0.00  0.00    +0.026 A 
ATOM     18  C   UNL     1     -10.072   0.072   3.527  0.00  0.00    +0.022 A 
ATOM     19  C   UNL     1     -10.990   0.834   2.827  0.00  0.00    +0.041 A 
ATOM     20  C   UNL     1     -11.693   0.278   1.772  0.00  0.00    +0.022 A 
ATOM     21  C   UNL     1     -11.479  -1.040   1.416  0.00  0.00    +0.026 A 
ATOM     22 CL   UNL     1     -11.261   2.490   3.271  0.00  0.00    -0.084 Cl
ENDBRANCH  14  16
ENDBRANCH  11  14
ENDBRANCH   8  11
ENDBRANCH   2   5
BRANCH   1  25
ATOM     23  C   UNL     1      -1.860   1.390   1.062  0.00  0.00    +0.270 C 
ATOM     24  O   UNL     1      -2.693   2.159   0.630  0.00  0.00    -0.270 OA
ATOM     25  N   UNL     1      -2.195   0.112   1.326  0.00  0.00    -0.231 N 
ATOM     26  H   UNL     1      -1.440  -0.585   1.717  0.00  0.00    +0.173 HD
BRANCH  23  28
ATOM     27  C   UNL     1       0.504   1.132   0.358  0.00  0.00    +0.062 C 
ATOM     28  C   UNL     1      -0.450   1.865   1.304  0.00  0.00    +0.257 C 
BRANCH  28  29
ATOM     29  O   UNL     1      -0.373   3.271   1.062  0.00  0.00    -0.480 OA
BRANCH  29  30
ATOM     30  C   UNL     1       0.616   3.953   1.699  0.00  0.00    +0.122 A 
ATOM     31  C   UNL     1       1.557   3.268   2.454  0.00  0.00    +0.048 A 
ATOM     32  C   UNL     1       2.565   3.962   3.095  0.00  0.00    +0.042 A 
ATOM     33  C   UNL     1       2.630   5.341   2.994  0.00  0.00    +0.124 A 
ATOM     34  C   UNL     1       1.688   6.027   2.245  0.00  0.00    +0.042 A 
ATOM     35  C   UNL     1       0.682   5.335   1.598  0.00  0.00    +0.048 A 
ATOM     36  F   UNL     1       3.613   6.019   3.625  0.00  0.00    -0.205 F 
ENDBRANCH  29  30
ENDBRANCH  28  29
ENDBRANCH  23  28
ENDBRANCH   1  25
TORSDOF 8
