REMARK  Name = ZINC04938088
REMARK  2 active torsions:
REMARK  status: ('A' for Active; 'I' for Inactive)
REMARK    1  A    between atoms: C_1  and  C_2
REMARK    2  A    between atoms: C_8  and  C_10
REMARK                            x       y       z     vdW  Elec       q    Type
REMARK                         _______ _______ _______ _____ _____    ______ ____
ROOT
ATOM      1  C   UNL     1       4.671   5.246  -0.018  0.00  0.00    +0.075 A 
ATOM      2  C   UNL     1       3.524   5.981  -0.003  0.00  0.00    +0.032 A 
ATOM      3  C   UNL     1       2.278   5.337   0.007  0.00  0.00    +0.027 A 
ATOM      4  C   UNL     1       2.328   3.925  -0.000  0.00  0.00    +0.032 A 
ATOM      5  S   UNL     1       4.063   3.567  -0.019  0.00  0.00    -0.083 S 
ATOM      6  C   UNL     1       1.150   3.166   0.008  0.00  0.00    +0.015 A 
ATOM      7  C   UNL     1       1.164   1.766   0.000  0.00  0.00    +0.011 A 
ATOM      8  C   UNL     1      -0.013   1.076   0.008  0.00  0.00    +0.001 A 
ATOM      9  C   UNL     1      -1.231   1.746   0.017  0.00  0.00    +0.002 A 
ATOM     10  C   UNL     1      -1.280   3.109   0.030  0.00  0.00    +0.028 A 
ATOM     11  C   UNL     1      -0.091   3.850   0.023  0.00  0.00    +0.074 A 
ATOM     12  N   UNL     1      -0.106   5.192   0.029  0.00  0.00    -0.235 NA
ATOM     13  C   UNL     1       0.975   5.918   0.021  0.00  0.00    +0.138 A 
ATOM     14 CL   UNL     1       0.825   7.647   0.030  0.00  0.00    -0.061 Cl
ENDROOT
BRANCH   1  22
ATOM     15  C   UNL     1      11.174   7.662  -0.074  0.00  0.00    +0.089 C 
ATOM     16  C   UNL     1      10.187   6.524  -0.069  0.00  0.00    +0.136 A 
ATOM     17  C   UNL     1       8.838   6.624  -0.056  0.00  0.00    +0.091 A 
ATOM     18  C   UNL     1       8.394   5.274  -0.057  0.00  0.00    +0.168 A 
ATOM     19  N   UNL     1       9.473   4.535  -0.065  0.00  0.00    -0.063 NA
ATOM     20  O   UNL     1      10.474   5.214  -0.077  0.00  0.00    -0.358 OA
ATOM     21  N   UNL     1       7.074   4.827  -0.044  0.00  0.00    -0.263 N 
ATOM     22  C   UNL     1       6.062   5.717  -0.030  0.00  0.00    +0.256 C 
ATOM     23  O   UNL     1       6.300   6.910  -0.028  0.00  0.00    -0.269 OA
ATOM     24  H   UNL     1       6.884   3.876  -0.046  0.00  0.00    +0.157 HD
ENDBRANCH   1  22
TORSDOF 1
