REMARK  Name = ZINC39600252
REMARK  5 active torsions:
REMARK  status: ('A' for Active; 'I' for Inactive)
REMARK    1  A    between atoms: C_2  and  C_12
REMARK    2  A    between atoms: C_6  and  C_7
REMARK    3  A    between atoms: C_12  and  N_13
REMARK    4  A    between atoms: C_14  and  C_16
REMARK    5  A    between atoms: C_27  and  C_29
REMARK                            x       y       z     vdW  Elec       q    Type
REMARK                         _______ _______ _______ _____ _____    ______ ____
ROOT
ATOM      1  C   UNL     1       1.133   5.858   3.761  0.00  0.00    +0.100 C 
ATOM      2  C   UNL     1       2.503   5.277   4.176  0.00  0.00    +0.121 C 
ATOM      3  N   UNL     1       3.458   6.393   3.979  0.00  0.00    -0.296 N 
ATOM      4  C   UNL     1       2.721   7.595   4.438  0.00  0.00    +0.115 C 
ATOM      5  C   UNL     1       1.278   7.379   3.938  0.00  0.00    -0.004 C 
ATOM      6  C   UNL     1       0.279   7.888   4.973  0.00  0.00    -0.010 C 
ATOM      7  C   UNL     1       0.403   9.410   5.089  0.00  0.00    -0.082 C 
ATOM      8  N   UNL     1       0.141  10.025   3.782  0.00  0.00    +0.379 N 
ATOM      9  C   UNL     1       1.163   9.602   2.816  0.00  0.00    -0.082 C 
ATOM     10  C   UNL     1       1.071   8.088   2.604  0.00  0.00    -0.010 C 
ATOM     11  C   UNL     1       4.713   6.330   3.492  0.00  0.00    +0.247 C 
ATOM     12  O   UNL     1       5.137   5.286   3.037  0.00  0.00    -0.270 OA
ATOM     13  H   UNL     1      -0.769   9.740   3.453  0.00  0.00    -0.086 HD
ATOM     14  H   UNL     1       0.163  11.030   3.874  0.00  0.00    -0.086 HD
ENDROOT
BRANCH  11  15
ATOM     15  C   UNL     1       5.575   7.532   3.511  0.00  0.00    +0.042 A 
ATOM     16  C   UNL     1       5.294   8.581   4.388  0.00  0.00    +0.051 A 
ATOM     17  C   UNL     1       6.103   9.701   4.402  0.00  0.00    +0.127 A 
ATOM     18  C   UNL     1       7.190   9.785   3.547  0.00  0.00    +0.076 A 
ATOM     19  C   UNL     1       7.472   8.747   2.674  0.00  0.00    +0.127 A 
ATOM     20  C   UNL     1       6.674   7.619   2.656  0.00  0.00    +0.051 A 
ATOM     21  F   UNL     1       8.534   8.835   1.843  0.00  0.00    -0.205 F 
ATOM     22  F   UNL     1       5.832  10.717   5.250  0.00  0.00    -0.205 F 
ENDBRANCH  11  15
BRANCH   1  24
ATOM     23  N   UNL     1      -0.441   5.494   1.888  0.00  0.00    -0.311 N 
ATOM     24  C   UNL     1       0.835   5.524   2.322  0.00  0.00    +0.218 C 
ATOM     25  O   UNL     1       1.742   5.281   1.556  0.00  0.00    -0.275 OA
ATOM     26  H   UNL     1      -1.167   5.689   2.501  0.00  0.00    +0.149 HD
BRANCH  23  27
ATOM     27  C   UNL     1      -0.731   5.169   0.489  0.00  0.00    +0.139 C 
BRANCH  27  29
ATOM     28  C   UNL     1      -2.833   6.381  -0.125  0.00  0.00    +0.017 A 
ATOM     29  C   UNL     1      -2.220   5.204   0.263  0.00  0.00    -0.027 A 
ATOM     30  C   UNL     1      -2.973   4.060   0.444  0.00  0.00    +0.043 A 
ATOM     31  C   UNL     1      -4.342   4.092   0.236  0.00  0.00    +0.124 A 
ATOM     32  C   UNL     1      -4.954   5.271  -0.152  0.00  0.00    +0.050 A 
ATOM     33  C   UNL     1      -4.199   6.415  -0.332  0.00  0.00    +0.058 A 
ATOM     34  F   UNL     1      -5.079   2.974   0.412  0.00  0.00    -0.205 F 
BRANCH  33  35
ATOM     35  C   UNL     1      -4.865   7.699  -0.755  0.00  0.00    +0.418 C 
ATOM     36  F   UNL     1      -4.887   7.776  -2.151  0.00  0.00    -0.166 F 
ATOM     37  F   UNL     1      -6.176   7.727  -0.266  0.00  0.00    -0.166 F 
ATOM     38  F   UNL     1      -4.152   8.786  -0.239  0.00  0.00    -0.166 F 
ENDBRANCH  33  35
ENDBRANCH  27  29
ENDBRANCH  23  27
ENDBRANCH   1  24
TORSDOF 5
