REMARK  Name = ZINC40876540
REMARK  6 active torsions:
REMARK  status: ('A' for Active; 'I' for Inactive)
REMARK    1  A    between atoms: C_1  and  C_2
REMARK    2  A    between atoms: C_3  and  C_22
REMARK    3  A    between atoms: C_6  and  C_7
REMARK    4  A    between atoms: C_10  and  C_13
REMARK    5  A    between atoms: C_22  and  N_23
REMARK    6  A    between atoms: N_23  and  C_24
REMARK                            x       y       z     vdW  Elec       q    Type
REMARK                         _______ _______ _______ _____ _____    ______ ____
ROOT
ATOM      1  C   UNL     1      -0.018   1.503   0.010  0.00  0.00    +0.048 C 
ATOM      2  C   UNL     1       0.002  -0.004   0.002  0.00  0.00    -0.003 A 
ATOM      3  C   UNL     1       0.009  -0.820  -1.131  0.00  0.00    +0.050 A 
ATOM      4  N   UNL     1       0.028  -2.071  -0.746  0.00  0.00    -0.171 NA
ATOM      5  N   UNL     1       0.035  -2.105   0.655  0.00  0.00    -0.212 N 
ATOM      6  C   UNL     1       0.024  -0.814   1.102  0.00  0.00    +0.081 A 
ATOM      7  C   UNL     1       0.054  -3.253   1.451  0.00  0.00    +0.173 A 
ATOM      8  C   UNL     1       0.074  -4.508   0.851  0.00  0.00    +0.085 A 
ATOM      9  C   UNL     1       0.093  -5.638   1.652  0.00  0.00    +0.025 A 
ATOM     10  C   UNL     1       0.091  -5.471   3.030  0.00  0.00    +0.021 A 
ATOM     11  C   UNL     1       0.070  -4.195   3.557  0.00  0.00    +0.113 A 
ATOM     12  N   UNL     1       0.057  -3.137   2.769  0.00  0.00    -0.235 NA
ATOM     13 CL   UNL     1       0.075  -4.656  -0.879  0.00  0.00    -0.080 Cl
ENDROOT
BRANCH   6  14
ATOM     14  C   UNL     1       0.031  -0.375   2.514  0.00  0.00    +0.022 A 
ATOM     15  C   UNL     1      -0.800  -0.994   3.455  0.00  0.00    +0.051 A 
ATOM     16  C   UNL     1      -0.755  -0.545   4.766  0.00  0.00    +0.145 A 
ATOM     17  C   UNL     1       0.103   0.491   5.098  0.00  0.00    +0.073 A 
ATOM     18  N   UNL     1       0.874   1.054   4.188  0.00  0.00    -0.257 NA
ATOM     19  C   UNL     1       0.870   0.658   2.932  0.00  0.00    +0.121 A 
ATOM     20  C   UNL     1       0.156   0.982   6.522  0.00  0.00    +0.068 C 
ATOM     21  F   UNL     1      -1.540  -1.112   5.709  0.00  0.00    -0.204 F 
ENDBRANCH   6  14
BRANCH   3  22
ATOM     22  C   UNL     1      -0.005  -0.340  -2.559  0.00  0.00    -0.024 C 
BRANCH  22  23
ATOM     23  N   UNL     1       1.375  -0.164  -3.030  0.00  0.00    +0.385 N 
ATOM     24  H   UNL     1       1.844   0.517  -2.451  0.00  0.00    -0.085 HD
ATOM     25  H   UNL     1       1.864  -1.045  -2.975  0.00  0.00    -0.085 HD
BRANCH  23  26
ATOM     26  C   UNL     1       1.362   0.304  -4.422  0.00  0.00    -0.069 C 
ATOM     27  C   UNL     1       0.803   1.746  -4.504  0.00  0.00    -0.013 C 
ATOM     28  C   UNL     1       1.407   2.272  -5.830  0.00  0.00    +0.035 C 
ATOM     29  C   UNL     1       2.830   1.676  -5.860  0.00  0.00    +0.165 C 
ATOM     30  C   UNL     1       2.801   0.421  -4.966  0.00  0.00    +0.021 C 
ATOM     31  F   UNL     1       3.749   2.604  -5.359  0.00  0.00    -0.246 F 
ENDBRANCH  23  26
ENDBRANCH  22  23
ENDBRANCH   3  22
TORSDOF 4
