REMARK  Name = ZINC41301078
REMARK  6 active torsions:
REMARK  status: ('A' for Active; 'I' for Inactive)
REMARK    1  A    between atoms: C_5  and  C_7
REMARK    2  A    between atoms: C_7  and  N_8
REMARK    3  A    between atoms: C_12  and  N_25
REMARK    4  A    between atoms: C_13  and  N_15
REMARK    5  A    between atoms: N_15  and  C_16
REMARK    6  A    between atoms: C_19  and  C_22
REMARK                            x       y       z     vdW  Elec       q    Type
REMARK                         _______ _______ _______ _____ _____    ______ ____
ROOT
ATOM      1  N   UNL     1       0.808  -2.711  -1.438  0.00  0.00    -0.308 N 
ATOM      2  C   UNL     1       1.112  -4.039  -1.683  0.00  0.00    +0.219 A 
ATOM      3  N   UNL     1       1.252  -4.868  -0.659  0.00  0.00    -0.197 NA
ATOM      4  C   UNL     1       1.544  -6.151  -0.856  0.00  0.00    +0.154 A 
ATOM      5  C   UNL     1       1.701  -6.618  -2.158  0.00  0.00    +0.205 A 
ATOM      6  C   UNL     1       1.546  -5.718  -3.208  0.00  0.00    +0.160 A 
ATOM      7  N   UNL     1       1.249  -4.449  -2.935  0.00  0.00    -0.197 NA
ATOM      8  N   UNL     1       1.689  -7.012   0.221  0.00  0.00    -0.341 N 
ATOM      9  H   UNL     1       0.699  -2.095  -2.179  0.00  0.00    +0.149 HD
ATOM     10  H   UNL     1       1.579  -6.679   1.125  0.00  0.00    +0.144 HD
ATOM     11  H   UNL     1       1.902  -7.946   0.070  0.00  0.00    +0.144 HD
ENDROOT
BRANCH   5  12
ATOM     12  N   UNL     1       2.026  -8.038  -2.420  0.00  0.00    +0.063 N 
ATOM     13  O   UNL     1       1.137  -8.844  -2.569  0.00  0.00    -0.126 OA
ATOM     14  O   UNL     1       3.180  -8.392  -2.485  0.00  0.00    -0.126 OA
ENDBRANCH   5  12
BRANCH   6  15
ATOM     15  N   UNL     1       1.694  -6.138  -4.522  0.00  0.00    -0.297 N 
ATOM     16  H   UNL     1       1.825  -7.079  -4.719  0.00  0.00    +0.154 HD
BRANCH  15  17
ATOM     17  C   UNL     1       1.655  -5.209  -5.558  0.00  0.00    +0.032 A 
ATOM     18  C   UNL     1       2.216  -3.948  -5.381  0.00  0.00    +0.024 A 
ATOM     19  C   UNL     1       2.180  -3.027  -6.404  0.00  0.00    +0.015 A 
ATOM     20  C   UNL     1       1.579  -3.361  -7.621  0.00  0.00    +0.037 A 
ATOM     21  C   UNL     1       1.016  -4.628  -7.796  0.00  0.00    +0.015 A 
ATOM     22  C   UNL     1       1.061  -5.546  -6.771  0.00  0.00    +0.024 A 
BRANCH  20  23
ATOM     23  C   UNL     1       1.538  -2.376  -8.720  0.00  0.00    +0.242 C 
ATOM     24  O   UNL     1       2.027  -1.274  -8.566  0.00  0.00    -0.270 OA
ATOM     25  N   UNL     1       0.958  -2.699  -9.893  0.00  0.00    -0.325 N 
ATOM     26  H   UNL     1       0.567  -3.579 -10.015  0.00  0.00    +0.145 HD
ATOM     27  H   UNL     1       0.931  -2.052 -10.615  0.00  0.00    +0.145 HD
ENDBRANCH  20  23
ENDBRANCH  15  17
ENDBRANCH   6  15
BRANCH   1  28
ATOM     28  C   UNL     1       0.652  -2.237  -0.061  0.00  0.00    +0.160 C 
BRANCH  28  33
ATOM     29  C   UNL     1      -1.284   0.997  -0.023  0.00  0.00    +0.003 A 
ATOM     30  C   UNL     1      -0.230   1.896  -0.090  0.00  0.00    +0.020 A 
ATOM     31  C   UNL     1       1.064   1.415  -0.143  0.00  0.00    +0.111 A 
ATOM     32  N   UNL     1       1.302   0.118  -0.133  0.00  0.00    -0.258 NA
ATOM     33  C   UNL     1       0.325  -0.766  -0.070  0.00  0.00    +0.058 A 
ATOM     34  C   UNL     1      -0.994  -0.359  -0.013  0.00  0.00    +0.025 A 
ENDBRANCH  28  33
ENDBRANCH   1  28
TORSDOF 6
