REMARK  Name = ZINC39325778
REMARK  9 active torsions:
REMARK  status: ('A' for Active; 'I' for Inactive)
REMARK    1  A    between atoms: C_1  and  C_2
REMARK    2  A    between atoms: C_2  and  C_3
REMARK    3  A    between atoms: C_2  and  O_4
REMARK    4  A    between atoms: O_4  and  C_5
REMARK    5  A    between atoms: C_8  and  C_13
REMARK    6  A    between atoms: C_10  and  O_11
REMARK    7  A    between atoms: O_11  and  C_12
REMARK    8  A    between atoms: C_28  and  N_32
REMARK    9  A    between atoms: C_29  and  C_30
REMARK                            x       y       z     vdW  Elec       q    Type
REMARK                         _______ _______ _______ _____ _____    ______ ____
ROOT
ATOM      1  C   UNL     1      -2.336  -5.229  -2.885  0.00  0.00    +0.084 C 
ATOM      2  C   UNL     1      -1.868  -5.047  -4.333  0.00  0.00    +0.154 C 
ATOM      3  C   UNL     1      -0.353  -5.156  -4.284  0.00  0.00    +0.129 C 
ATOM      4  C   UNL     1       0.393  -4.075  -4.728  0.00  0.00    +0.035 A 
ATOM      5  C   UNL     1       1.803  -4.110  -4.730  0.00  0.00    +0.013 A 
ATOM      6  C   UNL     1       2.501  -3.032  -5.180  0.00  0.00    +0.001 A 
ATOM      7  C   UNL     1       1.852  -1.890  -5.639  0.00  0.00    +0.002 A 
ATOM      8  C   UNL     1       0.493  -1.795  -5.658  0.00  0.00    +0.024 A 
ATOM      9  C   UNL     1      -0.292  -2.869  -5.207  0.00  0.00    +0.044 A 
ATOM     10  N   UNL     1      -1.628  -2.773  -5.218  0.00  0.00    -0.284 N 
ATOM     11  C   UNL     1      -2.454  -3.745  -4.833  0.00  0.00    +0.229 C 
ATOM     12  O   UNL     1      -3.662  -3.596  -4.871  0.00  0.00    -0.275 OA
ATOM     13  O   UNL     1       0.189  -6.277  -3.804  0.00  0.00    -0.444 OA
ATOM     14  C   UNL     1      -0.404  -6.820  -2.714  0.00  0.00    +0.198 C 
ATOM     15  C   UNL     1      -1.589  -6.370  -2.251  0.00  0.00    +0.095 C 
ATOM     16  H   UNL     1      -2.022  -1.944  -5.533  0.00  0.00    +0.155 HD
ENDROOT
BRANCH   1  20
ATOM     17  C   UNL     1      -1.580  -1.640  -0.687  0.00  0.00    +0.162 A 
ATOM     18  C   UNL     1      -0.532  -2.329  -1.276  0.00  0.00    +0.050 A 
ATOM     19  C   UNL     1      -0.780  -3.489  -1.986  0.00  0.00    +0.008 A 
ATOM     20  C   UNL     1      -2.072  -3.964  -2.110  0.00  0.00    -0.034 A 
ATOM     21  C   UNL     1      -3.122  -3.282  -1.525  0.00  0.00    +0.053 A 
ATOM     22  C   UNL     1      -2.880  -2.122  -0.807  0.00  0.00    +0.162 A 
BRANCH  22  23
ATOM     23  O   UNL     1      -3.912  -1.452  -0.226  0.00  0.00    -0.491 OA
ATOM     24  C   UNL     1      -5.219  -2.005  -0.391  0.00  0.00    +0.277 C 
ENDBRANCH  22  23
BRANCH  17  25
ATOM     25  O   UNL     1      -1.339  -0.499   0.012  0.00  0.00    -0.486 OA
BRANCH  25  27
ATOM     26  C   UNL     1      -0.011   1.505   0.263  0.00  0.00    +0.051 C 
ATOM     27  C   UNL     1       0.001  -0.002  -0.000  0.00  0.00    +0.167 C 
ATOM     28  C   UNL     1       0.815  -0.703   1.089  0.00  0.00    +0.051 C 
ENDBRANCH  25  27
ENDBRANCH  17  25
ENDBRANCH   1  20
BRANCH  14  29
ATOM     29  N   UNL     1       0.218  -7.856  -2.063  0.00  0.00    -0.328 N 
ATOM     30  H   UNL     1       1.070  -8.190  -2.385  0.00  0.00    +0.145 HD
ATOM     31  H   UNL     1      -0.195  -8.255  -1.281  0.00  0.00    +0.145 HD
ENDBRANCH  14  29
BRANCH  15  32
ATOM     32  C   UNL     1      -2.160  -7.008  -1.103  0.00  0.00    +0.100 C 
ATOM     33  N   UNL     1      -2.613  -7.514  -0.193  0.00  0.00    -0.191 NA
ENDBRANCH  15  32
TORSDOF 6
