REMARK  Name = ZINC33289388
REMARK  3 active torsions:
REMARK  status: ('A' for Active; 'I' for Inactive)
REMARK    1  A    between atoms: C_6  and  N_7
REMARK    2  A    between atoms: C_8  and  C_10
REMARK    3  A    between atoms: C_10  and  N_11
REMARK                            x       y       z     vdW  Elec       q    Type
REMARK                         _______ _______ _______ _____ _____    ______ ____
ROOT
ATOM      1  N   UNL     1      -3.104   1.670   5.891  0.00  0.00    -0.217 N 
ATOM      2  C   UNL     1      -1.810   1.943   5.622  0.00  0.00    +0.366 A 
ATOM      3  O   UNL     1      -0.967   2.264   6.442  0.00  0.00    -0.243 OA
ATOM      4  N   UNL     1      -1.604   1.804   4.311  0.00  0.00    -0.172 NA
ATOM      5  C   UNL     1      -2.735   1.446   3.717  0.00  0.00    +0.169 A 
ATOM      6  N   UNL     1      -3.712   1.348   4.667  0.00  0.00    -0.218 N 
ATOM      7  C   UNL     1      -4.977   0.996   4.332  0.00  0.00    +0.224 A 
ATOM      8  N   UNL     1      -5.300   0.739   3.092  0.00  0.00    -0.228 NA
ATOM      9  C   UNL     1      -4.403   0.814   2.115  0.00  0.00    +0.114 A 
ATOM     10  C   UNL     1      -3.063   1.171   2.355  0.00  0.00    +0.055 A 
ATOM     11  C   UNL     1      -2.192   1.210   1.181  0.00  0.00    -0.024 A 
ATOM     12  C   UNL     1      -2.753   0.904  -0.008  0.00  0.00    -0.004 A 
ATOM     13  S   UNL     1      -4.450   0.550   0.360  0.00  0.00    -0.073 S 
ATOM     14  C   UNL     1      -2.080   0.873  -1.347  0.00  0.00    +0.043 C 
ATOM     15  C   UNL     1      -0.734   1.602  -1.230  0.00  0.00    +0.005 C 
ATOM     16  C   UNL     1      -0.003   1.087   0.013  0.00  0.00    +0.005 C 
ATOM     17  C   UNL     1      -0.716   1.579   1.274  0.00  0.00    +0.037 C 
ENDROOT
BRANCH   1  18
ATOM     18  C   UNL     1      -3.749   1.704   7.205  0.00  0.00    +0.243 C 
BRANCH  18  20
ATOM     19  N   UNL     1      -4.940   3.353   8.614  0.00  0.00    -0.284 N 
ATOM     20  C   UNL     1      -4.300   3.084   7.459  0.00  0.00    +0.239 C 
ATOM     21  O   UNL     1      -4.165   3.954   6.624  0.00  0.00    -0.273 OA
ATOM     22  H   UNL     1      -5.129   2.546   9.339  0.00  0.00    +0.155 HD
BRANCH  19  28
ATOM     23  C   UNL     1      -5.345   5.132  10.197  0.00  0.00    +0.026 A 
ATOM     24  C   UNL     1      -5.760   6.421  10.469  0.00  0.00    +0.041 A 
ATOM     25  C   UNL     1      -6.208   7.236   9.443  0.00  0.00    +0.142 A 
ATOM     26  C   UNL     1      -6.236   6.763   8.141  0.00  0.00    +0.078 A 
ATOM     27  C   UNL     1      -5.816   5.476   7.864  0.00  0.00    +0.046 A 
ATOM     28  C   UNL     1      -5.366   4.657   8.892  0.00  0.00    +0.035 A 
ATOM     29 CL   UNL     1      -6.797   7.787   6.857  0.00  0.00    -0.081 Cl
ATOM     30  F   UNL     1      -6.619   8.495   9.712  0.00  0.00    -0.204 F 
ENDBRANCH  19  28
ENDBRANCH  18  20
ENDBRANCH   1  18
TORSDOF 3
