REMARK  Name = ZINC06669661
REMARK  3 active torsions:
REMARK  status: ('A' for Active; 'I' for Inactive)
REMARK    1  A    between atoms: C_6  and  C_7
REMARK    2  A    between atoms: C_10  and  C_18
REMARK    3  A    between atoms: C_23  and  O_24
REMARK                            x       y       z     vdW  Elec       q    Type
REMARK                         _______ _______ _______ _____ _____    ______ ____
ROOT
ATOM      1  C   UNL     1      -1.293  -0.775   0.010  0.00  0.00    +0.144 C 
ATOM      2  C   UNL     1      -1.350  -1.671   1.254  0.00  0.00    +0.059 C 
ATOM      3  C   UNL     1      -2.519  -2.655   1.131  0.00  0.00    +0.109 C 
ATOM      4  N   UNL     1      -2.283  -3.525  -0.038  0.00  0.00    -0.305 N 
ATOM      5  C   UNL     1      -1.829  -2.894  -1.188  0.00  0.00    +0.236 A 
ATOM      6  N   UNL     1      -1.370  -1.615  -1.182  0.00  0.00    -0.206 N 
ATOM      7  N   UNL     1      -1.017  -1.335  -2.502  0.00  0.00    -0.042 NA
ATOM      8  N   UNL     1      -1.270  -2.404  -3.185  0.00  0.00    -0.021 NA
ATOM      9  N   UNL     1      -1.745  -3.329  -2.414  0.00  0.00    -0.092 NA
ATOM     10  H   UNL     1      -2.436  -4.482  -0.005  0.00  0.00    +0.150 HD
ENDROOT
BRANCH   1  16
ATOM     11  C   UNL     1      -0.017   1.378   0.010  0.00  0.00    +0.008 A 
ATOM     12  C   UNL     1       1.170   2.086   0.002  0.00  0.00    +0.038 A 
ATOM     13  C   UNL     1       2.379   1.410  -0.013  0.00  0.00    +0.123 A 
ATOM     14  C   UNL     1       2.396   0.026  -0.021  0.00  0.00    +0.038 A 
ATOM     15  C   UNL     1       1.208  -0.680  -0.013  0.00  0.00    +0.008 A 
ATOM     16  C   UNL     1       0.002  -0.004   0.002  0.00  0.00    -0.023 A 
ATOM     17  F   UNL     1       3.540   2.101  -0.021  0.00  0.00    -0.205 F 
ENDBRANCH   1  16
BRANCH   3  18
ATOM     18  C   UNL     1      -3.805  -1.893   0.947  0.00  0.00    +0.016 A 
ATOM     19  C   UNL     1      -4.354  -1.757  -0.314  0.00  0.00    +0.029 A 
ATOM     20  C   UNL     1      -5.535  -1.057  -0.483  0.00  0.00    +0.042 A 
ATOM     21  C   UNL     1      -6.169  -0.491   0.609  0.00  0.00    +0.023 A 
ATOM     22  C   UNL     1      -5.624  -0.624   1.871  0.00  0.00    +0.047 A 
ATOM     23  C   UNL     1      -4.442  -1.331   2.043  0.00  0.00    +0.122 A 
ATOM     24 CL   UNL     1      -6.223  -0.888  -2.069  0.00  0.00    -0.084 Cl
BRANCH  23  25
ATOM     25  O   UNL     1      -3.907  -1.468   3.285  0.00  0.00    -0.506 OA
ATOM     26  H   UNL     1      -3.293  -0.762   3.529  0.00  0.00    +0.292 HD
ENDBRANCH  23  25
ENDBRANCH   3  18
TORSDOF 3
