REMARK  Name = ZINC23391097
REMARK  6 active torsions:
REMARK  status: ('A' for Active; 'I' for Inactive)
REMARK    1  A    between atoms: C_1  and  C_2
REMARK    2  A    between atoms: C_4  and  C_9
REMARK    3  A    between atoms: C_5  and  C_8
REMARK    4  A    between atoms: C_9  and  C_11
REMARK    5  A    between atoms: C_11  and  N_12
REMARK    6  A    between atoms: C_20  and  C_22
REMARK                            x       y       z     vdW  Elec       q    Type
REMARK                         _______ _______ _______ _____ _____    ______ ____
ROOT
ATOM      1  N   UNL     1       4.405   0.004  -0.041  0.00  0.00    -0.217 N 
ATOM      2  C   UNL     1       5.149  -0.059  -1.165  0.00  0.00    +0.247 C 
ATOM      3  O   UNL     1       4.753  -0.025  -2.310  0.00  0.00    -0.273 OA
ATOM      4  C   UNL     1       6.580  -0.177  -0.695  0.00  0.00    +0.115 C 
ATOM      5  C   UNL     1       7.191  -1.486  -1.184  0.00  0.00    +0.035 C 
ATOM      6  C   UNL     1       8.627  -1.605  -0.668  0.00  0.00    +0.003 C 
ATOM      7  C   UNL     1       9.450  -0.418  -1.173  0.00  0.00    +0.000 C 
ATOM      8  C   UNL     1       8.838   0.886  -0.656  0.00  0.00    +0.006 C 
ATOM      9  C   UNL     1       7.402   1.015  -1.173  0.00  0.00    +0.018 C 
ATOM     10  C   UNL     1       6.783   2.308  -0.641  0.00  0.00    +0.010 C 
ATOM     11  N   UNL     1       6.476  -0.175   0.770  0.00  0.00    -0.285 N 
ATOM     12  C   UNL     1       5.165  -0.065   1.059  0.00  0.00    +0.310 C 
ATOM     13  O   UNL     1       4.723  -0.032   2.190  0.00  0.00    -0.252 OA
ATOM     14  H   UNL     1       7.384  -0.255   1.386  0.00  0.00    +0.151 HD
ENDROOT
BRANCH   1  15
ATOM     15  C   UNL     1       2.945   0.127  -0.026  0.00  0.00    +0.197 C 
BRANCH  15  16
ATOM     16  C   UNL     1       2.563   1.585  -0.014  0.00  0.00    +0.183 C 
ATOM     17  O   UNL     1       3.427   2.438  -0.018  0.00  0.00    -0.290 OA
BRANCH  16  21
ATOM     18  C   UNL     1      -2.528   1.387   0.020  0.00  0.00    +0.063 C 
ATOM     19  C   UNL     1      -1.099   1.866   0.017  0.00  0.00    +0.014 A 
ATOM     20  C   UNL     1      -0.013   1.076   0.008  0.00  0.00    +0.034 A 
ATOM     21  C   UNL     1       1.151   1.972   0.002  0.00  0.00    +0.039 A 
ATOM     22  C   UNL     1       0.640   3.256   0.013  0.00  0.00    +0.024 A 
ATOM     23  N   UNL     1      -0.703   3.172   0.026  0.00  0.00    -0.362 N 
ATOM     24  H   UNL     1      -1.454   3.975   0.041  0.00  0.00    +0.165 HD
ATOM     25  C   UNL     1       1.446   4.529   0.013  0.00  0.00    +0.064 C 
ENDBRANCH  16  21
ENDBRANCH  15  16
ENDBRANCH   1  15
TORSDOF 3
