REMARK  Name = ZINC03429631
REMARK  8 active torsions:
REMARK  status: ('A' for Active; 'I' for Inactive)
REMARK    1  A    between atoms: C_1  and  C_2
REMARK    2  A    between atoms: C_2  and  C_4
REMARK    3  A    between atoms: C_2  and  N_53
REMARK    4  A    between atoms: N_6  and  C_7
REMARK    5  A    between atoms: C_12  and  O_13
REMARK    6  A    between atoms: O_13  and  C_14
REMARK    7  A    between atoms: N_18  and  S_21
REMARK    8  A    between atoms: S_21  and  C_24
REMARK                            x       y       z     vdW  Elec       q    Type
REMARK                         _______ _______ _______ _____ _____    ______ ____
ROOT
ATOM      1  C   UNL     1      -4.578   1.147   1.139  0.00  0.00    -0.060 C 
ATOM      2  C   UNL     1      -5.682   2.205   1.038  0.00  0.00    +0.091 C 
ATOM      3  N   UNL     1      -6.975   1.519   0.899  0.00  0.00    -0.180 NA
ATOM      4  C   UNL     1      -7.107   0.487  -0.141  0.00  0.00    +0.091 C 
ATOM      5  C   UNL     1      -5.947  -0.503   0.007  0.00  0.00    -0.060 C 
ATOM      6  N   UNL     1      -4.673   0.248  -0.032  0.00  0.00    +0.389 N 
ATOM      7  H   UNL     1      -4.646   0.813  -0.889  0.00  0.00    -0.081 HD
ENDROOT
BRANCH   3   8
ATOM      8  S   UNL     1      -8.249   1.898   1.887  0.00  0.00    +0.063 S 
ATOM      9  O   UNL     1      -8.023   3.222   2.350  0.00  0.00    -0.153 OA
ATOM     10  O   UNL     1      -9.430   1.527   1.188  0.00  0.00    -0.153 OA
BRANCH   8  11
ATOM     11  C   UNL     1      -8.147   0.846   3.296  0.00  0.00    +0.140 A 
ATOM     12  C   UNL     1      -7.905   1.386   4.546  0.00  0.00    +0.031 A 
ATOM     13  C   UNL     1      -7.831   0.561   5.653  0.00  0.00    +0.002 A 
ATOM     14  C   UNL     1      -7.987  -0.805   5.510  0.00  0.00    +0.003 A 
ATOM     15  C   UNL     1      -8.223  -1.347   4.261  0.00  0.00    +0.040 A 
ATOM     16  C   UNL     1      -8.303  -0.522   3.152  0.00  0.00    +0.150 A 
ATOM     17  F   UNL     1      -8.534  -1.051   1.931  0.00  0.00    -0.203 F 
ENDBRANCH   8  11
ENDBRANCH   3   8
BRANCH   6  19
ATOM     18  C   UNL     1      -3.647  -1.686   1.117  0.00  0.00    -0.004 C 
ATOM     19  C   UNL     1      -3.533  -0.692  -0.040  0.00  0.00    +0.017 C 
BRANCH  19  20
ATOM     20  C   UNL     1      -3.532  -1.441  -1.348  0.00  0.00    +0.203 C 
ATOM     21  O   UNL     1      -4.351  -1.172  -2.201  0.00  0.00    -0.277 OA
ATOM     22  N   UNL     1      -2.622  -2.410  -1.569  0.00  0.00    -0.284 N 
ATOM     23  H   UNL     1      -2.023  -2.684  -0.857  0.00  0.00    +0.155 HD
BRANCH  22  24
ATOM     24  C   UNL     1      -2.540  -3.021  -2.827  0.00  0.00    +0.077 A 
ATOM     25  C   UNL     1      -2.981  -2.347  -3.957  0.00  0.00    +0.047 A 
ATOM     26  C   UNL     1      -2.899  -2.952  -5.198  0.00  0.00    +0.043 A 
ATOM     27  C   UNL     1      -2.377  -4.229  -5.315  0.00  0.00    +0.024 A 
ATOM     28  C   UNL     1      -1.935  -4.905  -4.193  0.00  0.00    +0.049 A 
ATOM     29  C   UNL     1      -2.015  -4.305  -2.947  0.00  0.00    +0.141 A 
ATOM     30 CL   UNL     1      -3.451  -2.109  -6.611  0.00  0.00    -0.083 Cl
BRANCH  29  31
ATOM     31  O   UNL     1      -1.581  -4.970  -1.842  0.00  0.00    -0.493 OA
ATOM     32  C   UNL     1      -1.055  -6.283  -2.040  0.00  0.00    +0.277 C 
ENDBRANCH  29  31
ENDBRANCH  22  24
ENDBRANCH  19  20
ENDBRANCH   6  19
TORSDOF 6
