REMARK  Name = ZINC38661466
REMARK  3 active torsions:
REMARK  status: ('A' for Active; 'I' for Inactive)
REMARK    1  A    between atoms: C_21  and  S_25
REMARK    2  A    between atoms: S_25  and  C_26
REMARK    3  A    between atoms: C_26  and  C_27
REMARK                            x       y       z     vdW  Elec       q    Type
REMARK                         _______ _______ _______ _____ _____    ______ ____
ROOT
ATOM      1  C   UNL     1      -0.017   1.377   0.010  0.00  0.00    +0.000 A 
ATOM      2  C   UNL     1       1.164   2.100   0.002  0.00  0.00    +0.001 A 
ATOM      3  C   UNL     1       2.373   1.435  -0.006  0.00  0.00    +0.010 A 
ATOM      4  C   UNL     1       2.396   0.042   0.006  0.00  0.00    +0.000 A 
ATOM      5  C   UNL     1       1.204  -0.692  -0.005  0.00  0.00    -0.038 A 
ATOM      6  C   UNL     1       0.002  -0.004   0.002  0.00  0.00    +0.004 A 
ATOM      7  C   UNL     1       1.178  -2.193  -0.043  0.00  0.00    +0.043 C 
ATOM      8  C   UNL     1       2.537  -2.782  -0.495  0.00  0.00    -0.008 C 
ATOM      9  C   UNL     1       2.450  -4.293  -0.326  0.00  0.00    +0.008 C 
ATOM     10  C   UNL     1       3.559  -5.049  -1.045  0.00  0.00    +0.001 C 
ATOM     11  C   UNL     1       3.624  -4.638  -2.517  0.00  0.00    +0.000 C 
ATOM     12  C   UNL     1       3.905  -3.134  -2.582  0.00  0.00    +0.001 C 
ATOM     13  C   UNL     1       2.726  -2.390  -1.959  0.00  0.00    +0.008 C 
ATOM     14  C   UNL     1       3.591  -2.148   0.399  0.00  0.00    +0.134 C 
ATOM     15  C   UNL     1       3.677  -0.692   0.000  0.00  0.00    +0.065 C 
ATOM     16  N   UNL     1       4.780  -0.108  -0.356  0.00  0.00    -0.214 NA
ATOM     17  C   UNL     1       5.925  -0.828  -0.440  0.00  0.00    +0.259 A 
ATOM     18  N   UNL     1       7.119  -0.491  -0.841  0.00  0.00    -0.107 NA
ATOM     19  N   UNL     1       7.907  -1.509  -0.785  0.00  0.00    -0.120 NA
ATOM     20  C   UNL     1       7.261  -2.565  -0.328  0.00  0.00    +0.200 A 
ATOM     21  N   UNL     1       5.986  -2.168  -0.072  0.00  0.00    -0.224 N 
ATOM     22  C   UNL     1       4.921  -2.817   0.433  0.00  0.00    +0.246 C 
ATOM     23  O   UNL     1       5.069  -3.892   0.969  0.00  0.00    -0.271 OA
ENDROOT
BRANCH  20  24
ATOM     24  S   UNL     1       7.927  -4.180  -0.099  0.00  0.00    -0.076 S 
BRANCH  24  25
ATOM     25  C   UNL     1       9.654  -4.021  -0.630  0.00  0.00    +0.172 C 
BRANCH  25  26
ATOM     26  C   UNL     1      10.349  -5.351  -0.483  0.00  0.00    +0.221 C 
ATOM     27  O   UNL     1       9.739  -6.310  -0.062  0.00  0.00    -0.275 OA
ATOM     28  N   UNL     1      11.649  -5.473  -0.821  0.00  0.00    -0.329 N 
ATOM     29  H   UNL     1      12.136  -4.705  -1.157  0.00  0.00    +0.145 HD
ATOM     30  H   UNL     1      12.096  -6.328  -0.726  0.00  0.00    +0.145 HD
ENDBRANCH  25  26
ENDBRANCH  24  25
ENDBRANCH  20  24
TORSDOF 3
