REMARK  Name = ZINC37539091
REMARK  4 active torsions:
REMARK  status: ('A' for Active; 'I' for Inactive)
REMARK    1  A    between atoms: C_1  and  C_2
REMARK    2  A    between atoms: C_2  and  C_4
REMARK    3  A    between atoms: C_15  and  O_26
REMARK    4  A    between atoms: C_23  and  O_25
REMARK                            x       y       z     vdW  Elec       q    Type
REMARK                         _______ _______ _______ _____ _____    ______ ____
ROOT
ATOM      1  C   UNL     1      -1.261  -0.757   0.010  0.00  0.00    +0.131 A 
ATOM      2  C   UNL     1      -1.685  -1.563   1.022  0.00  0.00    +0.058 A 
ATOM      3  C   UNL     1      -2.970  -2.090   0.599  0.00  0.00    +0.021 A 
ATOM      4  C   UNL     1      -3.880  -2.966   1.200  0.00  0.00    +0.022 A 
ATOM      5  C   UNL     1      -5.016  -3.246   0.502  0.00  0.00    +0.038 A 
ATOM      6  C   UNL     1      -5.293  -2.690  -0.760  0.00  0.00    +0.131 A 
ATOM      7  C   UNL     1      -4.386  -1.830  -1.371  0.00  0.00    +0.093 A 
ATOM      8  C   UNL     1      -3.218  -1.530  -0.679  0.00  0.00    +0.139 A 
ATOM      9  O   UNL     1      -2.179  -0.747  -0.984  0.00  0.00    -0.455 OA
ATOM     10  O   UNL     1      -6.466  -2.962  -1.389  0.00  0.00    -0.488 OA
ATOM     11  C   UNL     1      -7.169  -4.194  -1.196  0.00  0.00    +0.272 C 
ATOM     12  C   UNL     1      -6.388  -5.067  -0.244  0.00  0.00    +0.169 C 
ATOM     13  C   UNL     1      -6.067  -4.181   1.009  0.00  0.00    +0.246 C 
ATOM     14  O   UNL     1      -5.702  -5.185   1.946  0.00  0.00    -0.480 OA
ATOM     15  C   UNL     1      -6.564  -6.222   1.741  0.00  0.00    +0.131 A 
ATOM     16  C   UNL     1      -7.053  -6.218   0.415  0.00  0.00    +0.033 A 
ATOM     17  C   UNL     1      -7.958  -7.157  -0.026  0.00  0.00    +0.014 A 
ATOM     18  C   UNL     1      -8.368  -8.125   0.881  0.00  0.00    +0.046 A 
ATOM     19  C   UNL     1      -7.887  -8.147   2.179  0.00  0.00    +0.120 A 
ATOM     20  C   UNL     1      -6.977  -7.199   2.638  0.00  0.00    +0.091 A 
ENDROOT
BRANCH   1  22
ATOM     21  C   UNL     1      -0.018   1.503   0.010  0.00  0.00    +0.047 C 
ATOM     22  C   UNL     1       0.002  -0.004   0.002  0.00  0.00    -0.015 C 
ATOM     23  C   UNL     1       1.163  -0.653  -0.013  0.00  0.00    +0.015 C 
ENDBRANCH   1  22
BRANCH  19  24
ATOM     24  O   UNL     1      -8.314  -9.119   3.027  0.00  0.00    -0.507 OA
ATOM     25  H   UNL     1      -7.769  -9.918   3.016  0.00  0.00    +0.292 HD
ENDBRANCH  19  24
BRANCH  12  26
ATOM     26  O   UNL     1      -5.176  -5.499  -0.866  0.00  0.00    -0.377 OA
ATOM     27  H   UNL     1      -5.310  -6.003  -1.681  0.00  0.00    +0.211 HD
ENDBRANCH  12  26
TORSDOF 3
