REMARK  Name = ZINC22429614
REMARK  7 active torsions:
REMARK  status: ('A' for Active; 'I' for Inactive)
REMARK    1  A    between atoms: C_1  and  C_2
REMARK    2  A    between atoms: C_2  and  C_25
REMARK    3  A    between atoms: N_5  and  C_9
REMARK    4  A    between atoms: C_9  and  C_10
REMARK    5  A    between atoms: N_12  and  C_13
REMARK    6  A    between atoms: C_15  and  C_22
REMARK    7  A    between atoms: C_17  and  C_19
REMARK                            x       y       z     vdW  Elec       q    Type
REMARK                         _______ _______ _______ _____ _____    ______ ____
ROOT
ATOM      1  C   UNL     1      -1.256   7.423  -0.161  0.00  0.00    +0.214 C 
ENDROOT
BRANCH   1   6
ATOM      2  C   UNL     1      -5.775   7.572  -1.445  0.00  0.00    +0.047 C 
ATOM      3  C   UNL     1      -4.693   8.556  -0.997  0.00  0.00    +0.135 C 
ATOM      4  C   UNL     1      -3.316   8.065  -1.396  0.00  0.00    +0.251 C 
ATOM      5  O   UNL     1      -2.907   7.865  -2.520  0.00  0.00    -0.272 OA
ATOM      6  N   UNL     1      -2.641   7.894  -0.242  0.00  0.00    -0.215 N 
ATOM      7  C   UNL     1      -3.390   8.213   0.819  0.00  0.00    +0.310 C 
ATOM      8  O   UNL     1      -2.998   8.144   1.968  0.00  0.00    -0.252 OA
ATOM      9  N   UNL     1      -4.625   8.618   0.474  0.00  0.00    -0.281 N 
ATOM     10  H   UNL     1      -5.500   8.952   1.051  0.00  0.00    +0.152 HD
BRANCH   3  11
ATOM     11  C   UNL     1      -4.951   9.925  -1.573  0.00  0.00    -0.012 A 
ATOM     12  C   UNL     1      -4.437  10.258  -2.813  0.00  0.00    +0.010 A 
ATOM     13  C   UNL     1      -4.671  11.512  -3.349  0.00  0.00    +0.050 A 
ATOM     14  C   UNL     1      -5.422  12.433  -2.639  0.00  0.00    +0.162 A 
ATOM     15  C   UNL     1      -5.938  12.098  -1.394  0.00  0.00    +0.162 A 
ATOM     16  C   UNL     1      -5.706  10.841  -0.863  0.00  0.00    +0.055 A 
ATOM     17  O   UNL     1      -6.676  13.014  -0.703  0.00  0.00    -0.488 OA
ATOM     18  C   UNL     1      -5.964  14.154  -0.218  0.00  0.00    +0.232 C 
ATOM     19  C   UNL     1      -5.858  15.221  -1.296  0.00  0.00    +0.082 C 
ATOM     20  C   UNL     1      -5.027  14.763  -2.484  0.00  0.00    +0.232 C 
ATOM     21  O   UNL     1      -5.661  13.673  -3.156  0.00  0.00    -0.488 OA
ENDBRANCH   3  11
ENDBRANCH   1   6
BRANCH   1  22
ATOM     22  C   UNL     1      -1.242   5.920  -0.056  0.00  0.00    +0.235 C 
ATOM     23  O   UNL     1      -2.286   5.303  -0.049  0.00  0.00    -0.274 OA
ATOM     24  N   UNL     1      -0.069   5.261   0.031  0.00  0.00    -0.284 N 
ATOM     25  H   UNL     1       0.873   5.824   0.113  0.00  0.00    +0.155 HD
BRANCH  24  26
ATOM     26  C   UNL     1      -0.050   3.862   0.018  0.00  0.00    +0.035 A 
ATOM     27  C   UNL     1      -0.987   3.164  -0.730  0.00  0.00    +0.036 A 
ATOM     28  C   UNL     1      -0.971   1.768  -0.746  0.00  0.00    +0.039 A 
ATOM     29  C   UNL     1      -0.011   1.076  -0.009  0.00  0.00    +0.026 A 
ATOM     30  C   UNL     1       0.925   1.780   0.745  0.00  0.00    +0.039 A 
ATOM     31  C   UNL     1       0.906   3.176   0.752  0.00  0.00    +0.036 A 
BRANCH  30  32
ATOM     32  C   UNL     1       1.941   1.049   1.533  0.00  0.00    +0.242 C 
ATOM     33  O   UNL     1       2.758   1.664   2.190  0.00  0.00    -0.270 OA
ATOM     34  N   UNL     1       1.962  -0.298   1.522  0.00  0.00    -0.325 N 
ATOM     35  H   UNL     1       2.718  -0.842   2.108  0.00  0.00    +0.145 HD
ATOM     36  H   UNL     1       1.223  -0.855   0.926  0.00  0.00    +0.145 HD
ENDBRANCH  30  32
BRANCH  28  37
ATOM     37  C   UNL     1      -1.970   1.025  -1.543  0.00  0.00    +0.242 C 
ATOM     38  O   UNL     1      -2.807   1.629  -2.185  0.00  0.00    -0.270 OA
ATOM     39  N   UNL     1      -1.953  -0.323  -1.558  0.00  0.00    -0.325 N 
ATOM     40  H   UNL     1      -2.696  -0.875  -2.151  0.00  0.00    +0.145 HD
ATOM     41  H   UNL     1      -1.196  -0.870  -0.977  0.00  0.00    +0.145 HD
ENDBRANCH  28  37
ENDBRANCH  24  26
ENDBRANCH   1  22
TORSDOF 6
