REMARK  Name = ZINC39795418
REMARK  11 active torsions:
REMARK  status: ('A' for Active; 'I' for Inactive)
REMARK    1  A    between atoms: C_1  and  C_2
REMARK    2  A    between atoms: C_2  and  C_3
REMARK    3  A    between atoms: C_2  and  C_4
REMARK    4  A    between atoms: C_4  and  C_6
REMARK    5  A    between atoms: C_4  and  N_23
REMARK    6  A    between atoms: C_11  and  C_14
REMARK    7  A    between atoms: C_24  and  C_26
REMARK    8  A    between atoms: C_28  and  O_34
REMARK    9  A    between atoms: C_30  and  O_32
REMARK   10  A    between atoms: O_32  and  C_33
REMARK   11  A    between atoms: O_34  and  C_35
REMARK                            x       y       z     vdW  Elec       q    Type
REMARK                         _______ _______ _______ _____ _____    ______ ____
ROOT
ATOM      1  C   UNL     1      -1.599  -0.111  -0.073  0.00  0.00    +0.162 C 
ENDROOT
BRANCH   1   2
ATOM      2  C   UNL     1      -2.279   0.553   1.096  0.00  0.00    +0.236 C 
ATOM      3  O   UNL     1      -2.870   1.600   0.940  0.00  0.00    -0.274 OA
ATOM      4  N   UNL     1      -2.231  -0.018   2.316  0.00  0.00    -0.296 N 
ATOM      5  C   UNL     1      -2.800   0.653   3.498  0.00  0.00    +0.113 C 
ATOM      6  C   UNL     1      -3.937  -0.219   4.036  0.00  0.00    +0.054 C 
ATOM      7  C   UNL     1      -3.510  -1.656   4.099  0.00  0.00    -0.043 C 
ATOM      8  C   UNL     1      -2.483  -2.158   3.424  0.00  0.00    -0.004 C 
ATOM      9  C   UNL     1      -1.614  -1.336   2.519  0.00  0.00    +0.135 C 
BRANCH   7  10
ATOM     10  C   UNL     1      -4.245  -2.527   4.928  0.00  0.00    -0.016 C 
ATOM     11  C   UNL     1      -5.409  -2.237   5.628  0.00  0.00    +0.003 A 
ATOM     12  C   UNL     1      -6.190  -1.063   5.739  0.00  0.00    +0.010 A 
ATOM     13  C   UNL     1      -7.303  -1.067   6.513  0.00  0.00    +0.001 A 
ATOM     14  C   UNL     1      -7.707  -2.210   7.211  0.00  0.00    +0.002 A 
ATOM     15  C   UNL     1      -7.009  -3.369   7.153  0.00  0.00    +0.026 A 
ATOM     16  C   UNL     1      -5.830  -3.444   6.363  0.00  0.00    +0.043 A 
ATOM     17  N   UNL     1      -4.990  -4.432   6.144  0.00  0.00    -0.380 N 
ATOM     18  C   UNL     1      -3.934  -3.975   5.236  0.00  0.00    +0.149 C 
ATOM     19  H   UNL     1      -5.061  -5.324   6.520  0.00  0.00    +0.160 HD
ENDBRANCH   7  10
ENDBRANCH   1   2
BRANCH   1  20
ATOM     20  N   UNL     1      -2.261   0.293  -1.317  0.00  0.00    -0.300 N 
ATOM     21  C   UNL     1      -2.198  -0.501  -2.403  0.00  0.00    +0.245 C 
ATOM     22  O   UNL     1      -1.592  -1.554  -2.352  0.00  0.00    -0.270 OA
ATOM     23  H   UNL     1      -2.744   1.133  -1.358  0.00  0.00    +0.150 HD
BRANCH  21  24
ATOM     24  C   UNL     1      -2.865  -0.093  -3.658  0.00  0.00    +0.044 A 
ATOM     25  C   UNL     1      -3.556   1.117  -3.721  0.00  0.00    +0.059 A 
ATOM     26  C   UNL     1      -4.179   1.496  -4.898  0.00  0.00    +0.124 A 
ATOM     27  C   UNL     1      -4.118   0.674  -6.014  0.00  0.00    +0.091 A 
ATOM     28  C   UNL     1      -3.432  -0.531  -5.955  0.00  0.00    +0.124 A 
ATOM     29  C   UNL     1      -2.801  -0.914  -4.784  0.00  0.00    +0.059 A 
BRANCH  28  30
ATOM     30  O   UNL     1      -3.375  -1.333  -7.051  0.00  0.00    -0.495 OA
ATOM     31  C   UNL     1      -4.043  -0.873  -8.227  0.00  0.00    +0.277 C 
ENDBRANCH  28  30
BRANCH  26  32
ATOM     32  O   UNL     1      -4.852   2.675  -4.960  0.00  0.00    -0.495 OA
ATOM     33  C   UNL     1      -5.472   3.004  -6.206  0.00  0.00    +0.277 C 
ENDBRANCH  26  32
ENDBRANCH  21  24
ENDBRANCH   1  20
BRANCH   1  35
ATOM     34  C   UNL     1      -0.039   1.839  -0.143  0.00  0.00    +0.009 C 
ATOM     35  C   UNL     1      -0.130   0.312  -0.116  0.00  0.00    +0.012 C 
ATOM     36  C   UNL     1       0.591  -0.220   1.124  0.00  0.00    +0.009 C 
ENDBRANCH   1  35
TORSDOF 7
