REMARK  Name = ZINC39354657
REMARK  7 active torsions:
REMARK  status: ('A' for Active; 'I' for Inactive)
REMARK    1  A    between atoms: C_1  and  C_2
REMARK    2  A    between atoms: C_2  and  C_33
REMARK    3  A    between atoms: C_4  and  N_21
REMARK    4  A    between atoms: N_9  and  C_13
REMARK    5  A    between atoms: C_16  and  O_19
REMARK    6  A    between atoms: O_19  and  C_20
REMARK    7  A    between atoms: C_22  and  C_24
REMARK                            x       y       z     vdW  Elec       q    Type
REMARK                         _______ _______ _______ _____ _____    ______ ____
ROOT
ATOM      1  C   UNL     1      -0.170   1.585   0.208  0.00  0.00    +0.011 C 
ATOM      2  C   UNL     1      -0.105   0.058   0.133  0.00  0.00    -0.031 C 
ATOM      3  C   UNL     1      -1.526  -0.502   0.098  0.00  0.00    +0.033 C 
ATOM      4  C   UNL     1      -1.486  -2.029  -0.083  0.00  0.00    +0.103 C 
ATOM      5  C   UNL     1      -0.545  -2.566   0.970  0.00  0.00    -0.013 C 
ATOM      6  C   UNL     1      -0.713  -3.525   1.837  0.00  0.00    +0.091 C 
ATOM      7  N   UNL     1       0.375  -3.640   2.687  0.00  0.00    -0.271 N 
ATOM      8  N   UNL     1       1.304  -2.618   2.424  0.00  0.00    -0.246 N 
ATOM      9  C   UNL     1       0.844  -1.984   1.185  0.00  0.00    +0.124 C 
ATOM     10  C   UNL     1       0.668  -0.472   1.345  0.00  0.00    +0.035 C 
ATOM     11  C   UNL     1       0.626  -0.351  -1.147  0.00  0.00    +0.011 C 
ATOM     12  H   UNL     1       0.480  -4.326   3.365  0.00  0.00    +0.169 HD
ENDROOT
BRANCH   8  13
ATOM     13  C   UNL     1       2.429  -2.279   3.184  0.00  0.00    +0.048 A 
ATOM     14  C   UNL     1       2.637  -2.874   4.421  0.00  0.00    +0.028 A 
ATOM     15  C   UNL     1       3.748  -2.538   5.170  0.00  0.00    +0.047 A 
ATOM     16  C   UNL     1       4.655  -1.607   4.687  0.00  0.00    +0.120 A 
ATOM     17  C   UNL     1       4.448  -1.012   3.451  0.00  0.00    +0.047 A 
ATOM     18  C   UNL     1       3.341  -1.350   2.698  0.00  0.00    +0.028 A 
BRANCH  16  19
ATOM     19  O   UNL     1       5.749  -1.277   5.425  0.00  0.00    -0.495 OA
ATOM     20  C   UNL     1       6.641  -0.311   4.866  0.00  0.00    +0.277 C 
ENDBRANCH  16  19
ENDBRANCH   8  13
BRANCH   4  21
ATOM     21  N   UNL     1      -2.826  -2.591   0.107  0.00  0.00    -0.307 N 
ATOM     22  C   UNL     1      -3.152  -3.765  -0.469  0.00  0.00    +0.244 C 
ATOM     23  O   UNL     1      -2.336  -4.356  -1.145  0.00  0.00    -0.273 OA
ATOM     24  H   UNL     1      -3.478  -2.118   0.647  0.00  0.00    +0.149 HD
BRANCH  22  25
ATOM     25  C   UNL     1      -4.530  -4.343  -0.275  0.00  0.00    +0.241 C 
ATOM     26  C   UNL     1      -4.618  -5.089   1.041  0.00  0.00    -0.012 C 
ATOM     27  C   UNL     1      -4.896  -6.346   0.700  0.00  0.00    +0.065 C 
ATOM     28  C   UNL     1      -5.012  -7.204   1.948  0.00  0.00    +0.057 C 
ATOM     29  C   UNL     1      -4.342  -6.378   3.067  0.00  0.00    +0.011 C 
ATOM     30  C   UNL     1      -4.509  -4.936   2.536  0.00  0.00    +0.035 C 
ATOM     31  N   UNL     1      -4.985  -6.450  -0.654  0.00  0.00    -0.158 NA
ATOM     32  N   UNL     1      -4.800  -5.395  -1.270  0.00  0.00    -0.170 NA
ENDBRANCH  22  25
ENDBRANCH   4  21
TORSDOF 4
