REMARK  Name = ZINC01168764
REMARK  9 active torsions:
REMARK  status: ('A' for Active; 'I' for Inactive)
REMARK    1  A    between atoms: C_1  and  C_2
REMARK    2  A    between atoms: C_8  and  C_13
REMARK    3  A    between atoms: C_9  and  O_12
REMARK    4  A    between atoms: C_13  and  C_15
REMARK    5  A    between atoms: C_13  and  N_24
REMARK    6  A    between atoms: C_18  and  N_21
REMARK    7  A    between atoms: N_21  and  C_22
REMARK    8  A    between atoms: N_21  and  C_23
REMARK    9  A    between atoms: N_24  and  C_25
REMARK                            x       y       z     vdW  Elec       q    Type
REMARK                         _______ _______ _______ _____ _____    ______ ____
ROOT
ATOM      1  C   UNL     1       4.790   4.125   0.025  0.00  0.00    +0.136 C 
ENDROOT
BRANCH   1   9
ATOM      2  C   UNL     1      -2.362   3.371   1.280  0.00  0.00    +0.065 C 
ATOM      3  C   UNL     1      -1.035   2.736   0.953  0.00  0.00    +0.039 A 
ATOM      4  C   UNL     1      -0.971   1.356   0.766  0.00  0.00    +0.023 A 
ATOM      5  C   UNL     1       0.224   0.763   0.473  0.00  0.00    +0.012 A 
ATOM      6  C   UNL     1       1.362   1.584   0.359  0.00  0.00    +0.004 A 
ATOM      7  C   UNL     1       2.623   1.046   0.054  0.00  0.00    +0.010 A 
ATOM      8  C   UNL     1       3.702   1.870  -0.048  0.00  0.00    +0.010 A 
ATOM      9  C   UNL     1       3.575   3.243   0.146  0.00  0.00    +0.021 A 
ATOM     10  C   UNL     1       2.365   3.803   0.443  0.00  0.00    +0.148 A 
ATOM     11  C   UNL     1       1.225   2.979   0.557  0.00  0.00    +0.113 A 
ATOM     12  N   UNL     1       0.027   3.496   0.846  0.00  0.00    -0.248 NA
BRANCH  10  13
ATOM     13  O   UNL     1       2.260   5.144   0.629  0.00  0.00    -0.504 OA
ATOM     14  H   UNL     1       2.067   5.639  -0.179  0.00  0.00    +0.292 HD
ENDBRANCH  10  13
ENDBRANCH   1   9
BRANCH   1  15
ATOM     15  C   UNL     1       4.873   4.678  -1.374  0.00  0.00    -0.023 A 
ATOM     16  C   UNL     1       5.279   3.864  -2.415  0.00  0.00    +0.007 A 
ATOM     17  C   UNL     1       5.351   4.366  -3.700  0.00  0.00    +0.023 A 
ATOM     18  C   UNL     1       5.025   5.694  -3.944  0.00  0.00    +0.029 A 
ATOM     19  C   UNL     1       4.623   6.511  -2.895  0.00  0.00    +0.023 A 
ATOM     20  C   UNL     1       4.548   6.001  -1.614  0.00  0.00    +0.007 A 
BRANCH  18  21
ATOM     21  N   UNL     1       5.102   6.207  -5.241  0.00  0.00    -0.336 N 
ATOM     22  C   UNL     1       4.634   7.566  -5.520  0.00  0.00    +0.129 C 
ATOM     23  C   UNL     1       5.650   5.384  -6.322  0.00  0.00    +0.129 C 
ENDBRANCH  18  21
ENDBRANCH   1  15
BRANCH   1  24
ATOM     24  N   UNL     1       5.994   3.341   0.312  0.00  0.00    -0.320 N 
ATOM     25  H   UNL     1       6.531   2.992  -0.417  0.00  0.00    +0.148 HD
BRANCH  24  26
ATOM     26  C   UNL     1       6.366   3.096   1.628  0.00  0.00    +0.097 A 
ATOM     27  C   UNL     1       5.538   3.508   2.667  0.00  0.00    +0.041 A 
ATOM     28  C   UNL     1       5.921   3.258   3.973  0.00  0.00    +0.005 A 
ATOM     29  C   UNL     1       7.124   2.601   4.196  0.00  0.00    +0.018 A 
ATOM     30  C   UNL     1       7.897   2.220   3.118  0.00  0.00    +0.084 A 
ATOM     31  N   UNL     1       7.549   2.444   1.822  0.00  0.00    -0.350 N 
ATOM     32  H   UNL     1       8.140   2.141   1.038  0.00  0.00    +0.166 HD
ENDBRANCH  24  26
ENDBRANCH   1  24
TORSDOF 6
