REMARK  Name = ZINC62815632
REMARK  3 active torsions:
REMARK  status: ('A' for Active; 'I' for Inactive)
REMARK    1  A    between atoms: C_1  and  C_2
REMARK    2  A    between atoms: C_6  and  C_10
REMARK    3  A    between atoms: N_12  and  C_13
REMARK                            x       y       z     vdW  Elec       q    Type
REMARK                         _______ _______ _______ _____ _____    ______ ____
ROOT
ATOM      1  C   UNL     1      -0.638  -4.011   1.159  0.00  0.00    +0.232 C 
ATOM      2  O   UNL     1      -0.831  -4.598   0.115  0.00  0.00    -0.274 OA
ATOM      3  N   UNL     1      -0.402  -4.707   2.289  0.00  0.00    -0.282 N 
ATOM      4  H   UNL     1      -0.183  -4.238   3.110  0.00  0.00    +0.155 HD
ENDROOT
BRANCH   1   9
ATOM      5  C   UNL     1       0.035   1.518  -0.002  0.00  0.00    -0.012 C 
ATOM      6  C   UNL     1       0.043  -0.012  -0.007  0.00  0.00    -0.061 C 
ATOM      7  C   UNL     1      -1.397  -0.530   0.003  0.00  0.00    +0.065 C 
ATOM      8  N   UNL     1      -1.386  -2.000   0.017  0.00  0.00    -0.309 NA
ATOM      9  C   UNL     1      -0.661  -2.505   1.192  0.00  0.00    +0.123 C 
ATOM     10  C   UNL     1       0.772  -1.970   1.173  0.00  0.00    -0.054 C 
ATOM     11  N   UNL     1       0.748  -0.502   1.185  0.00  0.00    +0.383 N 
ATOM     12  H   UNL     1      -2.324  -2.369  -0.015  0.00  0.00    +0.123 HD
ATOM     13  H   UNL     1       1.694  -0.150   1.185  0.00  0.00    -0.085 HD
ATOM     14  H   UNL     1       0.270  -0.181   2.014  0.00  0.00    -0.085 HD
ENDBRANCH   1   9
BRANCH   3  15
ATOM     15  C   UNL     1      -0.472  -6.106   2.278  0.00  0.00    +0.072 A 
ATOM     16  C   UNL     1      -0.071  -6.813   1.153  0.00  0.00    +0.067 A 
ATOM     17  C   UNL     1      -0.141  -8.195   1.144  0.00  0.00    +0.160 A 
ATOM     18  C   UNL     1      -0.611  -8.873   2.259  0.00  0.00    +0.161 A 
ATOM     19  C   UNL     1      -1.011  -8.170   3.382  0.00  0.00    +0.081 A 
ATOM     20  C   UNL     1      -0.937  -6.789   3.397  0.00  0.00    +0.147 A 
ATOM     21  F   UNL     1      -1.321  -6.103   4.495  0.00  0.00    -0.203 F 
ATOM     22  F   UNL     1      -0.680 -10.222   2.248  0.00  0.00    -0.202 F 
ATOM     23  F   UNL     1       0.248  -8.883   0.049  0.00  0.00    -0.202 F 
ENDBRANCH   3  15
TORSDOF 2
