REMARK  Name = ZINC28060414
REMARK  2 active torsions:
REMARK  status: ('A' for Active; 'I' for Inactive)
REMARK    1  A    between atoms: C_5  and  C_7
REMARK    2  A    between atoms: C_24  and  C_26
REMARK                            x       y       z     vdW  Elec       q    Type
REMARK                         _______ _______ _______ _____ _____    ______ ____
ROOT
ATOM      1  C   UNL     1       1.946   1.403  -0.288  0.00  0.00    +0.237 C 
ATOM      2  C   UNL     1       1.158   2.676  -0.074  0.00  0.00    +0.026 C 
ATOM      3  C   UNL     1      -0.175   2.631  -0.118  0.00  0.00    +0.050 C 
ATOM      4  C   UNL     1      -0.828   1.324  -0.369  0.00  0.00    +0.038 A 
ATOM      5  C   UNL     1      -2.155   1.239  -0.773  0.00  0.00    +0.013 A 
ATOM      6  C   UNL     1      -2.722  -0.002  -0.993  0.00  0.00    +0.001 A 
ATOM      7  C   UNL     1      -1.975  -1.153  -0.812  0.00  0.00    +0.004 A 
ATOM      8  C   UNL     1      -0.653  -1.077  -0.410  0.00  0.00    +0.046 A 
ATOM      9  C   UNL     1      -0.073   0.157  -0.188  0.00  0.00    +0.131 A 
ATOM     10  O   UNL     1       1.222   0.275   0.201  0.00  0.00    -0.479 OA
ATOM     11  N   UNL     1      -0.968   3.768   0.071  0.00  0.00    -0.282 N 
ATOM     12  C   UNL     1      -0.349   4.896   0.584  0.00  0.00    +0.240 A 
ATOM     13  N   UNL     1      -0.840   5.996   1.077  0.00  0.00    -0.092 NA
ATOM     14  N   UNL     1       0.112   6.780   1.454  0.00  0.00    -0.021 NA
ATOM     15  N   UNL     1       1.262   6.235   1.225  0.00  0.00    -0.042 NA
ATOM     16  N   UNL     1       1.005   4.992   0.647  0.00  0.00    -0.201 N 
ATOM     17  C   UNL     1       1.915   3.957   0.179  0.00  0.00    +0.181 C 
ATOM     18  H   UNL     1      -2.038   3.742  -0.186  0.00  0.00    +0.155 HD
ENDROOT
BRANCH   1  23
ATOM     19  C   UNL     1       1.483   0.495  -3.923  0.00  0.00    +0.001 A 
ATOM     20  C   UNL     1       2.690   0.896  -4.465  0.00  0.00    +0.003 A 
ATOM     21  C   UNL     1       3.658   1.461  -3.657  0.00  0.00    +0.039 A 
ATOM     22  C   UNL     1       3.418   1.626  -2.303  0.00  0.00    +0.130 A 
ATOM     23  C   UNL     1       2.209   1.224  -1.761  0.00  0.00    +0.032 A 
ATOM     24  C   UNL     1       1.245   0.654  -2.571  0.00  0.00    +0.010 A 
ATOM     25  F   UNL     1       4.363   2.179  -1.511  0.00  0.00    -0.205 F 
ENDBRANCH   1  23
BRANCH  17  26
ATOM     26  C   UNL     1       2.572   4.409  -1.099  0.00  0.00    +0.019 A 
ATOM     27  C   UNL     1       3.867   4.742  -1.322  0.00  0.00    +0.013 A 
ATOM     28  C   UNL     1       4.250   5.130  -2.592  0.00  0.00    +0.008 A 
ATOM     29  C   UNL     1       3.317   5.177  -3.575  0.00  0.00    +0.045 A 
ATOM     30  S   UNL     1       1.845   4.654  -2.711  0.00  0.00    -0.099 S 
ENDBRANCH  17  26
TORSDOF 2
