REMARK  Name = ZINC64015369
REMARK  6 active torsions:
REMARK  status: ('A' for Active; 'I' for Inactive)
REMARK    1  A    between atoms: C_1  and  C_2
REMARK    2  A    between atoms: C_2  and  C_3
REMARK    3  A    between atoms: C_5  and  C_8
REMARK    4  A    between atoms: C_23  and  C_25
REMARK    5  A    between atoms: C_28  and  O_32
REMARK    6  A    between atoms: O_32  and  C_33
REMARK                            x       y       z     vdW  Elec       q    Type
REMARK                         _______ _______ _______ _____ _____    ______ ____
ROOT
ATOM      1  C   UNL     1       3.521  -2.180  -3.063  0.00  0.00    +0.269 C 
ATOM      2  O   UNL     1       4.509  -1.963  -2.391  0.00  0.00    -0.268 OA
ATOM      3  N   UNL     1       3.643  -2.413  -4.385  0.00  0.00    -0.286 N 
ATOM      4  C   UNL     1       2.439  -2.535  -5.214  0.00  0.00    +0.113 C 
ATOM      5  C   UNL     1       2.440  -3.904  -5.920  0.00  0.00    +0.052 C 
ATOM      6  C   UNL     1       3.829  -4.103  -6.474  0.00  0.00    -0.035 C 
ATOM      7  C   UNL     1       4.252  -4.419  -7.692  0.00  0.00    -0.001 A 
ATOM      8  C   UNL     1       3.524  -4.795  -8.915  0.00  0.00    +0.010 A 
ATOM      9  C   UNL     1       4.285  -5.039 -10.014  0.00  0.00    +0.001 A 
ATOM     10  C   UNL     1       5.681  -4.947 -10.020  0.00  0.00    +0.002 A 
ATOM     11  C   UNL     1       6.432  -4.617  -8.939  0.00  0.00    +0.026 A 
ATOM     12  C   UNL     1       5.745  -4.345  -7.721  0.00  0.00    +0.043 A 
ATOM     13  N   UNL     1       6.207  -4.033  -6.546  0.00  0.00    -0.375 N 
ATOM     14  C   UNL     1       5.079  -3.931  -5.619  0.00  0.00    +0.131 C 
ATOM     15  C   UNL     1       4.982  -2.535  -4.982  0.00  0.00    +0.136 C 
ATOM     16  H   UNL     1       7.140  -3.891  -6.322  0.00  0.00    +0.160 HD
ENDROOT
BRANCH  15  17
ATOM     17  C   UNL     1       6.033  -2.385  -3.913  0.00  0.00    +0.011 A 
ATOM     18  C   UNL     1       6.559  -3.507  -3.299  0.00  0.00    +0.012 A 
ATOM     19  C   UNL     1       7.523  -3.372  -2.319  0.00  0.00    +0.046 A 
ATOM     20  C   UNL     1       7.964  -2.109  -1.948  0.00  0.00    +0.123 A 
ATOM     21  C   UNL     1       7.436  -0.984  -2.564  0.00  0.00    +0.084 A 
ATOM     22  C   UNL     1       6.475  -1.124  -3.550  0.00  0.00    +0.132 A 
ATOM     23  F   UNL     1       5.963  -0.029  -4.154  0.00  0.00    -0.205 F 
BRANCH  20  24
ATOM     24  O   UNL     1       8.911  -1.975  -0.984  0.00  0.00    -0.495 OA
ATOM     25  C   UNL     1       9.318  -0.646  -0.653  0.00  0.00    +0.277 C 
ENDBRANCH  20  24
ENDBRANCH  15  17
BRANCH   1  28
ATOM     26  C   UNL     1       0.578  -2.131  -0.872  0.00  0.00    +0.138 A 
ATOM     27  C   UNL     1       1.911  -2.082  -1.043  0.00  0.00    +0.080 A 
ATOM     28  C   UNL     1       2.180  -2.190  -2.429  0.00  0.00    +0.168 A 
ATOM     29  N   UNL     1       1.031  -2.299  -3.052  0.00  0.00    -0.073 NA
ATOM     30  O   UNL     1       0.005  -2.269  -2.077  0.00  0.00    -0.359 OA
BRANCH  26  32
ATOM     31  C   UNL     1      -0.467  -0.589   0.765  0.00  0.00    +0.012 C 
ATOM     32  C   UNL     1      -0.146  -2.051   0.447  0.00  0.00    +0.074 C 
ENDBRANCH  26  32
ENDBRANCH   1  28
TORSDOF 4
