REMARK  Name = ZINC39676459
REMARK  8 active torsions:
REMARK  status: ('A' for Active; 'I' for Inactive)
REMARK    1  A    between atoms: C_1  and  S_2
REMARK    2  A    between atoms: S_2  and  C_3
REMARK    3  A    between atoms: C_3  and  C_4
REMARK    4  A    between atoms: C_4  and  C_5
REMARK    5  A    between atoms: C_9  and  C_18
REMARK    6  A    between atoms: N_20  and  C_21
REMARK    7  A    between atoms: C_21  and  C_22
REMARK    8  A    between atoms: C_22  and  C_23
REMARK                            x       y       z     vdW  Elec       q    Type
REMARK                         _______ _______ _______ _____ _____    ______ ____
ROOT
ATOM      1  C   UNL     1       1.647  -2.356  -2.638  0.00  0.00    +0.216 C 
ATOM      2  O   UNL     1       2.042  -1.409  -3.285  0.00  0.00    -0.276 OA
ATOM      3  N   UNL     1       1.863  -3.611  -3.079  0.00  0.00    -0.300 N 
ATOM      4  C   UNL     1       1.454  -4.882  -2.437  0.00  0.00    +0.121 C 
ATOM      5  C   UNL     1       1.009  -5.786  -3.608  0.00  0.00    +0.100 C 
ATOM      6  C   UNL     1       1.743  -5.224  -4.838  0.00  0.00    -0.004 C 
ATOM      7  C   UNL     1       2.559  -4.031  -4.318  0.00  0.00    +0.115 C 
ATOM      8  C   UNL     1       0.737  -4.751  -5.883  0.00  0.00    -0.010 C 
ATOM      9  C   UNL     1       1.489  -4.249  -7.119  0.00  0.00    -0.082 C 
ATOM     10  N   UNL     1       2.318  -5.332  -7.662  0.00  0.00    +0.379 N 
ATOM     11  C   UNL     1       3.343  -5.718  -6.684  0.00  0.00    -0.082 C 
ATOM     12  C   UNL     1       2.669  -6.281  -5.430  0.00  0.00    -0.010 C 
ATOM     13  H   UNL     1       1.735  -6.130  -7.868  0.00  0.00    -0.086 HD
ATOM     14  H   UNL     1       2.765  -5.018  -8.510  0.00  0.00    -0.086 HD
ENDROOT
BRANCH   5  15
ATOM     15  C   UNL     1      -0.483  -5.700  -3.800  0.00  0.00    +0.218 C 
ATOM     16  O   UNL     1      -1.073  -4.678  -3.519  0.00  0.00    -0.275 OA
ATOM     17  N   UNL     1      -1.163  -6.758  -4.284  0.00  0.00    -0.315 N 
ATOM     18  H   UNL     1      -0.691  -7.576  -4.509  0.00  0.00    +0.149 HD
BRANCH  17  19
ATOM     19  C   UNL     1      -2.613  -6.675  -4.471  0.00  0.00    +0.109 C 
BRANCH  19  20
ATOM     20  C   UNL     1      -3.133  -8.002  -5.028  0.00  0.00    +0.056 C 
BRANCH  20  21
ATOM     21  C   UNL     1      -4.625  -7.916  -5.220  0.00  0.00    -0.021 A 
ATOM     22  C   UNL     1      -5.324  -7.375  -6.388  0.00  0.00    +0.004 A 
ATOM     23  C   UNL     1      -4.903  -6.814  -7.596  0.00  0.00    +0.030 A 
ATOM     24  C   UNL     1      -5.840  -6.390  -8.513  0.00  0.00    +0.042 A 
ATOM     25  C   UNL     1      -7.196  -6.519  -8.242  0.00  0.00    +0.022 A 
ATOM     26  C   UNL     1      -7.626  -7.070  -7.055  0.00  0.00    +0.027 A 
ATOM     27  C   UNL     1      -6.698  -7.505  -6.115  0.00  0.00    +0.047 A 
ATOM     28  N   UNL     1      -6.811  -8.083  -4.870  0.00  0.00    -0.360 N 
ATOM     29  C   UNL     1      -5.566  -8.326  -4.355  0.00  0.00    +0.087 A 
ATOM     30 CL   UNL     1      -5.322  -5.692 -10.015  0.00  0.00    -0.084 Cl
ATOM     31  H   UNL     1      -7.648  -8.290  -4.425  0.00  0.00    +0.165 HD
ENDBRANCH  20  21
ENDBRANCH  19  20
ENDBRANCH  17  19
ENDBRANCH   5  15
BRANCH   1  32
ATOM     32  C   UNL     1       0.913  -2.128  -1.341  0.00  0.00    +0.106 C 
BRANCH  32  33
ATOM     33  C   UNL     1       0.803  -0.626  -1.074  0.00  0.00    +0.078 C 
BRANCH  33  35
ATOM     34  C   UNL     1      -0.126   1.453   0.654  0.00  0.00    +0.084 C 
ATOM     35  S   UNL     1      -0.080  -0.352   0.487  0.00  0.00    -0.164 S 
ENDBRANCH  33  35
ENDBRANCH  32  33
ENDBRANCH   1  32
TORSDOF 7
