REMARK  Name = ZINC28051140
REMARK  4 active torsions:
REMARK  status: ('A' for Active; 'I' for Inactive)
REMARK    1  A    between atoms: C_4  and  N_7
REMARK    2  A    between atoms: C_11  and  N_15
REMARK    3  A    between atoms: N_20  and  C_22
REMARK    4  A    between atoms: N_27  and  C_30
REMARK                            x       y       z     vdW  Elec       q    Type
REMARK                         _______ _______ _______ _____ _____    ______ ____
ROOT
ATOM      1  N   UNL     1       5.809  -1.001   3.978  0.00  0.00    +0.396 N 
ATOM      2  C   UNL     1       6.194  -1.229   5.354  0.00  0.00    -0.076 C 
ATOM      3  C   UNL     1       7.033  -0.061   5.907  0.00  0.00    -0.017 C 
ATOM      4  C   UNL     1       8.049   0.454   4.872  0.00  0.00    +0.013 C 
ATOM      5  C   UNL     1       8.718  -0.667   4.116  0.00  0.00    +0.083 C 
ATOM      6  N   UNL     1       7.945  -0.939   2.881  0.00  0.00    -0.308 NA
ATOM      7  C   UNL     1       6.782  -1.686   3.103  0.00  0.00    +0.010 C 
ATOM      8  H   UNL     1       5.815  -0.011   3.782  0.00  0.00    -0.079 HD
ENDROOT
BRANCH   1  13
ATOM      9  N   UNL     1       2.886  -0.467   2.418  0.00  0.00    -0.240 N 
ATOM     10  C   UNL     1       2.482  -0.194   3.664  0.00  0.00    +0.221 C 
ATOM     11  O   UNL     1       1.509   0.467   3.959  0.00  0.00    -0.275 OA
ATOM     12  C   UNL     1       3.431  -0.843   4.648  0.00  0.00    +0.090 C 
ATOM     13  C   UNL     1       4.465  -1.545   3.744  0.00  0.00    +0.030 C 
ATOM     14  C   UNL     1       3.988  -1.224   2.345  0.00  0.00    +0.209 C 
ATOM     15  O   UNL     1       4.521  -1.591   1.319  0.00  0.00    -0.277 OA
BRANCH   9  19
ATOM     16  C   UNL     1      -0.019   1.526   0.010  0.00  0.00    +0.000 C 
ATOM     17  C   UNL     1       1.417   2.055  -0.000  0.00  0.00    +0.002 C 
ATOM     18  C   UNL     1       2.157   1.548   1.239  0.00  0.00    +0.023 C 
ATOM     19  C   UNL     1       2.178   0.019   1.231  0.00  0.00    +0.084 C 
ATOM     20  C   UNL     1       0.742  -0.511   1.242  0.00  0.00    +0.023 C 
ATOM     21  C   UNL     1       0.002  -0.004   0.002  0.00  0.00    +0.002 C 
ENDBRANCH   9  19
ENDBRANCH   1  13
BRANCH   6  22
ATOM     22  C   UNL     1       8.790  -1.572   1.860  0.00  0.00    +0.151 C 
ATOM     23  C   UNL     1       9.999  -0.675   1.524  0.00  0.00    +0.124 C 
ATOM     24  C   UNL     1       9.813  -0.366   0.054  0.00  0.00    +0.224 C 
ATOM     25  O   UNL     1      10.553   0.319  -0.618  0.00  0.00    -0.275 OA
ATOM     26  N   UNL     1       8.703  -0.970  -0.386  0.00  0.00    -0.238 N 
ATOM     27  C   UNL     1       8.047  -1.679   0.546  0.00  0.00    +0.240 C 
ATOM     28  O   UNL     1       7.024  -2.305   0.367  0.00  0.00    -0.273 OA
BRANCH  26  29
ATOM     29  C   UNL     1       8.241  -0.868  -1.773  0.00  0.00    +0.084 C 
ATOM     30  C   UNL     1       9.314  -1.426  -2.710  0.00  0.00    +0.023 C 
ATOM     31  C   UNL     1       8.832  -1.319  -4.158  0.00  0.00    +0.002 C 
ATOM     32  C   UNL     1       8.569   0.148  -4.501  0.00  0.00    +0.000 C 
ATOM     33  C   UNL     1       7.496   0.706  -3.564  0.00  0.00    +0.002 C 
ATOM     34  C   UNL     1       7.978   0.600  -2.116  0.00  0.00    +0.023 C 
ENDBRANCH  26  29
ENDBRANCH   6  22
TORSDOF 4
