REMARK  Name = ZINC09705017
REMARK  1 active torsions:
REMARK  status: ('A' for Active; 'I' for Inactive)
REMARK    1  A    between atoms: C_6  and  N_7
REMARK                            x       y       z     vdW  Elec       q    Type
REMARK                         _______ _______ _______ _____ _____    ______ ____
ROOT
ATOM      1  N   UNL     1      -1.202  -0.723   0.010  0.00  0.00    -0.209 N 
ATOM      2  C   UNL     1      -1.255  -2.077   0.009  0.00  0.00    +0.232 C 
ATOM      3  O   UNL     1      -0.330  -2.845   0.162  0.00  0.00    -0.274 OA
ATOM      4  C   UNL     1      -2.691  -2.427  -0.221  0.00  0.00    +0.109 C 
ATOM      5  C   UNL     1      -3.450  -1.222   0.342  0.00  0.00    +0.152 C 
ATOM      6  C   UNL     1      -2.413  -0.130   0.026  0.00  0.00    +0.240 C 
ATOM      7  O   UNL     1      -2.643   1.043  -0.174  0.00  0.00    -0.274 OA
ATOM      8  S   UNL     1      -3.532  -1.321   2.159  0.00  0.00    -0.093 S 
ATOM      9  C   UNL     1      -3.824  -3.043   2.472  0.00  0.00    +0.088 A 
ATOM     10  C   UNL     1      -3.623  -3.971   1.522  0.00  0.00    +0.032 A 
ATOM     11  S   UNL     1      -4.035  -5.492   2.339  0.00  0.00    -0.030 S 
ATOM     12  C   UNL     1      -4.452  -4.859   3.840  0.00  0.00    +0.289 A 
ATOM     13  O   UNL     1      -4.832  -5.454   4.833  0.00  0.00    -0.260 OA
ATOM     14  N   UNL     1      -4.264  -3.536   3.680  0.00  0.00    -0.311 N 
ATOM     15  H   UNL     1      -4.440  -2.929   4.416  0.00  0.00    +0.170 HD
ATOM     16  C   UNL     1      -3.171  -3.791   0.136  0.00  0.00    +0.017 C 
ATOM     17  C   UNL     1      -4.368  -4.178  -0.770  0.00  0.00    +0.013 C 
ATOM     18  C   UNL     1      -3.728  -4.970  -1.935  0.00  0.00    +0.001 C 
ATOM     19  C   UNL     1      -2.628  -5.793  -1.222  0.00  0.00    +0.001 C 
ATOM     20  C   UNL     1      -2.065  -4.831  -0.159  0.00  0.00    +0.013 C 
ENDROOT
BRANCH   1  26
ATOM     21  C   UNL     1      -0.017   1.384   0.010  0.00  0.00    +0.025 A 
ATOM     22  C   UNL     1       1.171   2.090   0.002  0.00  0.00    +0.017 A 
ATOM     23  C   UNL     1       2.378   1.414  -0.013  0.00  0.00    +0.018 A 
ATOM     24  C   UNL     1       2.399   0.031  -0.022  0.00  0.00    +0.017 A 
ATOM     25  C   UNL     1       1.215  -0.679  -0.014  0.00  0.00    +0.025 A 
ATOM     26  C   UNL     1       0.002  -0.004   0.002  0.00  0.00    +0.044 A 
ATOM     27 BR   UNL     1       4.002   2.384  -0.024  0.00  0.00    -0.050 Br
ENDBRANCH   1  26
TORSDOF 1
