REMARK  Name = ZINC01169088
REMARK  4 active torsions:
REMARK  status: ('A' for Active; 'I' for Inactive)
REMARK    1  A    between atoms: C_1  and  C_2
REMARK    2  A    between atoms: C_14  and  S_17
REMARK    3  A    between atoms: S_17  and  C_18
REMARK    4  A    between atoms: C_20  and  C_22
REMARK                            x       y       z     vdW  Elec       q    Type
REMARK                         _______ _______ _______ _____ _____    ______ ____
ROOT
ATOM      1  C   UNL     1      -0.985   5.261  -2.220  0.00  0.00    +0.110 C 
ATOM      2  C   UNL     1      -0.498   5.965  -0.980  0.00  0.00    +0.220 C 
ATOM      3  O   UNL     1      -0.489   7.176  -0.933  0.00  0.00    -0.275 OA
ATOM      4  N   UNL     1      -0.071   5.247   0.079  0.00  0.00    -0.228 N 
ATOM      5  C   UNL     1      -0.075   3.847   0.039  0.00  0.00    +0.050 A 
ATOM      6  C   UNL     1      -1.256   3.130   0.037  0.00  0.00    +0.024 A 
ATOM      7  C   UNL     1      -1.223   1.747   0.017  0.00  0.00    +0.002 A 
ATOM      8  C   UNL     1      -0.013   1.076   0.008  0.00  0.00    +0.001 A 
ATOM      9  C   UNL     1       1.177   1.778   0.000  0.00  0.00    +0.012 A 
ATOM     10  C   UNL     1       1.157   3.168   0.013  0.00  0.00    +0.029 A 
ATOM     11  C   UNL     1       2.405   3.959  -0.013  0.00  0.00    +0.156 A 
ATOM     12  C   UNL     1       2.572   5.032   0.892  0.00  0.00    +0.248 A 
ATOM     13  N   UNL     1       3.691   5.733   0.847  0.00  0.00    -0.184 NA
ATOM     14  C   UNL     1       4.627   5.409  -0.041  0.00  0.00    +0.212 A 
ATOM     15  N   UNL     1       4.452   4.396  -0.880  0.00  0.00    -0.122 NA
ATOM     16  N   UNL     1       3.376   3.688  -0.872  0.00  0.00    -0.141 NA
ATOM     17  O   UNL     1       1.595   5.317   1.786  0.00  0.00    -0.445 OA
ATOM     18  C   UNL     1       0.404   5.914   1.287  0.00  0.00    +0.338 C 
ENDROOT
BRANCH  18  19
ATOM     19  C   UNL     1      -0.666   5.834   2.345  0.00  0.00    +0.166 A 
ATOM     20  C   UNL     1      -0.907   6.758   3.292  0.00  0.00    +0.051 A 
ATOM     21  C   UNL     1      -1.990   6.281   4.065  0.00  0.00    +0.056 A 
ATOM     22  C   UNL     1      -2.347   5.093   3.543  0.00  0.00    +0.165 A 
ATOM     23  O   UNL     1      -1.546   4.830   2.498  0.00  0.00    -0.449 OA
ATOM     24  I   UNL     1      -3.896   3.865   4.239  0.00  0.00    -0.001 I 
ENDBRANCH  18  19
BRANCH  14  25
ATOM     25  S   UNL     1       6.121   6.341  -0.105  0.00  0.00    -0.088 S 
ATOM     26  C   UNL     1       6.973   5.476  -1.447  0.00  0.00    +0.093 C 
ENDBRANCH  14  25
TORSDOF 2
