REMARK  Name = ZINC34757774
REMARK  9 active torsions:
REMARK  status: ('A' for Active; 'I' for Inactive)
REMARK    1  A    between atoms: C_1  and  C_2
REMARK    2  A    between atoms: C_2  and  N_3
REMARK    3  A    between atoms: N_3  and  C_4
REMARK    4  A    between atoms: C_4  and  C_5
REMARK    5  A    between atoms: C_6  and  C_8
REMARK    6  A    between atoms: C_8  and  S_9
REMARK    7  A    between atoms: S_9  and  C_10
REMARK    8  A    between atoms: N_25  and  C_28
REMARK    9  A    between atoms: C_28  and  C_29
REMARK                            x       y       z     vdW  Elec       q    Type
REMARK                         _______ _______ _______ _____ _____    ______ ____
ROOT
ATOM      1  C   UNL     1      -1.445  -0.395   5.307  0.00  0.00    +0.191 A 
ATOM      2  N   UNL     1      -1.960  -0.608   6.512  0.00  0.00    -0.206 NA
ATOM      3  C   UNL     1      -1.229  -0.532   7.612  0.00  0.00    +0.134 A 
ATOM      4  C   UNL     1       0.153  -0.213   7.504  0.00  0.00    +0.051 A 
ATOM      5  C   UNL     1       1.147  -0.078   8.583  0.00  0.00    -0.025 A 
ATOM      6  C   UNL     1       2.400   0.234   8.219  0.00  0.00    -0.004 A 
ATOM      7  S   UNL     1       2.348   0.363   6.446  0.00  0.00    -0.073 S 
ATOM      8  C   UNL     1       0.631  -0.001   6.199  0.00  0.00    +0.115 A 
ATOM      9  N   UNL     1      -0.161  -0.100   5.148  0.00  0.00    -0.214 NA
ATOM     10  C   UNL     1       3.324   0.351   9.401  0.00  0.00    +0.043 C 
ATOM     11  C   UNL     1       2.382   0.491  10.617  0.00  0.00    +0.010 C 
ATOM     12  C   UNL     1       1.109  -0.213  10.108  0.00  0.00    +0.037 C 
ATOM     13  N   UNL     1      -1.801  -0.760   8.850  0.00  0.00    -0.318 N 
ATOM     14  C   UNL     1      -2.466   0.326   9.587  0.00  0.00    +0.088 C 
ATOM     15  C   UNL     1      -3.852  -0.161  10.023  0.00  0.00    -0.059 C 
ATOM     16  N   UNL     1      -3.714  -1.412  10.780  0.00  0.00    +0.384 N 
ATOM     17  C   UNL     1      -3.181  -2.467   9.909  0.00  0.00    -0.059 C 
ATOM     18  C   UNL     1      -1.766  -2.096   9.465  0.00  0.00    +0.088 C 
ATOM     19  H   UNL     1      -3.085  -1.267  11.556  0.00  0.00    -0.081 HD
ENDROOT
BRANCH   1  20
ATOM     20  S   UNL     1      -2.485  -0.514   3.890  0.00  0.00    -0.077 S 
BRANCH  20  21
ATOM     21  C   UNL     1      -1.375  -0.162   2.499  0.00  0.00    +0.173 C 
BRANCH  21  23
ATOM     22  N   UNL     1      -1.525  -0.004   0.035  0.00  0.00    -0.301 N 
ATOM     23  C   UNL     1      -2.148  -0.232   1.208  0.00  0.00    +0.226 C 
ATOM     24  O   UNL     1      -3.333  -0.494   1.224  0.00  0.00    -0.275 OA
BRANCH  22  26
ATOM     25  C   UNL     1       0.093   1.828   0.118  0.00  0.00    +0.024 C 
ATOM     26  C   UNL     1      -0.095   0.313   0.016  0.00  0.00    +0.104 C 
ENDBRANCH  22  26
BRANCH  22  27
ATOM     27  C   UNL     1      -2.277  -0.072  -1.220  0.00  0.00    +0.104 C 
ATOM     28  C   UNL     1      -2.229  -1.500  -1.766  0.00  0.00    +0.024 C 
ENDBRANCH  22  27
ENDBRANCH  21  23
ENDBRANCH  20  21
ENDBRANCH   1  20
BRANCH  16  29
ATOM     29  C   UNL     1      -5.030  -1.819  11.291  0.00  0.00    -0.043 C 
BRANCH  29  30
ATOM     30  C   UNL     1      -4.873  -3.034  12.169  0.00  0.00    -0.064 A 
ATOM     31  C   UNL     1      -4.946  -4.300  11.618  0.00  0.00    +0.003 A 
ATOM     32  C   UNL     1      -4.802  -5.414  12.423  0.00  0.00    +0.020 A 
ATOM     33  C   UNL     1      -4.585  -5.263  13.781  0.00  0.00    +0.041 A 
ATOM     34  C   UNL     1      -4.512  -3.996  14.332  0.00  0.00    +0.020 A 
ATOM     35  C   UNL     1      -4.650  -2.882  13.525  0.00  0.00    +0.003 A 
ATOM     36 CL   UNL     1      -4.405  -6.662  14.793  0.00  0.00    -0.084 Cl
ENDBRANCH  29  30
ENDBRANCH  16  29
TORSDOF 7
