REMARK  Name = ZINC40055693
REMARK  4 active torsions:
REMARK  status: ('A' for Active; 'I' for Inactive)
REMARK    1  A    between atoms: C_1  and  C_2
REMARK    2  A    between atoms: C_9  and  C_26
REMARK    3  A    between atoms: C_17  and  C_24
REMARK    4  A    between atoms: C_29  and  N_32
REMARK                            x       y       z     vdW  Elec       q    Type
REMARK                         _______ _______ _______ _____ _____    ______ ____
ROOT
ATOM      1  C   UNL     1      -0.018   1.503   0.010  0.00  0.00    +0.045 C 
ATOM      2  C   UNL     1       0.002  -0.004   0.002  0.00  0.00    -0.032 A 
ATOM      3  C   UNL     1       0.006  -0.699  -1.200  0.00  0.00    +0.008 A 
ATOM      4  C   UNL     1       0.025  -2.082  -1.163  0.00  0.00    +0.044 A 
ATOM      5  C   UNL     1       0.039  -2.725   0.070  0.00  0.00    +0.129 A 
ATOM      6  N   UNL     1       0.035  -2.027   1.194  0.00  0.00    -0.240 NA
ATOM      7  C   UNL     1       0.023  -0.708   1.190  0.00  0.00    +0.116 A 
ATOM      8  N   UNL     1       0.058  -4.117   0.121  0.00  0.00    -0.238 N 
ATOM      9  C   UNL     1      -0.035  -4.938   1.339  0.00  0.00    +0.151 C 
ATOM     10  C   UNL     1       0.031  -6.358   0.879  0.00  0.00    +0.072 A 
ATOM     11  C   UNL     1      -0.003  -7.619   1.627  0.00  0.00    +0.199 A 
ATOM     12  O   UNL     1      -0.274  -7.684   2.813  0.00  0.00    -0.287 OA
ATOM     13  C   UNL     1       0.324  -8.808   0.801  0.00  0.00    +0.066 A 
ATOM     14  C   UNL     1       0.529 -10.050   1.402  0.00  0.00    +0.035 A 
ATOM     15  C   UNL     1       0.837 -11.143   0.621  0.00  0.00    +0.045 A 
ATOM     16  C   UNL     1       0.942 -11.005  -0.757  0.00  0.00    -0.029 A 
ATOM     17  C   UNL     1       0.741  -9.784  -1.361  0.00  0.00    +0.051 A 
ATOM     18  C   UNL     1       0.425  -8.664  -0.592  0.00  0.00    +0.140 A 
ATOM     19  O   UNL     1       0.223  -7.479  -1.212  0.00  0.00    -0.450 OA
ATOM     20  C   UNL     1       0.146  -6.349  -0.482  0.00  0.00    +0.199 A 
ATOM     21  C   UNL     1       0.158  -4.948  -0.936  0.00  0.00    +0.288 C 
ATOM     22  O   UNL     1       0.249  -4.592  -2.094  0.00  0.00    -0.266 OA
ATOM     23  C   UNL     1       1.281 -12.206  -1.602  0.00  0.00    +0.045 C 
ATOM     24 CL   UNL     1       1.092 -12.693   1.359  0.00  0.00    -0.083 Cl
ENDROOT
BRANCH   9  25
ATOM     25  C   UNL     1      -1.342  -4.679   2.043  0.00  0.00    -0.022 A 
ATOM     26  C   UNL     1      -2.499  -4.496   1.308  0.00  0.00    +0.008 A 
ATOM     27  C   UNL     1      -3.698  -4.258   1.953  0.00  0.00    +0.033 A 
ATOM     28  C   UNL     1      -3.740  -4.203   3.334  0.00  0.00    +0.126 A 
ATOM     29  C   UNL     1      -2.584  -4.386   4.069  0.00  0.00    +0.033 A 
ATOM     30  C   UNL     1      -1.386  -4.629   3.424  0.00  0.00    +0.008 A 
BRANCH  28  31
ATOM     31  N   UNL     1      -5.024  -3.947   4.025  0.00  0.00    +0.056 N 
ATOM     32  O   UNL     1      -6.035  -3.786   3.382  0.00  0.00    -0.126 OA
ATOM     33  O   UNL     1      -5.061  -3.899   5.233  0.00  0.00    -0.126 OA
ENDBRANCH  28  31
ENDBRANCH   9  25
TORSDOF 2
