REMARK  Name = ZINC36295887
REMARK  4 active torsions:
REMARK  status: ('A' for Active; 'I' for Inactive)
REMARK    1  A    between atoms: C_3  and  S_9
REMARK    2  A    between atoms: S_9  and  N_12
REMARK    3  A    between atoms: N_12  and  C_13
REMARK    4  A    between atoms: C_17  and  N_19
REMARK                            x       y       z     vdW  Elec       q    Type
REMARK                         _______ _______ _______ _____ _____    ______ ____
ROOT
ATOM      1  S   UNL     1       3.890   2.319  -0.023  0.00  0.00    +0.094 S 
ATOM      2  O   UNL     1       4.688   1.764  -1.059  0.00  0.00    -0.148 OA
ATOM      3  O   UNL     1       3.540   3.696   0.014  0.00  0.00    -0.148 OA
ENDROOT
BRANCH   1   6
ATOM      4  C   UNL     1      -0.017   1.378   0.010  0.00  0.00    +0.004 A 
ATOM      5  C   UNL     1       1.170   2.087   0.002  0.00  0.00    +0.032 A 
ATOM      6  C   UNL     1       2.378   1.415  -0.013  0.00  0.00    +0.147 A 
ATOM      7  C   UNL     1       2.399   0.030  -0.021  0.00  0.00    +0.168 A 
ATOM      8  C   UNL     1       1.209  -0.680  -0.013  0.00  0.00    +0.078 A 
ATOM      9  C   UNL     1       0.002  -0.004   0.002  0.00  0.00    +0.023 A 
ATOM     10 CL   UNL     1       1.233  -2.415  -0.023  0.00  0.00    -0.081 Cl
ATOM     11  F   UNL     1       3.579  -0.628  -0.036  0.00  0.00    -0.202 F 
ENDBRANCH   1   6
BRANCH   1  12
ATOM     12  N   UNL     1       4.667   1.989   1.401  0.00  0.00    -0.098 NA
BRANCH  12  13
ATOM     13  C   UNL     1       5.907   2.575   1.673  0.00  0.00    +0.076 A 
ATOM     14  C   UNL     1       6.485   3.439   0.751  0.00  0.00    +0.029 A 
ATOM     15  C   UNL     1       7.710   4.019   1.018  0.00  0.00    +0.042 A 
ATOM     16  C   UNL     1       8.365   3.742   2.204  0.00  0.00    +0.144 A 
ATOM     17  C   UNL     1       7.792   2.878   3.131  0.00  0.00    +0.062 A 
ATOM     18  C   UNL     1       6.559   2.299   2.867  0.00  0.00    +0.052 A 
ATOM     19  F   UNL     1       9.564   4.310   2.462  0.00  0.00    -0.204 F 
BRANCH  17  20
ATOM     20  N   UNL     1       8.454   2.598   4.330  0.00  0.00    -0.356 N 
ATOM     21  H   UNL     1       9.315   3.006   4.516  0.00  0.00    +0.142 HD
ATOM     22  H   UNL     1       8.053   1.995   4.976  0.00  0.00    +0.142 HD
ENDBRANCH  17  20
ENDBRANCH  12  13
ENDBRANCH   1  12
TORSDOF 4
