REMARK  Name = ZINC65421330
REMARK  6 active torsions:
REMARK  status: ('A' for Active; 'I' for Inactive)
REMARK    1  A    between atoms: C_1  and  C_2
REMARK    2  A    between atoms: C_4  and  C_8
REMARK    3  A    between atoms: C_8  and  C_10
REMARK    4  A    between atoms: C_8  and  N_11
REMARK    5  A    between atoms: C_14  and  C_27
REMARK    6  A    between atoms: C_16  and  C_18
REMARK                            x       y       z     vdW  Elec       q    Type
REMARK                         _______ _______ _______ _____ _____    ______ ____
ROOT
ATOM      1  N   UNL     1      -4.558   3.029  -1.827  0.00  0.00    -0.271 NA
ATOM      2  C   UNL     1      -4.019   4.256  -1.187  0.00  0.00    +0.170 C 
ATOM      3  N   UNL     1      -5.184   4.817  -0.456  0.00  0.00    -0.295 NA
ATOM      4  C   UNL     1      -6.335   4.586  -1.361  0.00  0.00    +0.107 C 
ATOM      5  C   UNL     1      -5.923   3.408  -2.264  0.00  0.00    +0.110 C 
ATOM      6  H   UNL     1      -5.318   4.346   0.427  0.00  0.00    +0.124 HD
ENDROOT
BRANCH   5   7
ATOM      7  C   UNL     1      -6.870   2.251  -2.076  0.00  0.00    -0.028 A 
ATOM      8  C   UNL     1      -6.757   1.442  -0.955  0.00  0.00    +0.009 A 
ATOM      9  C   UNL     1      -7.613   0.379  -0.765  0.00  0.00    +0.047 A 
ATOM     10  C   UNL     1      -8.602   0.112  -1.704  0.00  0.00    +0.135 A 
ATOM     11  C   UNL     1      -8.711   0.935  -2.837  0.00  0.00    +0.020 A 
ATOM     12  C   UNL     1      -7.839   2.009  -3.010  0.00  0.00    +0.017 A 
ATOM     13  C   UNL     1      -9.833   0.389  -3.611  0.00  0.00    +0.049 A 
ATOM     14  C   UNL     1     -10.287  -0.664  -2.919  0.00  0.00    +0.196 A 
ATOM     15  O   UNL     1      -9.563  -0.828  -1.797  0.00  0.00    -0.463 OA
ENDBRANCH   5   7
BRANCH   4  16
ATOM     16  C   UNL     1      -7.562   4.228  -0.563  0.00  0.00    -0.029 A 
ATOM     17  C   UNL     1      -7.449   3.419   0.553  0.00  0.00    +0.005 A 
ATOM     18  C   UNL     1      -8.574   3.091   1.285  0.00  0.00    +0.000 A 
ATOM     19  C   UNL     1      -9.813   3.571   0.902  0.00  0.00    +0.000 A 
ATOM     20  C   UNL     1      -9.926   4.380  -0.213  0.00  0.00    +0.000 A 
ATOM     21  C   UNL     1      -8.800   4.712  -0.943  0.00  0.00    +0.005 A 
ENDBRANCH   4  16
BRANCH   1  22
ATOM     22  C   UNL     1      -3.731   2.626  -2.972  0.00  0.00    +0.123 C 
ATOM     23  C   UNL     1      -4.375   1.425  -3.668  0.00  0.00    +0.032 C 
BRANCH  22  27
ATOM     24  C   UNL     1      -0.013   1.086   0.008  0.00  0.00    +0.090 C 
ATOM     25  C   UNL     1      -0.742   1.585  -1.213  0.00  0.00    +0.148 A 
ATOM     26  N   UNL     1      -2.050   1.826  -1.289  0.00  0.00    -0.215 NA
ATOM     27  C   UNL     1      -2.354   2.248  -2.489  0.00  0.00    +0.142 A 
ATOM     28  H   UNL     1      -1.139   2.559  -4.144  0.00  0.00    +0.190 HD
ATOM     29  N   UNL     1      -1.225   2.286  -3.217  0.00  0.00    -0.261 N 
ATOM     30  N   UNL     1      -0.192   1.857  -2.367  0.00  0.00    -0.158 NA
ENDBRANCH  22  27
ENDBRANCH   1  22
TORSDOF 4
