REMARK  Name = ZINC59000136
REMARK  6 active torsions:
REMARK  status: ('A' for Active; 'I' for Inactive)
REMARK    1  A    between atoms: C_3  and  N_18
REMARK    2  A    between atoms: C_5  and  N_7
REMARK    3  A    between atoms: N_10  and  C_13
REMARK    4  A    between atoms: N_18  and  S_19
REMARK    5  A    between atoms: S_19  and  C_22
REMARK    6  A    between atoms: C_25  and  C_28
REMARK                            x       y       z     vdW  Elec       q    Type
REMARK                         _______ _______ _______ _____ _____    ______ ____
ROOT
ATOM      1  C   UNL     1      -0.017   1.377   0.010  0.00  0.00    +0.004 A 
ATOM      2  C   UNL     1       1.169   2.087   0.002  0.00  0.00    +0.024 A 
ATOM      3  C   UNL     1       2.384   1.413  -0.013  0.00  0.00    +0.050 A 
ATOM      4  C   UNL     1       2.405   0.025  -0.021  0.00  0.00    +0.051 A 
ATOM      5  C   UNL     1       1.214  -0.684  -0.013  0.00  0.00    +0.056 A 
ATOM      6  C   UNL     1       0.002  -0.004   0.002  0.00  0.00    +0.026 A 
ENDROOT
BRANCH   5   7
ATOM      7  N   UNL     1       1.231  -2.085  -0.021  0.00  0.00    -0.224 N 
ATOM      8  C   UNL     1       2.369  -2.888  -0.031  0.00  0.00    +0.325 A 
ATOM      9  C   UNL     1       1.966  -4.163  -0.035  0.00  0.00    +0.321 A 
ATOM     10  N   UNL     1       0.575  -4.168  -0.029  0.00  0.00    -0.253 N 
ATOM     11  C   UNL     1       0.151  -2.890  -0.015  0.00  0.00    +0.340 A 
ATOM     12  O   UNL     1      -1.011  -2.524  -0.002  0.00  0.00    -0.246 OA
ATOM     13  O   UNL     1       2.774  -5.260  -0.045  0.00  0.00    -0.262 OA
ATOM     14  O   UNL     1       3.659  -2.453  -0.035  0.00  0.00    -0.261 OA
BRANCH  10  15
ATOM     15  C   UNL     1      -0.280  -5.358  -0.032  0.00  0.00    +0.096 C 
ATOM     16  C   UNL     1       0.398  -6.716   0.162  0.00  0.00    +0.027 C 
ATOM     17  C   UNL     1      -0.147  -6.321  -1.213  0.00  0.00    +0.027 C 
ENDBRANCH  10  15
ENDBRANCH   5   7
BRANCH   3  18
ATOM     18  N   UNL     1       3.582   2.131  -0.021  0.00  0.00    -0.216 N 
ATOM     19  H   UNL     1       4.297   1.874  -0.623  0.00  0.00    +0.174 HD
BRANCH  18  20
ATOM     20  S   UNL     1       3.780   3.422   0.998  0.00  0.00    +0.072 S 
ATOM     21  O   UNL     1       5.093   3.918   0.774  0.00  0.00    -0.150 OA
ATOM     22  O   UNL     1       2.624   4.235   0.853  0.00  0.00    -0.150 OA
BRANCH  20  23
ATOM     23  C   UNL     1       3.752   2.795   2.644  0.00  0.00    +0.109 A 
ATOM     24  C   UNL     1       2.554   2.696   3.326  0.00  0.00    +0.029 A 
ATOM     25  C   UNL     1       2.532   2.204   4.618  0.00  0.00    +0.006 A 
ATOM     26  C   UNL     1       3.709   1.811   5.227  0.00  0.00    -0.044 A 
ATOM     27  C   UNL     1       4.907   1.909   4.545  0.00  0.00    +0.006 A 
ATOM     28  C   UNL     1       4.928   2.397   3.252  0.00  0.00    +0.029 A 
BRANCH  26  29
ATOM     29  C   UNL     1       3.685   1.276   6.636  0.00  0.00    +0.019 C 
ATOM     30  C   UNL     1       4.551   2.163   7.533  0.00  0.00    +0.008 C 
ATOM     31  C   UNL     1       4.527   1.619   8.963  0.00  0.00    +0.001 C 
ATOM     32  C   UNL     1       5.076   0.191   8.975  0.00  0.00    +0.000 C 
ATOM     33  C   UNL     1       4.211  -0.696   8.078  0.00  0.00    +0.001 C 
ATOM     34  C   UNL     1       4.235  -0.152   6.648  0.00  0.00    +0.008 C 
ENDBRANCH  26  29
ENDBRANCH  20  23
ENDBRANCH  18  20
ENDBRANCH   3  18
TORSDOF 6
