REMARK  Name = ZINC66963287
REMARK  1 active torsions:
REMARK  status: ('A' for Active; 'I' for Inactive)
REMARK    1  A    between atoms: C_6  and  N_7
REMARK                            x       y       z     vdW  Elec       q    Type
REMARK                         _______ _______ _______ _____ _____    ______ ____
ROOT
ATOM      1  N   UNL     1      -1.231  -0.687  -0.086  0.00  0.00    -0.269 N 
ATOM      2  C   UNL     1      -2.393  -0.038   0.126  0.00  0.00    +0.307 C 
ATOM      3  O   UNL     1      -2.403   1.175   0.219  0.00  0.00    -0.252 OA
ATOM      4  N   UNL     1      -3.543  -0.732   0.236  0.00  0.00    -0.282 N 
ATOM      5  C   UNL     1      -3.527  -2.199   0.308  0.00  0.00    +0.128 C 
ATOM      6  C   UNL     1      -4.271  -2.636   1.576  0.00  0.00    +0.125 C 
ATOM      7  N   UNL     1      -5.564  -1.938   1.626  0.00  0.00    -0.312 N 
ATOM      8  C   UNL     1      -5.580  -0.470   1.553  0.00  0.00    +0.125 C 
ATOM      9  C   UNL     1      -4.835  -0.034   0.291  0.00  0.00    +0.128 C 
ATOM     10  C   UNL     1      -6.750  -2.654   1.738  0.00  0.00    +0.121 A 
ATOM     11  C   UNL     1      -6.711  -4.041   1.840  0.00  0.00    +0.045 A 
ATOM     12  C   UNL     1      -7.899  -4.741   1.952  0.00  0.00    +0.025 A 
ATOM     13  C   UNL     1      -9.091  -4.028   1.959  0.00  0.00    +0.059 A 
ATOM     14  C   UNL     1      -9.055  -2.651   1.854  0.00  0.00    +0.132 A 
ATOM     15  N   UNL     1      -7.906  -2.010   1.753  0.00  0.00    -0.239 NA
ATOM     16 CL   UNL     1     -10.610  -4.858   2.097  0.00  0.00    -0.082 Cl
ATOM     17  H   UNL     1      -1.236  -1.636  -0.288  0.00  0.00    +0.156 HD
ENDROOT
BRANCH   1  23
ATOM     18  C   UNL     1       0.014   1.377  -0.238  0.00  0.00    +0.025 A 
ATOM     19  C   UNL     1       1.211   2.062  -0.166  0.00  0.00    +0.025 A 
ATOM     20  C   UNL     1       2.384   1.381   0.130  0.00  0.00    +0.037 A 
ATOM     21  C   UNL     1       2.353   0.011   0.355  0.00  0.00    -0.024 A 
ATOM     22  C   UNL     1       1.157  -0.674   0.283  0.00  0.00    +0.028 A 
ATOM     23  C   UNL     1      -0.017   0.007  -0.013  0.00  0.00    +0.035 A 
ATOM     24  C   UNL     1       3.627  -0.725   0.677  0.00  0.00    +0.046 C 
ATOM     25  C   UNL     1       4.793  -0.082  -0.074  0.00  0.00    +0.101 C 
ATOM     26  C   UNL     1       4.767   1.410   0.119  0.00  0.00    +0.218 C 
ATOM     27  O   UNL     1       5.811   2.023   0.199  0.00  0.00    -0.275 OA
ATOM     28  N   UNL     1       3.599   2.073   0.204  0.00  0.00    -0.285 N 
ATOM     29  H   UNL     1       3.599   3.036   0.317  0.00  0.00    +0.155 HD
ENDBRANCH   1  23
TORSDOF 1
