REMARK  Name = ZINC33280303
REMARK  3 active torsions:
REMARK  status: ('A' for Active; 'I' for Inactive)
REMARK    1  A    between atoms: C_6  and  N_7
REMARK    2  A    between atoms: N_10  and  C_11
REMARK    3  A    between atoms: C_11  and  C_12
REMARK                            x       y       z     vdW  Elec       q    Type
REMARK                         _______ _______ _______ _____ _____    ______ ____
ROOT
ATOM      1  C   UNL     1       3.677   2.120  -0.021  0.00  0.00    +0.141 C 
ENDROOT
BRANCH   1   2
ATOM      2  C   UNL     1       2.380   1.353  -0.014  0.00  0.00    -0.026 A 
ATOM      3  C   UNL     1       1.161   2.019  -0.003  0.00  0.00    +0.023 A 
ATOM      4  C   UNL     1      -0.009   1.288   0.004  0.00  0.00    +0.084 A 
ATOM      5  N   UNL     1       0.018  -0.032   0.001  0.00  0.00    -0.350 N 
ATOM      6  C   UNL     1       1.159  -0.703  -0.009  0.00  0.00    +0.099 A 
ATOM      7  C   UNL     1       2.376  -0.030  -0.017  0.00  0.00    +0.047 A 
ATOM      8  N   UNL     1       1.140  -2.093  -0.012  0.00  0.00    -0.315 N 
ATOM      9  C   UNL     1       1.931  -2.626  -1.124  0.00  0.00    +0.117 C 
ATOM     10  C   UNL     1       2.280  -4.095  -0.858  0.00  0.00    +0.088 C 
ATOM     11  S   UNL     1       0.728  -5.039  -0.739  0.00  0.00    -0.158 S 
ATOM     12  C   UNL     1      -0.245  -4.064   0.450  0.00  0.00    +0.088 C 
ATOM     13  C   UNL     1      -0.234  -2.599  -0.004  0.00  0.00    +0.117 C 
ATOM     14  H   UNL     1      -0.924  -0.601   0.007  0.00  0.00    +0.166 HD
ENDBRANCH   1   2
BRANCH   1  18
ATOM     15  N   UNL     1       5.604   3.278  -2.931  0.00  0.00    -0.269 N 
ATOM     16  C   UNL     1       5.227   3.047  -1.658  0.00  0.00    +0.304 C 
ATOM     17  O   UNL     1       5.913   3.447  -0.738  0.00  0.00    -0.252 OA
ATOM     18  N   UNL     1       4.088   2.372  -1.405  0.00  0.00    -0.295 N 
ATOM     19  H   UNL     1       5.025   2.852  -3.763  0.00  0.00    +0.156 HD
ATOM     20  H   UNL     1       3.467   2.010  -2.237  0.00  0.00    +0.151 HD
BRANCH  15  26
ATOM     21  C   UNL     1       6.762   4.890  -4.309  0.00  0.00    +0.024 A 
ATOM     22  C   UNL     1       7.876   5.665  -4.563  0.00  0.00    +0.017 A 
ATOM     23  C   UNL     1       8.968   5.609  -3.716  0.00  0.00    +0.018 A 
ATOM     24  C   UNL     1       8.945   4.780  -2.608  0.00  0.00    +0.017 A 
ATOM     25  C   UNL     1       7.832   4.007  -2.345  0.00  0.00    +0.024 A 
ATOM     26  C   UNL     1       6.734   4.061  -3.194  0.00  0.00    +0.035 A 
ATOM     27 BR   UNL     1      10.495   6.666  -4.072  0.00  0.00    -0.050 Br
ENDBRANCH  15  26
ENDBRANCH   1  18
TORSDOF 3
