REMARK  Name = ZINC66087757
REMARK  14 active torsions:
REMARK  status: ('A' for Active; 'I' for Inactive)
REMARK    1  A    between atoms: C_1  and  C_2
REMARK    2  A    between atoms: C_2  and  C_3
REMARK    3  A    between atoms: C_2  and  C_4
REMARK    4  A    between atoms: C_4  and  O_5
REMARK    5  A    between atoms: O_5  and  C_6
REMARK    6  A    between atoms: C_9  and  N_12
REMARK    7  A    between atoms: C_13  and  C_15
REMARK    8  A    between atoms: C_15  and  N_16
REMARK    9  A    between atoms: N_16  and  C_17
REMARK   10  A    between atoms: C_21  and  N_23
REMARK   11  A    between atoms: C_24  and  C_26
REMARK   12  A    between atoms: C_26  and  C_27
REMARK   13  A    between atoms: C_26  and  C_28
REMARK   14  A    between atoms: C_26  and  C_29
REMARK                            x       y       z     vdW  Elec       q    Type
REMARK                         _______ _______ _______ _____ _____    ______ ____
ROOT
ATOM      1  C   UNL     1       2.216  -1.628   9.758  0.00  0.00    +0.198 C 
ENDROOT
BRANCH   1   3
ATOM      2  N   UNL     1       2.175  -1.690   7.285  0.00  0.00    -0.284 N 
ATOM      3  C   UNL     1       1.585  -1.294   8.430  0.00  0.00    +0.234 C 
ATOM      4  O   UNL     1       0.546  -0.669   8.393  0.00  0.00    -0.274 OA
ATOM      5  H   UNL     1       2.965  -2.252   7.316  0.00  0.00    +0.155 HD
BRANCH   2   9
ATOM      6  C   UNL     1       0.607  -0.498   3.610  0.00  0.00    +0.121 A 
ATOM      7  C   UNL     1       0.526   0.349   4.706  0.00  0.00    +0.047 A 
ATOM      8  C   UNL     1       1.045  -0.045   5.923  0.00  0.00    +0.027 A 
ATOM      9  C   UNL     1       1.648  -1.290   6.050  0.00  0.00    +0.034 A 
ATOM     10  C   UNL     1       1.729  -2.137   4.953  0.00  0.00    +0.027 A 
ATOM     11  C   UNL     1       1.204  -1.744   3.738  0.00  0.00    +0.047 A 
BRANCH   6  12
ATOM     12  O   UNL     1       0.095  -0.110   2.412  0.00  0.00    -0.492 OA
BRANCH  12  13
ATOM     13  C   UNL     1      -0.506   1.186   2.352  0.00  0.00    +0.232 C 
BRANCH  13  15
ATOM     14  C   UNL     1      -2.147   0.461   0.614  0.00  0.00    +0.010 C 
ATOM     15  C   UNL     1      -1.020   1.445   0.935  0.00  0.00    +0.020 C 
ATOM     16  C   UNL     1      -1.550   2.876   0.838  0.00  0.00    +0.010 C 
ENDBRANCH  13  15
ENDBRANCH  12  13
ENDBRANCH   6  12
ENDBRANCH   2   9
ENDBRANCH   1   3
BRANCH   1  17
ATOM     17  N   UNL     1       1.388  -1.091  10.841  0.00  0.00    -0.335 N 
ATOM     18  H   UNL     1       0.573  -0.607  10.634  0.00  0.00    +0.147 HD
BRANCH  17  19
ATOM     19  C   UNL     1       1.772  -1.276  12.171  0.00  0.00    +0.029 A 
ATOM     20  C   UNL     1       2.943  -1.964  12.468  0.00  0.00    +0.023 A 
ATOM     21  C   UNL     1       3.323  -2.147  13.783  0.00  0.00    +0.004 A 
ATOM     22  C   UNL     1       2.541  -1.648  14.807  0.00  0.00    +0.023 A 
ATOM     23  C   UNL     1       1.371  -0.959  14.517  0.00  0.00    +0.035 A 
ATOM     24  C   UNL     1       0.989  -0.768  13.197  0.00  0.00    +0.046 A 
BRANCH  23  25
ATOM     25  N   UNL     1       0.580  -0.453  15.555  0.00  0.00    -0.285 N 
ATOM     26  C   UNL     1       1.161   0.026  16.672  0.00  0.00    +0.223 C 
ATOM     27  O   UNL     1       2.363  -0.056  16.814  0.00  0.00    -0.275 OA
ATOM     28  H   UNL     1      -0.386  -0.448  15.470  0.00  0.00    +0.155 HD
BRANCH  26  29
ATOM     29  C   UNL     1       0.318   0.665  17.746  0.00  0.00    +0.039 C 
ATOM     30  C   UNL     1       1.216   1.121  18.897  0.00  0.00    +0.020 C 
ATOM     31  C   UNL     1      -0.419   1.873  17.164  0.00  0.00    +0.020 C 
ATOM     32  C   UNL     1      -0.701  -0.351  18.266  0.00  0.00    +0.020 C 
ENDBRANCH  26  29
ENDBRANCH  23  25
ENDBRANCH  17  19
ENDBRANCH   1  17
TORSDOF 9
