REMARK  Name = ZINC14722819
REMARK  15 active torsions:
REMARK  status: ('A' for Active; 'I' for Inactive)
REMARK    1  A    between atoms: C_1  and  C_2
REMARK    2  A    between atoms: C_2  and  C_3
REMARK    3  A    between atoms: C_3  and  O_4
REMARK    4  A    between atoms: O_4  and  C_5
REMARK    5  A    between atoms: C_8  and  N_15
REMARK    6  A    between atoms: C_10  and  O_11
REMARK    7  A    between atoms: O_11  and  C_12
REMARK    8  A    between atoms: C_12  and  C_13
REMARK    9  A    between atoms: C_13  and  C_14
REMARK   10  A    between atoms: C_16  and  C_18
REMARK   11  A    between atoms: C_18  and  O_19
REMARK   12  A    between atoms: O_19  and  C_20
REMARK   13  A    between atoms: C_25  and  O_26
REMARK   14  A    between atoms: O_26  and  C_27
REMARK   15  A    between atoms: C_27  and  C_28
REMARK                            x       y       z     vdW  Elec       q    Type
REMARK                         _______ _______ _______ _____ _____    ______ ____
ROOT
ATOM      1  N   UNL     1       0.063  -4.176  -0.019  0.00  0.00    -0.283 N 
ATOM      2  C   UNL     1       1.136  -4.835   0.461  0.00  0.00    +0.255 C 
ATOM      3  O   UNL     1       2.043  -4.220   0.981  0.00  0.00    -0.272 OA
ATOM      4  H   UNL     1      -0.696  -4.672  -0.366  0.00  0.00    +0.155 HD
ENDROOT
BRANCH   1   8
ATOM      5  C   UNL     1       0.009  -0.004  -0.015  0.00  0.00    +0.162 A 
ATOM      6  C   UNL     1       1.202  -0.682  -0.203  0.00  0.00    +0.051 A 
ATOM      7  C   UNL     1       1.220  -2.064  -0.205  0.00  0.00    +0.027 A 
ATOM      8  C   UNL     1       0.043  -2.776  -0.018  0.00  0.00    +0.037 A 
ATOM      9  C   UNL     1      -1.155  -2.099   0.171  0.00  0.00    +0.072 A 
ATOM     10  C   UNL     1      -1.172  -0.714   0.179  0.00  0.00    +0.164 A 
BRANCH   5  11
ATOM     11  O   UNL     1      -0.007   1.357  -0.013  0.00  0.00    -0.488 OA
BRANCH  11  12
ATOM     12  C   UNL     1       1.243   2.020  -0.211  0.00  0.00    +0.229 C 
BRANCH  12  14
ATOM     13  C   UNL     1       2.365   4.245  -0.391  0.00  0.00    +0.007 C 
ATOM     14  C   UNL     1       1.027   3.535  -0.178  0.00  0.00    +0.038 C 
ENDBRANCH  12  14
ENDBRANCH  11  12
ENDBRANCH   5  11
BRANCH  10  15
ATOM     15  O   UNL     1      -2.342  -0.049   0.370  0.00  0.00    -0.488 OA
BRANCH  15  16
ATOM     16  C   UNL     1      -3.515  -0.842   0.562  0.00  0.00    +0.229 C 
BRANCH  16  17
ATOM     17  C   UNL     1      -4.724   0.075   0.759  0.00  0.00    +0.038 C 
ATOM     18  C   UNL     1      -5.980  -0.775   0.965  0.00  0.00    +0.007 C 
ENDBRANCH  16  17
ENDBRANCH  15  16
ENDBRANCH  10  15
ENDBRANCH   1   8
BRANCH   2  19
ATOM     19  C   UNL     1       1.210  -6.337   0.351  0.00  0.00    +0.325 C 
BRANCH  19  20
ATOM     20  O   UNL     1       2.434  -6.797   0.927  0.00  0.00    -0.479 OA
BRANCH  20  21
ATOM     21  C   UNL     1       2.658  -8.138   0.909  0.00  0.00    +0.163 A 
ATOM     22  C   UNL     1       1.718  -8.992   0.355  0.00  0.00    +0.049 A 
ATOM     23  C   UNL     1       1.951 -10.355   0.333  0.00  0.00    +0.004 A 
ATOM     24  C   UNL     1       3.115 -10.870   0.873  0.00  0.00    +0.004 A 
ATOM     25  C   UNL     1       4.054 -10.024   1.433  0.00  0.00    +0.049 A 
ATOM     26  C   UNL     1       3.830  -8.656   1.453  0.00  0.00    +0.162 A 
BRANCH  26  27
ATOM     27  O   UNL     1       4.752  -7.823   2.003  0.00  0.00    -0.489 OA
BRANCH  27  28
ATOM     28  C   UNL     1       5.931  -8.425   2.542  0.00  0.00    +0.226 C 
ATOM     29  C   UNL     1       6.844  -7.337   3.113  0.00  0.00    +0.048 C 
ENDBRANCH  27  28
ENDBRANCH  26  27
ENDBRANCH  20  21
ENDBRANCH  19  20
ENDBRANCH   2  19
TORSDOF 12
