REMARK  Name = ZINC13415132
REMARK  11 active torsions:
REMARK  status: ('A' for Active; 'I' for Inactive)
REMARK    1  A    between atoms: C_1  and  C_2
REMARK    2  A    between atoms: C_2  and  O_3
REMARK    3  A    between atoms: O_3  and  C_4
REMARK    4  A    between atoms: C_7  and  N_10
REMARK    5  A    between atoms: C_11  and  C_13
REMARK    6  A    between atoms: C_16  and  N_19
REMARK    7  A    between atoms: C_20  and  C_22
REMARK    8  A    between atoms: C_22  and  S_23
REMARK    9  A    between atoms: S_23  and  C_24
REMARK   10  A    between atoms: C_26  and  C_29
REMARK   11  A    between atoms: C_29  and  C_30
REMARK                            x       y       z     vdW  Elec       q    Type
REMARK                         _______ _______ _______ _____ _____    ______ ____
ROOT
ATOM      1  C   UNL     1      -1.244  -0.765   0.165  0.00  0.00    +0.037 A 
ATOM      2  C   UNL     1      -2.474  -0.106   0.093  0.00  0.00    +0.015 A 
ATOM      3  C   UNL     1      -3.644  -0.825   0.194  0.00  0.00    +0.024 A 
ATOM      4  C   UNL     1      -3.602  -2.203   0.379  0.00  0.00    +0.033 A 
ATOM      5  C   UNL     1      -2.379  -2.861   0.456  0.00  0.00    +0.024 A 
ATOM      6  C   UNL     1      -1.205  -2.149   0.350  0.00  0.00    +0.015 A 
ENDROOT
BRANCH   1   8
ATOM      7  N   UNL     1      -0.026   1.337  -0.128  0.00  0.00    -0.281 N 
ATOM      8  C   UNL     1       0.013   0.002   0.050  0.00  0.00    +0.248 C 
ATOM      9  O   UNL     1       1.083  -0.572   0.117  0.00  0.00    -0.270 OA
ATOM     10  H   UNL     1      -0.878   1.785  -0.253  0.00  0.00    +0.155 HD
BRANCH   7  14
ATOM     11  C   UNL     1       3.513   3.540  -0.162  0.00  0.00    +0.121 A 
ATOM     12  C   UNL     1       3.486   2.263  -0.703  0.00  0.00    +0.047 A 
ATOM     13  C   UNL     1       2.314   1.533  -0.692  0.00  0.00    +0.027 A 
ATOM     14  C   UNL     1       1.162   2.077  -0.139  0.00  0.00    +0.034 A 
ATOM     15  C   UNL     1       1.189   3.357   0.398  0.00  0.00    +0.027 A 
ATOM     16  C   UNL     1       2.363   4.084   0.391  0.00  0.00    +0.047 A 
BRANCH  11  17
ATOM     17  O   UNL     1       4.667   4.258  -0.172  0.00  0.00    -0.492 OA
BRANCH  17  19
ATOM     18  C   UNL     1       6.004   6.216   0.299  0.00  0.00    +0.048 C 
ATOM     19  C   UNL     1       4.623   5.566   0.402  0.00  0.00    +0.225 C 
ENDBRANCH  17  19
ENDBRANCH  11  17
ENDBRANCH   7  14
ENDBRANCH   1   8
BRANCH   4  20
ATOM     20  N   UNL     1      -4.789  -2.927   0.487  0.00  0.00    -0.285 N 
ATOM     21  C   UNL     1      -4.858  -4.184   0.005  0.00  0.00    +0.227 C 
ATOM     22  O   UNL     1      -3.920  -4.652  -0.604  0.00  0.00    -0.275 OA
ATOM     23  H   UNL     1      -5.565  -2.526   0.909  0.00  0.00    +0.155 HD
BRANCH  21  24
ATOM     24  C   UNL     1      -6.102  -5.007   0.223  0.00  0.00    +0.172 C 
BRANCH  24  25
ATOM     25  S   UNL     1      -5.888  -6.636  -0.538  0.00  0.00    -0.089 S 
BRANCH  25  26
ATOM     26  C   UNL     1      -7.442  -7.365  -0.143  0.00  0.00    +0.135 A 
ATOM     27  N   UNL     1      -7.893  -8.569  -0.440  0.00  0.00    -0.237 NA
ATOM     28  C   UNL     1      -9.094  -8.961  -0.059  0.00  0.00    +0.060 A 
ATOM     29  C   UNL     1      -9.866  -8.094   0.638  0.00  0.00    +0.071 A 
ATOM     30  S   UNL     1      -8.778  -6.680   0.731  0.00  0.00    -0.069 S 
BRANCH  28  31
ATOM     31  C   UNL     1      -9.598 -10.341  -0.398  0.00  0.00    +0.181 C 
BRANCH  31  32
ATOM     32  C   UNL     1      -9.507 -10.557  -1.886  0.00  0.00    +0.362 C 
ATOM     33  O   UNL     1      -9.078  -9.682  -2.599  0.00  0.00    -0.246 OA
ATOM     34  O   UNL     1      -9.903 -11.723  -2.420  0.00  0.00    -0.246 OA
ENDBRANCH  31  32
ENDBRANCH  28  31
ENDBRANCH  25  26
ENDBRANCH  24  25
ENDBRANCH  21  24
ENDBRANCH   4  20
TORSDOF 10
