REMARK  Name = ZINC37627131
REMARK  7 active torsions:
REMARK  status: ('A' for Active; 'I' for Inactive)
REMARK    1  A    between atoms: C_1  and  C_2
REMARK    2  A    between atoms: C_4  and  N_18
REMARK    3  A    between atoms: C_7  and  N_8
REMARK    4  A    between atoms: C_9  and  C_11
REMARK    5  A    between atoms: C_14  and  N_17
REMARK    6  A    between atoms: N_18  and  C_19
REMARK    7  A    between atoms: N_18  and  C_20
REMARK                            x       y       z     vdW  Elec       q    Type
REMARK                         _______ _______ _______ _____ _____    ______ ____
ROOT
ATOM      1  N   UNL     1       0.114  -0.304   2.373  0.00  0.00    -0.285 N 
ATOM      2  C   UNL     1       0.238  -0.944   3.552  0.00  0.00    +0.220 C 
ATOM      3  O   UNL     1       0.429  -2.142   3.575  0.00  0.00    -0.275 OA
ATOM      4  H   UNL     1       0.018   0.661   2.353  0.00  0.00    +0.155 HD
ENDROOT
BRANCH   1  11
ATOM      5  C   UNL     1      -1.213   0.806   0.116  0.00  0.00    +0.046 C 
ATOM      6  C   UNL     1      -0.512  -0.526   0.050  0.00  0.00    -0.028 A 
ATOM      7  C   UNL     1      -0.497  -1.241  -1.131  0.00  0.00    +0.028 A 
ATOM      8  C   UNL     1       0.148  -2.469  -1.192  0.00  0.00    +0.030 A 
ATOM      9  C   UNL     1       0.780  -2.978  -0.064  0.00  0.00    +0.025 A 
ATOM     10  C   UNL     1       0.765  -2.263   1.117  0.00  0.00    +0.025 A 
ATOM     11  C   UNL     1       0.124  -1.032   1.175  0.00  0.00    +0.036 A 
BRANCH   8  12
ATOM     12  N   UNL     1       0.163  -3.194  -2.388  0.00  0.00    -0.336 N 
ATOM     13  C   UNL     1      -0.607  -2.719  -3.541  0.00  0.00    +0.129 C 
ATOM     14  C   UNL     1       0.947  -4.427  -2.488  0.00  0.00    +0.129 C 
ENDBRANCH   8  12
ENDBRANCH   1  11
BRANCH   2  15
ATOM     15  C   UNL     1       0.140  -0.172   4.843  0.00  0.00    +0.075 C 
ATOM     16  C   UNL     1       1.237   0.894   4.884  0.00  0.00    +0.011 C 
ATOM     17  C   UNL     1       2.607   0.219   4.796  0.00  0.00    -0.016 C 
ATOM     18  C   UNL     1       2.782  -0.737   5.977  0.00  0.00    -0.075 C 
ATOM     19  C   UNL     1       1.685  -1.803   5.936  0.00  0.00    -0.016 C 
ATOM     20  C   UNL     1       0.315  -1.129   6.024  0.00  0.00    +0.011 C 
BRANCH  18  21
ATOM     21  N   UNL     1       4.098  -1.385   5.893  0.00  0.00    +0.380 N 
ATOM     22  H   UNL     1       4.821  -0.682   5.920  0.00  0.00    -0.090 HD
ATOM     23  H   UNL     1       4.212  -2.016   6.671  0.00  0.00    -0.090 HD
ATOM     24  H   UNL     1       4.163  -1.902   5.028  0.00  0.00    -0.090 HD
ENDBRANCH  18  21
ENDBRANCH   2  15
TORSDOF 4
