REMARK  Name = ZINC13244802
REMARK  10 active torsions:
REMARK  status: ('A' for Active; 'I' for Inactive)
REMARK    1  A    between atoms: C_6  and  C_7
REMARK    2  A    between atoms: C_10  and  S_15
REMARK    3  A    between atoms: N_11  and  C_12
REMARK    4  A    between atoms: C_12  and  C_13
REMARK    5  A    between atoms: S_15  and  C_16
REMARK    6  A    between atoms: C_16  and  C_17
REMARK    7  A    between atoms: N_19  and  C_20
REMARK    8  A    between atoms: N_19  and  C_25
REMARK    9  A    between atoms: C_20  and  C_21
REMARK   10  A    between atoms: C_21  and  C_22
REMARK                            x       y       z     vdW  Elec       q    Type
REMARK                         _______ _______ _______ _____ _____    ______ ____
ROOT
ATOM      1  C   UNL     1      -1.489  -0.472   1.187  0.00  0.00    +0.173 C 
ENDROOT
BRANCH   1   2
ATOM      2  C   UNL     1      -1.029   0.867   1.704  0.00  0.00    +0.230 C 
ATOM      3  O   UNL     1      -1.555   1.353   2.683  0.00  0.00    -0.274 OA
ATOM      4  N   UNL     1      -0.033   1.525   1.077  0.00  0.00    -0.270 N 
BRANCH   4   5
ATOM      5  C   UNL     1       0.469   2.715   1.619  0.00  0.00    +0.036 A 
ATOM      6  C   UNL     1      -0.325   3.854   1.650  0.00  0.00    +0.026 A 
ATOM      7  C   UNL     1       0.169   5.025   2.190  0.00  0.00    +0.040 A 
ATOM      8  C   UNL     1       1.460   5.067   2.689  0.00  0.00    +0.124 A 
ATOM      9  C   UNL     1       2.256   3.934   2.654  0.00  0.00    +0.040 A 
ATOM     10  C   UNL     1       1.763   2.759   2.120  0.00  0.00    +0.026 A 
ATOM     11  F   UNL     1       1.944   6.215   3.212  0.00  0.00    -0.205 F 
ENDBRANCH   4   5
BRANCH   4  12
ATOM     12  C   UNL     1       0.524   0.995  -0.169  0.00  0.00    +0.123 C 
BRANCH  12  13
ATOM     13  C   UNL     1      -0.253   1.564  -1.358  0.00  0.00    +0.115 C 
BRANCH  13  14
ATOM     14  C   UNL     1       0.320   1.019  -2.641  0.00  0.00    +0.212 C 
ATOM     15  O   UNL     1       1.259   0.251  -2.607  0.00  0.00    -0.276 OA
ATOM     16  N   UNL     1      -0.210   1.385  -3.825  0.00  0.00    -0.329 N 
ATOM     17  H   UNL     1      -0.960   1.998  -3.851  0.00  0.00    +0.145 HD
ATOM     18  H   UNL     1       0.160   1.034  -4.650  0.00  0.00    +0.145 HD
ENDBRANCH  13  14
ENDBRANCH  12  13
ENDBRANCH   4  12
ENDBRANCH   1   2
BRANCH   1  19
ATOM     19  S   UNL     1      -2.828  -1.094   2.233  0.00  0.00    -0.077 S 
BRANCH  19  23
ATOM     20  C   UNL     1      -4.000  -4.564   0.872  0.00  0.00    +0.165 A 
ATOM     21  N   UNL     1      -3.043  -4.235   0.036  0.00  0.00    -0.128 NA
ATOM     22  N   UNL     1      -2.550  -3.093   0.361  0.00  0.00    -0.122 NA
ATOM     23  C   UNL     1      -3.162  -2.624   1.425  0.00  0.00    +0.193 A 
ATOM     24  N   UNL     1      -4.101  -3.545   1.791  0.00  0.00    -0.291 N 
BRANCH  20  30
ATOM     25  C   UNL     1      -4.361  -6.913   0.124  0.00  0.00    +0.013 A 
ATOM     26  C   UNL     1      -5.119  -8.065   0.098  0.00  0.00    +0.021 A 
ATOM     27  C   UNL     1      -6.330  -8.114   0.769  0.00  0.00    +0.041 A 
ATOM     28  C   UNL     1      -6.784  -7.012   1.473  0.00  0.00    +0.021 A 
ATOM     29  C   UNL     1      -6.032  -5.856   1.510  0.00  0.00    +0.013 A 
ATOM     30  C   UNL     1      -4.810  -5.800   0.836  0.00  0.00    +0.019 A 
ATOM     31 CL   UNL     1      -7.283  -9.565   0.726  0.00  0.00    -0.084 Cl
ENDBRANCH  20  30
BRANCH  24  32
ATOM     32  C   UNL     1      -5.027  -3.464   2.924  0.00  0.00    +0.250 C 
BRANCH  32  33
ATOM     33  C   UNL     1      -6.286  -2.756   2.494  0.00  0.00    +0.375 C 
ATOM     34  O   UNL     1      -6.399  -2.360   1.358  0.00  0.00    -0.244 OA
ATOM     35  O   UNL     1      -7.282  -2.566   3.373  0.00  0.00    -0.244 OA
ENDBRANCH  32  33
ENDBRANCH  24  32
ENDBRANCH  19  23
ENDBRANCH   1  19
TORSDOF 10
