REMARK  Name = ZINC39727435
REMARK  7 active torsions:
REMARK  status: ('A' for Active; 'I' for Inactive)
REMARK    1  A    between atoms: C_1  and  C_2
REMARK    2  A    between atoms: C_2  and  C_3
REMARK    3  A    between atoms: C_2  and  C_4
REMARK    4  A    between atoms: C_7  and  N_10
REMARK    5  A    between atoms: C_11  and  C_13
REMARK    6  A    between atoms: N_15  and  C_32
REMARK    7  A    between atoms: N_22  and  C_25
REMARK                            x       y       z     vdW  Elec       q    Type
REMARK                         _______ _______ _______ _____ _____    ______ ____
ROOT
ATOM      1  C   UNL     1       4.524  -2.862  -5.761  0.00  0.00    +0.072 C 
ATOM      2  C   UNL     1       5.749  -3.512  -5.754  0.00  0.00    +0.085 C 
ATOM      3  N   UNL     1       6.199  -3.751  -7.004  0.00  0.00    -0.322 N 
ATOM      4  C   UNL     1       5.110  -3.447  -7.921  0.00  0.00    +0.208 C 
ATOM      5  C   UNL     1       4.155  -2.605  -7.086  0.00  0.00    +0.078 C 
ATOM      6  N   UNL     1       3.258  -1.830  -7.639  0.00  0.00    -0.164 NA
ATOM      7  C   UNL     1       3.400  -1.538  -8.947  0.00  0.00    +0.337 C 
ATOM      8  O   UNL     1       2.468  -1.035  -9.546  0.00  0.00    -0.250 OA
ATOM      9  N   UNL     1       4.544  -1.788  -9.610  0.00  0.00    -0.191 N 
ATOM     10  C   UNL     1       5.498  -2.641  -9.127  0.00  0.00    +0.254 C 
ATOM     11  O   UNL     1       6.596  -2.744  -9.630  0.00  0.00    -0.272 OA
ATOM     12  C   UNL     1       7.535  -4.228  -7.369  0.00  0.00    +0.130 C 
ENDROOT
BRANCH   9  13
ATOM     13  C   UNL     1       4.766  -1.163 -10.845  0.00  0.00    +0.046 A 
ATOM     14  C   UNL     1       4.785  -1.916 -12.011  0.00  0.00    +0.027 A 
ATOM     15  C   UNL     1       5.003  -1.299 -13.227  0.00  0.00    +0.040 A 
ATOM     16  C   UNL     1       5.203   0.070 -13.284  0.00  0.00    +0.124 A 
ATOM     17  C   UNL     1       5.184   0.823 -12.122  0.00  0.00    +0.040 A 
ATOM     18  C   UNL     1       4.961   0.210 -10.905  0.00  0.00    +0.027 A 
ATOM     19  F   UNL     1       5.416   0.672 -14.475  0.00  0.00    -0.205 F 
ENDBRANCH   9  13
BRANCH   1  21
ATOM     20  N   UNL     1       2.554  -1.878  -4.706  0.00  0.00    -0.281 N 
ATOM     21  C   UNL     1       3.739  -2.506  -4.569  0.00  0.00    +0.251 C 
ATOM     22  O   UNL     1       4.158  -2.780  -3.461  0.00  0.00    -0.270 OA
ATOM     23  H   UNL     1       2.184  -1.727  -5.590  0.00  0.00    +0.155 HD
BRANCH  20  27
ATOM     24  C   UNL     1       0.480  -0.586  -1.332  0.00  0.00    -0.045 A 
ATOM     25  C   UNL     1      -0.215  -1.016  -2.447  0.00  0.00    +0.006 A 
ATOM     26  C   UNL     1       0.469  -1.445  -3.568  0.00  0.00    +0.023 A 
ATOM     27  C   UNL     1       1.858  -1.444  -3.574  0.00  0.00    +0.034 A 
ATOM     28  C   UNL     1       2.554  -1.012  -2.452  0.00  0.00    +0.023 A 
ATOM     29  C   UNL     1       1.863  -0.580  -1.337  0.00  0.00    +0.006 A 
BRANCH  24  31
ATOM     30  C   UNL     1      -1.156   1.072  -0.483  0.00  0.00    +0.012 C 
ATOM     31  C   UNL     1      -0.270  -0.119  -0.112  0.00  0.00    +0.013 C 
ATOM     32  C   UNL     1      -1.142  -1.259   0.418  0.00  0.00    +0.012 C 
ENDBRANCH  24  31
ENDBRANCH  20  27
ENDBRANCH   1  21
TORSDOF 4
