REMARK  Name = ZINC41090608
REMARK  10 active torsions:
REMARK  status: ('A' for Active; 'I' for Inactive)
REMARK    1  A    between atoms: C_1  and  C_2
REMARK    2  A    between atoms: C_2  and  C_3
REMARK    3  A    between atoms: C_6  and  N_9
REMARK    4  A    between atoms: C_10  and  C_12
REMARK    5  A    between atoms: C_12  and  S_13
REMARK    6  A    between atoms: S_13  and  C_14
REMARK    7  A    between atoms: C_18  and  C_26
REMARK    8  A    between atoms: C_22  and  C_24
REMARK    9  A    between atoms: C_24  and  C_25
REMARK   10  A    between atoms: C_26  and  C_27
REMARK                            x       y       z     vdW  Elec       q    Type
REMARK                         _______ _______ _______ _____ _____    ______ ____
ROOT
ATOM      1  S   UNL     1      -8.069  -2.613  -2.797  0.00  0.00    -0.124 S 
ENDROOT
BRANCH   1   2
ATOM      2  C   UNL     1      -9.801  -3.116  -2.602  0.00  0.00    +0.163 C 
ATOM      3  C   UNL     1     -10.693  -2.294  -3.532  0.00  0.00    +0.016 A 
ATOM      4  C   UNL     1     -11.203  -1.037  -3.260  0.00  0.00    +0.019 A 
ATOM      5  C   UNL     1     -11.979  -0.409  -4.179  0.00  0.00    -0.008 A 
ATOM      6  S   UNL     1     -12.028  -1.603  -5.509  0.00  0.00    -0.074 S 
ATOM      7  C   UNL     1     -11.024  -2.847  -4.754  0.00  0.00    +0.109 A 
ATOM      8  N   UNL     1     -10.637  -4.066  -5.186  0.00  0.00    -0.230 NA
ATOM      9  C   UNL     1     -10.078  -4.876  -4.319  0.00  0.00    +0.097 C 
ATOM     10  N   UNL     1      -9.964  -4.524  -2.997  0.00  0.00    -0.317 N 
ATOM     11  H   UNL     1      -9.992  -5.212  -2.314  0.00  0.00    +0.149 HD
BRANCH   9  12
ATOM     12  C   UNL     1      -9.554  -6.212  -4.780  0.00  0.00    +0.068 C 
ATOM     13  C   UNL     1      -9.799  -6.365  -6.283  0.00  0.00    +0.011 C 
ENDBRANCH   9  12
BRANCH   5  14
ATOM     14  C   UNL     1     -12.632   0.946  -4.099  0.00  0.00    +0.039 C 
ATOM     15  C   UNL     1     -11.678   2.006  -4.654  0.00  0.00    +0.009 C 
ENDBRANCH   5  14
ENDBRANCH   1   2
BRANCH   1  16
ATOM     16  C   UNL     1      -7.446  -2.518  -1.097  0.00  0.00    +0.167 C 
BRANCH  16  18
ATOM     17  N   UNL     1      -5.320  -1.968   0.042  0.00  0.00    -0.285 N 
ATOM     18  C   UNL     1      -5.997  -2.104  -1.115  0.00  0.00    +0.227 C 
ATOM     19  O   UNL     1      -5.440  -1.894  -2.172  0.00  0.00    -0.275 OA
ATOM     20  H   UNL     1      -5.742  -2.209   0.882  0.00  0.00    +0.155 HD
BRANCH  17  24
ATOM     21  C   UNL     1      -1.419  -0.507   0.015  0.00  0.00    -0.048 A 
ATOM     22  C   UNL     1      -2.333  -0.051  -0.916  0.00  0.00    +0.005 A 
ATOM     23  C   UNL     1      -3.627  -0.533  -0.910  0.00  0.00    +0.023 A 
ATOM     24  C   UNL     1      -4.010  -1.478   0.033  0.00  0.00    +0.033 A 
ATOM     25  C   UNL     1      -3.089  -1.935   0.967  0.00  0.00    +0.023 A 
ATOM     26  C   UNL     1      -1.795  -1.452   0.952  0.00  0.00    +0.005 A 
BRANCH  21  28
ATOM     27  C   UNL     1       0.858  -0.854  -0.904  0.00  0.00    +0.009 C 
ATOM     28  C   UNL     1      -0.007   0.021   0.005  0.00  0.00    +0.032 C 
ENDBRANCH  21  28
ENDBRANCH  17  24
ENDBRANCH  16  18
ENDBRANCH   1  16
TORSDOF 7
