REMARK  Name = ZINC46818030
REMARK  9 active torsions:
REMARK  status: ('A' for Active; 'I' for Inactive)
REMARK    1  A    between atoms: C_1  and  C_2
REMARK    2  A    between atoms: C_2  and  C_4
REMARK    3  A    between atoms: C_2  and  N_15
REMARK    4  A    between atoms: C_7  and  O_10
REMARK    5  A    between atoms: O_10  and  C_11
REMARK    6  A    between atoms: N_15  and  C_16
REMARK    7  A    between atoms: C_16  and  C_18
REMARK    8  A    between atoms: C_16  and  C_19
REMARK    9  A    between atoms: N_21  and  C_22
REMARK                            x       y       z     vdW  Elec       q    Type
REMARK                         _______ _______ _______ _____ _____    ______ ____
ROOT
ATOM      1  N   UNL     1      -1.367  -0.557   0.029  0.00  0.00    +0.391 N 
ATOM      2  H   UNL     1      -1.870  -0.156  -0.748  0.00  0.00    -0.084 HD
ATOM      3  H   UNL     1      -1.365  -1.563  -0.054  0.00  0.00    -0.084 HD
ENDROOT
BRANCH   1   5
ATOM      4  C   UNL     1       0.013   1.466   0.022  0.00  0.00    -0.009 C 
ATOM      5  C   UNL     1       0.017  -0.064   0.023  0.00  0.00    -0.043 C 
BRANCH   5   6
ATOM      6  C   UNL     1       0.724  -0.564  -1.211  0.00  0.00    -0.061 A 
ATOM      7  C   UNL     1       0.058  -0.595  -2.422  0.00  0.00    +0.005 A 
ATOM      8  C   UNL     1       0.704  -1.054  -3.554  0.00  0.00    +0.046 A 
ATOM      9  C   UNL     1       2.020  -1.484  -3.475  0.00  0.00    +0.130 A 
ATOM     10  C   UNL     1       2.686  -1.452  -2.258  0.00  0.00    +0.046 A 
ATOM     11  C   UNL     1       2.037  -0.987  -1.130  0.00  0.00    +0.005 A 
BRANCH   9  12
ATOM     12  O   UNL     1       2.657  -1.936  -4.587  0.00  0.00    -0.406 OA
BRANCH  12  13
ATOM     13  C   UNL     1       4.012  -2.363  -4.430  0.00  0.00    +0.575 C 
ATOM     14  F   UNL     1       4.066  -3.416  -3.511  0.00  0.00    -0.133 F 
ATOM     15  F   UNL     1       4.510  -2.794  -5.664  0.00  0.00    -0.133 F 
ATOM     16  F   UNL     1       4.786  -1.296  -3.962  0.00  0.00    -0.133 F 
ENDBRANCH  12  13
ENDBRANCH   9  12
ENDBRANCH   5   6
ENDBRANCH   1   5
BRANCH   1  17
ATOM     17  C   UNL     1      -2.019  -0.170   1.287  0.00  0.00    +0.014 C 
ATOM     18  C   UNL     1      -1.332  -0.877   2.457  0.00  0.00    -0.004 C 
BRANCH  17  19
ATOM     19  C   UNL     1      -3.472  -0.568   1.242  0.00  0.00    +0.203 C 
ATOM     20  O   UNL     1      -3.920  -1.120   0.260  0.00  0.00    -0.277 OA
ATOM     21  N   UNL     1      -4.274  -0.311   2.295  0.00  0.00    -0.284 N 
ATOM     22  H   UNL     1      -3.903   0.074   3.104  0.00  0.00    +0.155 HD
BRANCH  21  23
ATOM     23  C   UNL     1      -5.641  -0.599   2.220  0.00  0.00    +0.071 A 
ATOM     24  C   UNL     1      -6.093  -1.700   1.498  0.00  0.00    +0.028 A 
ATOM     25  C   UNL     1      -7.456  -1.944   1.452  0.00  0.00    +0.022 A 
ATOM     26  C   UNL     1      -8.317  -1.094   2.120  0.00  0.00    +0.112 A 
ATOM     27  N   UNL     1      -7.859  -0.059   2.797  0.00  0.00    -0.242 NA
ATOM     28  C   UNL     1      -6.569   0.207   2.870  0.00  0.00    +0.150 A 
ATOM     29 CL   UNL     1      -6.025   1.580   3.782  0.00  0.00    -0.060 Cl
ENDBRANCH  21  23
ENDBRANCH  17  19
ENDBRANCH   1  17
TORSDOF 7
