REMARK  Name = ZINC40914136
REMARK  10 active torsions:
REMARK  status: ('A' for Active; 'I' for Inactive)
REMARK    1  A    between atoms: C_1  and  C_2
REMARK    2  A    between atoms: C_2  and  O_3
REMARK    3  A    between atoms: O_3  and  C_4
REMARK    4  A    between atoms: C_6  and  C_20
REMARK    5  A    between atoms: C_9  and  O_10
REMARK    6  A    between atoms: O_10  and  C_11
REMARK    7  A    between atoms: C_11  and  C_12
REMARK    8  A    between atoms: C_22  and  C_31
REMARK    9  A    between atoms: C_23  and  C_30
REMARK   10  A    between atoms: C_31  and  C_33
REMARK                            x       y       z     vdW  Elec       q    Type
REMARK                         _______ _______ _______ _____ _____    ______ ____
ROOT
ATOM      1  C   UNL     1      -1.298  -1.777  -0.202  0.00  0.00    +0.163 A 
ATOM      2  C   UNL     1      -0.226  -2.655  -0.183  0.00  0.00    +0.055 A 
ATOM      3  C   UNL     1      -0.449  -4.017  -0.118  0.00  0.00    -0.014 A 
ATOM      4  C   UNL     1      -1.741  -4.508  -0.072  0.00  0.00    +0.025 A 
ATOM      5  C   UNL     1      -2.816  -3.638  -0.092  0.00  0.00    +0.063 A 
ATOM      6  C   UNL     1      -2.598  -2.269  -0.150  0.00  0.00    +0.176 A 
ATOM      7 BR   UNL     1      -4.581  -4.313  -0.031  0.00  0.00    -0.046 Br
ENDROOT
BRANCH   3   8
ATOM      8  C   UNL     1       0.718  -4.970  -0.097  0.00  0.00    +0.176 C 
ATOM      9  C   UNL     1       0.636  -5.891  -1.285  0.00  0.00    +0.040 C 
ATOM     10  C   UNL     1       0.306  -7.194  -1.182  0.00  0.00    +0.016 C 
ATOM     11  N   UNL     1       0.030  -7.783   0.023  0.00  0.00    -0.287 N 
ATOM     12  C   UNL     1       0.353  -7.073   1.172  0.00  0.00    +0.218 A 
ATOM     13  N   UNL     1       0.682  -5.758   1.132  0.00  0.00    -0.221 N 
ATOM     14  N   UNL     1       0.952  -5.376   2.446  0.00  0.00    -0.156 NA
ATOM     15  C   UNL     1       0.774  -6.439   3.192  0.00  0.00    +0.247 A 
ATOM     16  N   UNL     1       0.410  -7.465   2.415  0.00  0.00    -0.201 NA
ATOM     17  C   UNL     1       0.237  -8.029  -2.434  0.00  0.00    +0.061 C 
ATOM     18  H   UNL     1      -0.376  -8.663   0.073  0.00  0.00    +0.155 HD
BRANCH   9  19
ATOM     19  C   UNL     1       0.914  -5.370  -2.557  0.00  0.00    +0.160 C 
ATOM     20  O   UNL     1       1.897  -5.746  -3.166  0.00  0.00    -0.293 OA
ATOM     21  C   UNL     1      -0.004  -4.344  -3.169  0.00  0.00    +0.091 C 
ENDBRANCH   9  19
ENDBRANCH   3   8
BRANCH   1  22
ATOM     22  O   UNL     1      -1.080  -0.436  -0.267  0.00  0.00    -0.489 OA
BRANCH  22  24
ATOM     23  C   UNL     1       0.326   1.526  -0.386  0.00  0.00    +0.048 C 
ATOM     24  C   UNL     1       0.281  -0.002  -0.317  0.00  0.00    +0.226 C 
ENDBRANCH  22  24
ENDBRANCH   1  22
BRANCH   6  25
ATOM     25  O   UNL     1      -3.653  -1.412  -0.164  0.00  0.00    -0.483 OA
BRANCH  25  26
ATOM     26  C   UNL     1      -4.186  -1.058  -1.442  0.00  0.00    +0.266 C 
BRANCH  26  27
ATOM     27  C   UNL     1      -5.341  -0.107  -1.260  0.00  0.00    +0.008 A 
ATOM     28  C   UNL     1      -5.718   0.287   0.011  0.00  0.00    +0.008 A 
ATOM     29  C   UNL     1      -6.777   1.159   0.178  0.00  0.00    +0.000 A 
ATOM     30  C   UNL     1      -7.460   1.638  -0.925  0.00  0.00    +0.001 A 
ATOM     31  C   UNL     1      -7.084   1.245  -2.195  0.00  0.00    +0.020 A 
ATOM     32  C   UNL     1      -6.020   0.376  -2.364  0.00  0.00    +0.047 A 
ATOM     33 CL   UNL     1      -5.543  -0.114  -3.959  0.00  0.00    -0.083 Cl
ENDBRANCH  26  27
ENDBRANCH  25  26
ENDBRANCH   6  25
TORSDOF 7
