REMARK  Name = ZINC64927741
REMARK  5 active torsions:
REMARK  status: ('A' for Active; 'I' for Inactive)
REMARK    1  A    between atoms: C_1  and  C_2
REMARK    2  A    between atoms: C_5  and  N_9
REMARK    3  A    between atoms: C_19  and  C_22
REMARK    4  A    between atoms: N_24  and  C_25
REMARK    5  A    between atoms: C_29  and  C_31
REMARK                            x       y       z     vdW  Elec       q    Type
REMARK                         _______ _______ _______ _____ _____    ______ ____
ROOT
ATOM      1  N   UNL     1       0.128  -3.717  -0.293  0.00  0.00    -0.195 N 
ATOM      2  C   UNL     1       0.347  -4.279   0.912  0.00  0.00    +0.272 A 
ATOM      3  O   UNL     1       0.440  -3.580   1.909  0.00  0.00    -0.266 OA
ATOM      4  C   UNL     1       0.468  -5.679   1.015  0.00  0.00    +0.075 A 
ATOM      5  C   UNL     1       0.361  -6.441  -0.107  0.00  0.00    +0.051 A 
ATOM      6  C   UNL     1       0.131  -5.822  -1.352  0.00  0.00    +0.142 A 
ATOM      7  N   UNL     1       0.015  -4.519  -1.435  0.00  0.00    -0.148 NA
ATOM      8  N   UNL     1       0.022  -6.601  -2.502  0.00  0.00    -0.314 N 
ATOM      9  C   UNL     1       0.039  -8.068  -2.417  0.00  0.00    +0.107 C 
ATOM     10  C   UNL     1       1.121  -8.604  -3.359  0.00  0.00    +0.032 C 
ATOM     11  C   UNL     1       0.881  -8.059  -4.769  0.00  0.00    +0.078 C 
ATOM     12  C   UNL     1       0.971  -6.531  -4.749  0.00  0.00    +0.032 C 
ATOM     13  C   UNL     1      -0.119  -5.972  -3.822  0.00  0.00    +0.107 C 
ENDROOT
BRANCH   1  18
ATOM     14  C   UNL     1      -0.367   1.917  -0.737  0.00  0.00    +0.045 C 
ATOM     15  C   UNL     1      -0.235   0.421  -0.619  0.00  0.00    -0.032 A 
ATOM     16  C   UNL     1      -1.173  -0.404  -1.214  0.00  0.00    +0.007 A 
ATOM     17  C   UNL     1      -1.055  -1.775  -1.108  0.00  0.00    +0.028 A 
ATOM     18  C   UNL     1       0.007  -2.328  -0.402  0.00  0.00    +0.071 A 
ATOM     19  C   UNL     1       0.947  -1.498   0.194  0.00  0.00    +0.048 A 
ATOM     20  C   UNL     1       0.827  -0.126   0.080  0.00  0.00    +0.046 A 
ATOM     21 CL   UNL     1       2.005   0.913   0.819  0.00  0.00    -0.083 Cl
ENDBRANCH   1  18
BRANCH  11  22
ATOM     22  C   UNL     1       1.925  -8.611  -5.706  0.00  0.00    +0.220 C 
ATOM     23  O   UNL     1       2.776  -9.366  -5.287  0.00  0.00    -0.275 OA
ATOM     24  N   UNL     1       1.911  -8.266  -7.008  0.00  0.00    -0.285 N 
ATOM     25  H   UNL     1       1.272  -7.611  -7.330  0.00  0.00    +0.155 HD
BRANCH  24  26
ATOM     26  C   UNL     1       2.819  -8.852  -7.897  0.00  0.00    +0.034 A 
ATOM     27  C   UNL     1       3.310  -8.123  -8.972  0.00  0.00    +0.023 A 
ATOM     28  C   UNL     1       4.206  -8.705  -9.848  0.00  0.00    +0.002 A 
ATOM     29  C   UNL     1       4.614 -10.013  -9.654  0.00  0.00    +0.012 A 
ATOM     30  C   UNL     1       4.126 -10.741  -8.585  0.00  0.00    +0.057 A 
ATOM     31  C   UNL     1       3.235 -10.163  -7.702  0.00  0.00    +0.035 A 
BRANCH  30  32
ATOM     32  C   UNL     1       4.573 -12.166  -8.379  0.00  0.00    +0.417 C 
ATOM     33  F   UNL     1       5.473 -12.523  -9.388  0.00  0.00    -0.166 F 
ATOM     34  F   UNL     1       5.199 -12.282  -7.133  0.00  0.00    -0.166 F 
ATOM     35  F   UNL     1       3.461 -13.014  -8.424  0.00  0.00    -0.166 F 
ENDBRANCH  30  32
ENDBRANCH  24  26
ENDBRANCH  11  22
TORSDOF 4
