REMARK  Name = ZINC21522556
REMARK  3 active torsions:
REMARK  status: ('A' for Active; 'I' for Inactive)
REMARK    1  A    between atoms: C_6  and  S_7
REMARK    2  A    between atoms: S_7  and  C_10
REMARK    3  A    between atoms: C_19  and  N_20
REMARK                            x       y       z     vdW  Elec       q    Type
REMARK                         _______ _______ _______ _____ _____    ______ ____
ROOT
ATOM      1  C   UNL     1       1.122   4.423   1.680  0.00  0.00    +0.133 A 
ATOM      2  C   UNL     1       2.206   5.124   2.191  0.00  0.00    +0.140 A 
ATOM      3  N   UNL     1       2.277   5.463   3.457  0.00  0.00    -0.253 NA
ATOM      4  C   UNL     1       1.308   5.148   4.325  0.00  0.00    +0.077 A 
ATOM      5  C   UNL     1       1.401   5.516   5.676  0.00  0.00    +0.077 A 
ATOM      6  C   UNL     1       0.402   5.181   6.547  0.00  0.00    +0.164 A 
ATOM      7  C   UNL     1      -0.726   4.476   6.105  0.00  0.00    +0.163 A 
ATOM      8  C   UNL     1      -0.844   4.105   4.795  0.00  0.00    +0.061 A 
ATOM      9  C   UNL     1       0.169   4.433   3.882  0.00  0.00    +0.027 A 
ATOM     10  C   UNL     1       0.077   4.067   2.519  0.00  0.00    +0.066 A 
ATOM     11  O   UNL     1      -1.724   4.149   6.973  0.00  0.00    -0.485 OA
ATOM     12  C   UNL     1      -1.408   4.205   8.368  0.00  0.00    +0.270 C 
ATOM     13  C   UNL     1      -0.674   5.525   8.641  0.00  0.00    +0.270 C 
ATOM     14  O   UNL     1       0.522   5.544   7.854  0.00  0.00    -0.485 OA
ENDROOT
BRANCH  10  15
ATOM     15  N   UNL     1      -1.022   3.371   2.037  0.00  0.00    -0.323 N 
ATOM     16  C   UNL     1      -2.254   4.159   2.193  0.00  0.00    +0.133 C 
ATOM     17  C   UNL     1      -3.429   3.380   1.596  0.00  0.00    +0.178 C 
ATOM     18  O   UNL     1      -3.520   2.102   2.231  0.00  0.00    -0.377 OA
ATOM     19  C   UNL     1      -2.337   1.308   2.098  0.00  0.00    +0.178 C 
ATOM     20  C   UNL     1      -1.151   2.066   2.700  0.00  0.00    +0.133 C 
ENDBRANCH  10  15
BRANCH   1  21
ATOM     21  S   UNL     1       1.072   3.992  -0.028  0.00  0.00    +0.028 S 
ATOM     22  O   UNL     1       2.279   4.472  -0.603  0.00  0.00    -0.164 OA
ATOM     23  O   UNL     1      -0.208   4.381  -0.507  0.00  0.00    -0.164 OA
BRANCH  21  29
ATOM     24  C   UNL     1      -0.040   1.500  -0.115  0.00  0.00    +0.029 A 
ATOM     25  C   UNL     1       0.007   0.121  -0.190  0.00  0.00    +0.022 A 
ATOM     26  C   UNL     1       1.227  -0.526  -0.274  0.00  0.00    +0.041 A 
ATOM     27  C   UNL     1       2.400   0.208  -0.283  0.00  0.00    +0.022 A 
ATOM     28  C   UNL     1       2.352   1.588  -0.208  0.00  0.00    +0.029 A 
ATOM     29  C   UNL     1       1.132   2.233  -0.123  0.00  0.00    +0.094 A 
ATOM     30 CL   UNL     1       1.287  -2.258  -0.369  0.00  0.00    -0.084 Cl
ENDBRANCH  21  29
ENDBRANCH   1  21
TORSDOF 3
