REMARK  Name = ZINC64121021
REMARK  6 active torsions:
REMARK  status: ('A' for Active; 'I' for Inactive)
REMARK    1  A    between atoms: C_1  and  C_2
REMARK    2  A    between atoms: C_5  and  N_9
REMARK    3  A    between atoms: C_10  and  C_12
REMARK    4  A    between atoms: C_12  and  N_13
REMARK    5  A    between atoms: C_14  and  C_16
REMARK    6  A    between atoms: C_18  and  C_27
REMARK                            x       y       z     vdW  Elec       q    Type
REMARK                         _______ _______ _______ _____ _____    ______ ____
ROOT
ATOM      1  N   UNL     1      -0.234  -6.825  -2.571  0.00  0.00    -0.305 N 
ATOM      2  C   UNL     1      -0.329  -8.147  -2.818  0.00  0.00    +0.242 C 
ATOM      3  O   UNL     1      -0.333  -8.937  -1.897  0.00  0.00    -0.273 OA
ATOM      4  H   UNL     1      -0.231  -6.193  -3.307  0.00  0.00    +0.149 HD
ENDROOT
BRANCH   2   5
ATOM      5  C   UNL     1      -0.429  -8.643  -4.237  0.00  0.00    +0.217 C 
ATOM      6  C   UNL     1      -1.856  -8.520  -4.734  0.00  0.00    -0.028 C 
ATOM      7  C   UNL     1      -2.239  -9.766  -5.036  0.00  0.00    +0.040 C 
ATOM      8  C   UNL     1      -1.131 -10.711  -4.741  0.00  0.00    +0.048 C 
ATOM      9  N   UNL     1      -0.106 -10.075  -4.298  0.00  0.00    -0.270 NA
ATOM     10  C   UNL     1      -1.288 -12.199  -4.938  0.00  0.00    +0.056 C 
ATOM     11  C   UNL     1      -2.434 -12.505  -5.883  0.00  0.00    +0.014 C 
ATOM     12  C   UNL     1      -3.717 -11.754  -5.599  0.00  0.00    +0.080 C 
ATOM     13  C   UNL     1      -3.516 -10.258  -5.588  0.00  0.00    +0.165 C 
ATOM     14  O   UNL     1      -4.362  -9.499  -6.010  0.00  0.00    -0.292 OA
ATOM     15  C   UNL     1      -2.672  -7.259  -4.862  0.00  0.00    +0.042 C 
ENDBRANCH   2   5
BRANCH   1  16
ATOM     16  C   UNL     1      -0.136  -6.343  -1.191  0.00  0.00    +0.200 C 
BRANCH  16  18
ATOM     17  N   UNL     1       0.057  -4.171  -0.023  0.00  0.00    -0.283 N 
ATOM     18  C   UNL     1      -0.042  -4.839  -1.190  0.00  0.00    +0.234 C 
ATOM     19  O   UNL     1      -0.055  -4.230  -2.238  0.00  0.00    -0.274 OA
ATOM     20  H   UNL     1       0.149  -4.660   0.809  0.00  0.00    +0.155 HD
BRANCH  17  25
ATOM     21  C   UNL     1      -0.064   1.502   0.016  0.00  0.00    +0.044 C 
ATOM     22  C   UNL     1      -0.031  -0.005   0.006  0.00  0.00    -0.049 A 
ATOM     23  C   UNL     1      -0.622  -0.701  -1.033  0.00  0.00    +0.005 A 
ATOM     24  C   UNL     1      -0.594  -2.082  -1.045  0.00  0.00    +0.025 A 
ATOM     25  C   UNL     1       0.028  -2.772  -0.014  0.00  0.00    +0.052 A 
ATOM     26  C   UNL     1       0.621  -2.070   1.029  0.00  0.00    +0.062 A 
ATOM     27  C   UNL     1       0.595  -0.688   1.032  0.00  0.00    +0.025 A 
ATOM     28 CL   UNL     1       1.401  -2.928   2.321  0.00  0.00    -0.082 Cl
ENDBRANCH  17  25
ENDBRANCH  16  18
ENDBRANCH   1  16
TORSDOF 4
