REMARK  Name = ZINC28938447
REMARK  6 active torsions:
REMARK  status: ('A' for Active; 'I' for Inactive)
REMARK    1  A    between atoms: C_1  and  C_2
REMARK    2  A    between atoms: C_5  and  N_9
REMARK    3  A    between atoms: C_7  and  C_8
REMARK    4  A    between atoms: C_10  and  C_12
REMARK    5  A    between atoms: C_12  and  N_13
REMARK    6  A    between atoms: C_23  and  C_26
REMARK                            x       y       z     vdW  Elec       q    Type
REMARK                         _______ _______ _______ _____ _____    ______ ____
ROOT
ATOM      1  N   UNL     1      -1.096   1.655  -1.428  0.00  0.00    +0.386 N 
ATOM      2  C   UNL     1      -0.936   3.108  -1.651  0.00  0.00    -0.077 C 
ATOM      3  C   UNL     1      -2.121   3.819  -1.047  0.00  0.00    +0.000 C 
ATOM      4  C   UNL     1      -1.853   4.260   0.401  0.00  0.00    +0.104 C 
ATOM      5  N   UNL     1      -1.134   3.228   1.183  0.00  0.00    -0.316 N 
ATOM      6  C   UNL     1      -1.608   1.882   0.947  0.00  0.00    +0.088 C 
ATOM      7  C   UNL     1      -0.734   1.231  -0.144  0.00  0.00    -0.059 C 
ATOM      8  C   UNL     1      -1.148   3.532   2.540  0.00  0.00    +0.140 A 
ATOM      9  C   UNL     1       0.053   3.735   3.214  0.00  0.00    +0.081 A 
ATOM     10  C   UNL     1       0.024   4.036   4.564  0.00  0.00    +0.037 A 
ATOM     11  C   UNL     1      -1.209   4.125   5.197  0.00  0.00    +0.074 A 
ATOM     12  C   UNL     1      -2.360   3.912   4.467  0.00  0.00    +0.125 A 
ATOM     13  N   UNL     1      -2.303   3.631   3.179  0.00  0.00    -0.238 NA
ATOM     14 CL   UNL     1       1.567   3.612   2.372  0.00  0.00    -0.080 Cl
ATOM     15  H   UNL     1      -2.173   1.430  -1.456  0.00  0.00    -0.081 HD
ENDROOT
BRANCH  11  16
ATOM     16  C   UNL     1      -1.289   4.450   6.666  0.00  0.00    +0.419 C 
ATOM     17  F   UNL     1      -1.369   5.837   6.833  0.00  0.00    -0.166 F 
ATOM     18  F   UNL     1      -2.425   3.848   7.216  0.00  0.00    -0.166 F 
ATOM     19  F   UNL     1      -0.146   3.968   7.314  0.00  0.00    -0.166 F 
ENDBRANCH  11  16
BRANCH   1  20
ATOM     20  C   UNL     1      -0.387   0.883  -2.457  0.00  0.00    +0.019 C 
BRANCH  20  22
ATOM     21  N   UNL     1      -0.324  -1.452  -3.271  0.00  0.00    -0.287 N 
ATOM     22  C   UNL     1      -0.843  -0.553  -2.412  0.00  0.00    +0.201 C 
ATOM     23  O   UNL     1      -1.677  -0.899  -1.602  0.00  0.00    -0.278 OA
ATOM     24  H   UNL     1       0.485  -1.156  -3.955  0.00  0.00    +0.155 HD
BRANCH  21  29
ATOM     25  C   UNL     1      -2.316  -6.763  -3.362  0.00  0.00    +0.044 C 
ATOM     26  C   UNL     1      -1.786  -5.353  -3.337  0.00  0.00    -0.047 A 
ATOM     27  C   UNL     1      -1.702  -4.668  -2.139  0.00  0.00    +0.005 A 
ATOM     28  C   UNL     1      -1.212  -3.377  -2.113  0.00  0.00    +0.023 A 
ATOM     29  C   UNL     1      -0.815  -2.762  -3.293  0.00  0.00    +0.034 A 
ATOM     30  C   UNL     1      -0.901  -3.453  -4.495  0.00  0.00    +0.027 A 
ATOM     31  C   UNL     1      -1.386  -4.746  -4.514  0.00  0.00    -0.046 A 
ATOM     32  C   UNL     1      -1.480  -5.496  -5.817  0.00  0.00    +0.044 C 
ENDBRANCH  21  29
ENDBRANCH  20  22
ENDBRANCH   1  20
TORSDOF 4
