REMARK  Name = ZINC64774841
REMARK  8 active torsions:
REMARK  status: ('A' for Active; 'I' for Inactive)
REMARK    1  A    between atoms: C_1  and  C_2
REMARK    2  A    between atoms: C_6  and  C_12
REMARK    3  A    between atoms: C_7  and  N_8
REMARK    4  A    between atoms: C_9  and  C_11
REMARK    5  A    between atoms: C_16  and  S_19
REMARK    6  A    between atoms: S_19  and  C_20
REMARK    7  A    between atoms: C_20  and  C_21
REMARK    8  A    between atoms: N_23  and  C_24
REMARK                            x       y       z     vdW  Elec       q    Type
REMARK                         _______ _______ _______ _____ _____    ______ ____
ROOT
ATOM      1  C   UNL     1       0.187  -1.897   2.848  0.00  0.00    +0.161 A 
ATOM      2  C   UNL     1       0.084  -3.225   3.302  0.00  0.00    +0.300 A 
ATOM      3  O   UNL     1       0.188  -4.262   2.436  0.00  0.00    -0.263 OA
ATOM      4  N   UNL     1      -0.118  -3.440   4.595  0.00  0.00    -0.180 NA
ATOM      5  C   UNL     1      -0.216  -2.405   5.422  0.00  0.00    +0.213 A 
ATOM      6  N   UNL     1      -0.116  -1.159   4.973  0.00  0.00    -0.122 NA
ATOM      7  N   UNL     1       0.085  -0.907   3.727  0.00  0.00    -0.141 NA
ENDROOT
BRANCH   1  13
ATOM      8  C   UNL     1       2.478   0.739  -0.735  0.00  0.00    +0.045 C 
ATOM      9  C   UNL     1       1.514  -0.340  -0.317  0.00  0.00    -0.029 A 
ATOM     10  C   UNL     1       0.833  -1.067  -1.275  0.00  0.00    +0.005 A 
ATOM     11  C   UNL     1      -0.055  -2.060  -0.899  0.00  0.00    +0.001 A 
ATOM     12  C   UNL     1      -0.268  -2.333   0.437  0.00  0.00    +0.012 A 
ATOM     13  C   UNL     1       0.412  -1.608   1.413  0.00  0.00    +0.029 A 
ATOM     14  C   UNL     1       1.314  -0.608   1.029  0.00  0.00    +0.046 A 
BRANCH  14  15
ATOM     15  N   UNL     1       2.007   0.122   1.999  0.00  0.00    -0.285 N 
ATOM     16  C   UNL     1       2.723  -0.521   2.943  0.00  0.00    +0.214 C 
ATOM     17  O   UNL     1       2.683  -1.731   3.015  0.00  0.00    -0.276 OA
ATOM     18  C   UNL     1       3.573   0.264   3.909  0.00  0.00    +0.109 C 
ATOM     19  H   UNL     1       1.972   1.092   1.994  0.00  0.00    +0.155 HD
ENDBRANCH  14  15
ENDBRANCH   1  13
BRANCH   5  20
ATOM     20  S   UNL     1      -0.485  -2.688   7.140  0.00  0.00    -0.075 S 
BRANCH  20  21
ATOM     21  C   UNL     1      -0.550  -1.023   7.855  0.00  0.00    +0.173 C 
BRANCH  21  22
ATOM     22  C   UNL     1      -0.778  -1.123   9.341  0.00  0.00    +0.228 C 
ATOM     23  O   UNL     1      -0.886  -2.211   9.867  0.00  0.00    -0.275 OA
ATOM     24  N   UNL     1      -0.862  -0.003  10.087  0.00  0.00    -0.283 N 
ATOM     25  H   UNL     1      -0.853   0.867   9.659  0.00  0.00    +0.155 HD
BRANCH  24  26
ATOM     26  C   UNL     1      -0.962  -0.096  11.482  0.00  0.00    +0.069 A 
ATOM     27  C   UNL     1      -0.572  -1.260  12.131  0.00  0.00    +0.029 A 
ATOM     28  C   UNL     1      -0.671  -1.350  13.506  0.00  0.00    +0.040 A 
ATOM     29  C   UNL     1      -1.159  -0.281  14.238  0.00  0.00    +0.126 A 
ATOM     30  C   UNL     1      -1.549   0.882  13.595  0.00  0.00    +0.078 A 
ATOM     31  C   UNL     1      -1.446   0.979  12.219  0.00  0.00    +0.147 A 
ATOM     32  F   UNL     1      -1.821   2.115  11.591  0.00  0.00    -0.203 F 
ATOM     33  F   UNL     1      -1.255  -0.372  15.583  0.00  0.00    -0.205 F 
ENDBRANCH  24  26
ENDBRANCH  21  22
ENDBRANCH  20  21
ENDBRANCH   5  20
TORSDOF 6
