REMARK  Name = ZINC08790050
REMARK  15 active torsions:
REMARK  status: ('A' for Active; 'I' for Inactive)
REMARK    1  A    between atoms: C_1  and  C_2
REMARK    2  A    between atoms: C_2  and  C_4
REMARK    3  A    between atoms: C_2  and  N_27
REMARK    4  A    between atoms: N_6  and  C_7
REMARK    5  A    between atoms: C_7  and  C_8
REMARK    6  A    between atoms: C_12  and  C_16
REMARK    7  A    between atoms: N_18  and  CA_19
REMARK    8  A    between atoms: CA_19  and  CB_21
REMARK    9  A    between atoms: CA_19  and  C_25
REMARK   10  A    between atoms: CB_21  and  CG_22
REMARK   11  A    between atoms: C_28  and  O_30
REMARK   12  A    between atoms: O_30  and  C_31
REMARK   13  A    between atoms: C_31  and  C_32
REMARK   14  A    between atoms: C_31  and  C_33
REMARK   15  A    between atoms: C_31  and  C_34
REMARK                            x       y       z     vdW  Elec       q    Type
REMARK                         _______ _______ _______ _____ _____    ______ ____
ROOT
ATOM      1  C   UNK A   0       4.625   8.348  -1.286  0.00  0.00    +0.006 C 
ATOM      2  C   UNK A   0       5.090   8.578   0.154  0.00  0.00    +0.006 C 
ATOM      3  C   UNK A   0       6.443   9.291   0.145  0.00  0.00    +0.013 C 
ATOM      4  C   UNK A   0       6.305  10.638  -0.568  0.00  0.00    +0.075 C 
ATOM      5  C   UNK A   0       5.840  10.408  -2.007  0.00  0.00    +0.013 C 
ATOM      6  C   UNK A   0       4.487   9.695  -1.998  0.00  0.00    +0.006 C 
ENDROOT
BRANCH   4   7
ATOM      7  C   UNK A   0       7.639  11.341  -0.577  0.00  0.00    +0.217 C 
ATOM      8  O   UNK A   0       8.165  11.629  -1.631  0.00  0.00    -0.275 OA
ATOM      9  N   ASN A   1       8.246  11.648   0.586  0.00  0.00    -0.302 N 
ATOM     10  H   ASN A   1       7.825  11.418   1.429  0.00  0.00    +0.150 HD
BRANCH   9  11
ATOM     11  CA  ASN A   1       9.542  12.331   0.577  0.00  0.00    +0.195 C 
BRANCH  11  12
ATOM     12  C   ASN A   1      10.645  11.314   0.438  0.00  0.00    +0.376 C 
ATOM     13  O   ASN A   1      10.376  10.139   0.354  0.00  0.00    -0.244 OA
ATOM     14  OXT ASN A   1      11.926  11.713   0.406  0.00  0.00    -0.244 OA
ENDBRANCH  11  12
BRANCH  11  15
ATOM     15  CB  ASN A   1       9.722  13.101   1.887  0.00  0.00    +0.129 C 
BRANCH  15  16
ATOM     16  CG  ASN A   1       8.693  14.200   1.969  0.00  0.00    +0.213 C 
ATOM     17  OD1 ASN A   1       7.895  14.351   1.069  0.00  0.00    -0.276 OA
ATOM     18  ND2 ASN A   1       8.660  15.013   3.043  0.00  0.00    -0.329 N 
ATOM     19 HD21 ASN A   1       9.299  14.891   3.764  0.00  0.00    +0.145 HD
ATOM     20 HD22 ASN A   1       7.998  15.720   3.096  0.00  0.00    +0.145 HD
ENDBRANCH  15  16
ENDBRANCH  11  15
ENDBRANCH   9  11
ENDBRANCH   4   7
BRANCH   1  21
ATOM     21  C   UNK A   0       3.271   7.635  -1.276  0.00  0.00    +0.107 C 
BRANCH  21  24
ATOM     22  C   UNK A   0       2.361   5.481  -0.592  0.00  0.00    +0.233 C 
ATOM     23  O   UNK A   0       1.270   5.855  -0.969  0.00  0.00    -0.274 OA
ATOM     24  N   UNK A   0       3.428   6.297  -0.701  0.00  0.00    -0.314 N 
ATOM     25  H   UNK A   0       4.300   5.998  -0.400  0.00  0.00    +0.149 HD
BRANCH  22  27
ATOM     26  C   UNK A   0       3.046   4.224   1.433  0.00  0.00    +0.038 C 
ATOM     27  C   UNK A   0       2.522   4.105   0.000  0.00  0.00    +0.159 C 
BRANCH  27  28
ATOM     28  N   UNK A   0       1.226   3.422   0.009  0.00  0.00    -0.270 N 
ATOM     29  C   UNK A   0       1.174   2.075   0.002  0.00  0.00    +0.401 C 
ATOM     30  O   UNK A   0       2.201   1.427  -0.011  0.00  0.00    -0.226 OA
ATOM     31  H   UNK A   0       0.405   3.939   0.019  0.00  0.00    +0.153 HD
BRANCH  29  32
ATOM     32  O   UNK A   0      -0.018   1.448   0.010  0.00  0.00    -0.445 OA
BRANCH  32  33
ATOM     33  C   UNK A   0       0.002  -0.004   0.002  0.00  0.00    +0.107 C 
ATOM     34  C   UNK A   0       0.742  -0.511   1.242  0.00  0.00    +0.055 C 
ATOM     35  C   UNK A   0      -1.433  -0.534   0.013  0.00  0.00    +0.055 C 
ATOM     36  C   UNK A   0       0.718  -0.497  -1.257  0.00  0.00    +0.055 C 
ENDBRANCH  32  33
ENDBRANCH  29  32
ENDBRANCH  27  28
ENDBRANCH  22  27
ENDBRANCH  21  24
ENDBRANCH   1  21
TORSDOF 11
