REMARK  Name = ZINC44699796
REMARK  4 active torsions:
REMARK  status: ('A' for Active; 'I' for Inactive)
REMARK    1  A    between atoms: C_1  and  C_2
REMARK    2  A    between atoms: C_13  and  C_14
REMARK    3  A    between atoms: C_13  and  O_15
REMARK    4  A    between atoms: C_20  and  C_29
REMARK                            x       y       z     vdW  Elec       q    Type
REMARK                         _______ _______ _______ _____ _____    ______ ____
ROOT
ATOM      1  C   UNL     1      -0.019   1.526   0.010  0.00  0.00    +0.014 C 
ATOM      2  C   UNL     1       0.002  -0.004   0.002  0.00  0.00    -0.000 C 
ATOM      3  C   UNL     1       0.603  -0.557  -1.292  0.00  0.00    +0.010 C 
ATOM      4  C   UNL     1       2.111  -0.327  -1.333  0.00  0.00    +0.005 C 
ATOM      5  C   UNL     1       2.753  -1.089  -0.169  0.00  0.00    -0.001 C 
ATOM      6  C   UNL     1       2.230  -0.495   1.140  0.00  0.00    -0.004 C 
ATOM      7  C   UNL     1       0.736  -0.574   1.229  0.00  0.00    +0.001 C 
ATOM      8  C   UNL     1       0.232  -2.027   1.306  0.00  0.00    +0.007 C 
ATOM      9  C   UNL     1      -1.267  -1.908   0.945  0.00  0.00    +0.035 C 
ATOM     10  C   UNL     1      -1.422  -0.605   0.138  0.00  0.00    +0.069 C 
ATOM     11  C   UNL     1      -1.998  -0.911  -1.247  0.00  0.00    +0.042 C 
ATOM     12  C   UNL     1       2.886  -1.197   2.329  0.00  0.00    +0.004 C 
ATOM     13  C   UNL     1       4.407  -1.038   2.253  0.00  0.00    +0.005 C 
ATOM     14  C   UNL     1       4.907  -1.676   0.948  0.00  0.00    +0.001 C 
ATOM     15  C   UNL     1       4.272  -0.938  -0.236  0.00  0.00    -0.022 C 
ATOM     16  C   UNL     1       4.811  -1.451  -1.569  0.00  0.00    +0.045 C 
ATOM     17  C   UNL     1       4.756  -2.958  -1.574  0.00  0.00    -0.006 A 
ATOM     18  C   UNL     1       4.868  -3.816  -2.666  0.00  0.00    +0.138 A 
ATOM     19  N   UNL     1       4.767  -5.046  -2.227  0.00  0.00    -0.182 NA
ATOM     20  N   UNL     1       4.587  -5.004  -0.837  0.00  0.00    -0.281 N 
ATOM     21  H   UNL     1       4.483  -5.770  -0.251  0.00  0.00    +0.189 HD
ATOM     22  C   UNL     1       4.584  -3.714  -0.461  0.00  0.00    +0.040 A 
ATOM     23  C   UNL     1       4.438  -3.139   0.927  0.00  0.00    +0.059 C 
ATOM     24  C   UNL     1       4.627   0.546  -0.115  0.00  0.00    +0.012 C 
ENDROOT
BRANCH  10  25
ATOM     25  O   UNL     1      -2.275   0.305   0.835  0.00  0.00    -0.388 OA
ATOM     26  H   UNL     1      -3.180  -0.014   0.951  0.00  0.00    +0.210 HD
ENDBRANCH  10  25
TORSDOF 1
