REMARK  Name = ZINC33812178
REMARK  11 active torsions:
REMARK  status: ('A' for Active; 'I' for Inactive)
REMARK    1  A    between atoms: C_1  and  C_2
REMARK    2  A    between atoms: C_3  and  C_22
REMARK    3  A    between atoms: C_4  and  N_12
REMARK    4  A    between atoms: N_5  and  C_11
REMARK    5  A    between atoms: C_8  and  C_9
REMARK    6  A    between atoms: C_14  and  C_21
REMARK    7  A    between atoms: C_17  and  C_20
REMARK    8  A    between atoms: N_26  and  C_30
REMARK    9  A    between atoms: C_30  and  C_31
REMARK   10  A    between atoms: C_31  and  C_32
REMARK   11  A    between atoms: C_31  and  C_33
REMARK                            x       y       z     vdW  Elec       q    Type
REMARK                         _______ _______ _______ _____ _____    ______ ____
ROOT
ATOM      1  C   UNL     1      -0.314   1.753   0.114  0.00  0.00    +0.046 C 
ATOM      2  C   UNL     1      -0.282   0.247   0.122  0.00  0.00    -0.017 A 
ATOM      3  C   UNL     1      -1.477  -0.493   0.147  0.00  0.00    +0.019 A 
ATOM      4  C   UNL     1      -1.421  -1.896   0.154  0.00  0.00    +0.111 A 
ATOM      5  N   UNL     1      -0.224  -2.538   0.138  0.00  0.00    -0.298 N 
ATOM      6  C   UNL     1       0.933  -1.854   0.114  0.00  0.00    +0.270 A 
ATOM      7  O   UNL     1       1.992  -2.456   0.099  0.00  0.00    -0.266 OA
ATOM      8  C   UNL     1       0.931  -0.435   0.100  0.00  0.00    +0.120 A 
ATOM      9  C   UNL     1      -0.194  -4.003   0.146  0.00  0.00    +0.154 C 
ENDROOT
BRANCH   4  10
ATOM     10  N   UNL     1      -2.577  -2.620   0.179  0.00  0.00    -0.315 N 
ATOM     11  C   UNL     1      -3.246  -2.919   1.452  0.00  0.00    +0.109 C 
ATOM     12  C   UNL     1      -4.705  -2.461   1.362  0.00  0.00    +0.004 C 
ATOM     13  C   UNL     1      -5.363  -3.105   0.139  0.00  0.00    +0.009 C 
ATOM     14  C   UNL     1      -4.636  -2.655  -1.130  0.00  0.00    +0.004 C 
ATOM     15  C   UNL     1      -3.180  -3.110  -1.068  0.00  0.00    +0.109 C 
ATOM     16  C   UNL     1      -5.316  -3.272  -2.354  0.00  0.00    +0.009 C 
ATOM     17  C   UNL     1      -5.453  -2.884   2.628  0.00  0.00    +0.009 C 
ENDBRANCH   4  10
BRANCH   3  18
ATOM     18  C   UNL     1      -2.770   0.194   0.167  0.00  0.00    +0.032 C 
ATOM     19  C   UNL     1      -3.169   0.924  -0.911  0.00  0.00    +0.077 C 
ATOM     20  C   UNL     1      -2.563   1.049  -2.198  0.00  0.00    +0.258 C 
ATOM     21  O   UNL     1      -1.535   0.454  -2.468  0.00  0.00    -0.269 OA
ATOM     22  N   UNL     1      -3.151   1.830  -3.087  0.00  0.00    -0.255 N 
ATOM     23  C   UNL     1      -4.292   2.489  -2.787  0.00  0.00    +0.121 C 
ATOM     24  S   UNL     1      -5.215   3.540  -3.774  0.00  0.00    -0.027 S 
ATOM     25  S   UNL     1      -4.598   1.980  -1.103  0.00  0.00    -0.061 S 
BRANCH  22  26
ATOM     26  C   UNL     1      -2.558   1.983  -4.418  0.00  0.00    +0.118 C 
BRANCH  26  27
ATOM     27  C   UNL     1      -3.234   1.016  -5.392  0.00  0.00    +0.001 C 
ATOM     28  C   UNL     1      -2.679   1.240  -6.800  0.00  0.00    +0.009 C 
ATOM     29  C   UNL     1      -2.956  -0.424  -4.957  0.00  0.00    +0.009 C 
ENDBRANCH  26  27
ENDBRANCH  22  26
ENDBRANCH   3  18
BRANCH   8  30
ATOM     30  C   UNL     1       2.166   0.289   0.069  0.00  0.00    +0.105 C 
ATOM     31  N   UNL     1       3.146   0.863   0.044  0.00  0.00    -0.191 NA
ENDBRANCH   8  30
TORSDOF 5
