REMARK  Name = ZINC09777305
REMARK  9 active torsions:
REMARK  status: ('A' for Active; 'I' for Inactive)
REMARK    1  A    between atoms: C_1  and  C_2
REMARK    2  A    between atoms: C_5  and  N_8
REMARK    3  A    between atoms: C_9  and  C_35
REMARK    4  A    between atoms: C_17  and  C_23
REMARK    5  A    between atoms: N_25  and  C_26
REMARK    6  A    between atoms: C_29  and  C_32
REMARK    7  A    between atoms: C_32  and  C_33
REMARK    8  A    between atoms: C_32  and  C_34
REMARK    9  A    between atoms: N_37  and  C_38
REMARK                            x       y       z     vdW  Elec       q    Type
REMARK                         _______ _______ _______ _____ _____    ______ ____
ROOT
ATOM      1  N   UNL     1       0.559   1.469   2.176  0.00  0.00    -0.283 N 
ATOM      2  C   UNL     1       1.494   0.526   1.487  0.00  0.00    +0.199 C 
ATOM      3  C   UNL     1       1.574   1.118   0.114  0.00  0.00    +0.127 C 
ATOM      4  C   UNL     1       2.359   2.417   0.078  0.00  0.00    +0.009 C 
ATOM      5  C   UNL     1       2.349   2.808  -1.188  0.00  0.00    +0.004 C 
ATOM      6  C   UNL     1       1.494   1.765  -1.919  0.00  0.00    +0.155 C 
ATOM      7  O   UNL     1       1.812   0.534  -1.145  0.00  0.00    -0.358 OA
ATOM      8  C   UNL     1       0.043   2.120  -1.405  0.00  0.00    +0.123 C 
ATOM      9  C   UNL     1       0.038   1.452  -0.053  0.00  0.00    +0.128 C 
ATOM     10  C   UNL     1      -0.234   2.096   1.245  0.00  0.00    +0.224 C 
ATOM     11  O   UNL     1      -1.010   3.005   1.452  0.00  0.00    -0.275 OA
ENDROOT
BRANCH   1  16
ATOM     12  C   UNL     1      -2.809  -1.084   3.911  0.00  0.00    +0.007 C 
ATOM     13  C   UNL     1      -1.728  -0.082   4.319  0.00  0.00    -0.014 C 
ATOM     14  C   UNL     1      -1.960   1.243   3.589  0.00  0.00    +0.005 C 
ATOM     15  C   UNL     1      -0.878   2.245   3.997  0.00  0.00    +0.023 C 
ATOM     16  C   UNL     1       0.498   1.691   3.623  0.00  0.00    +0.077 C 
ATOM     17  C   UNL     1       0.730   0.366   4.352  0.00  0.00    +0.023 C 
ATOM     18  C   UNL     1      -0.352  -0.636   3.945  0.00  0.00    +0.005 C 
ENDBRANCH   1  16
BRANCH   8  19
ATOM     19  C   UNL     1      -0.150   3.608  -1.274  0.00  0.00    +0.224 C 
ATOM     20  O   UNL     1       0.323   4.200  -0.327  0.00  0.00    -0.275 OA
ATOM     21  N   UNL     1      -0.847   4.282  -2.210  0.00  0.00    -0.285 N 
ATOM     22  H   UNL     1      -1.297   3.800  -2.921  0.00  0.00    +0.155 HD
BRANCH  21  23
ATOM     23  C   UNL     1      -0.924   5.678  -2.155  0.00  0.00    +0.033 A 
ATOM     24  C   UNL     1      -2.004   6.339  -2.725  0.00  0.00    +0.023 A 
ATOM     25  C   UNL     1      -2.080   7.717  -2.663  0.00  0.00    +0.006 A 
ATOM     26  C   UNL     1      -1.075   8.439  -2.047  0.00  0.00    -0.045 A 
ATOM     27  C   UNL     1       0.006   7.785  -1.485  0.00  0.00    +0.006 A 
ATOM     28  C   UNL     1       0.084   6.407  -1.537  0.00  0.00    +0.023 A 
BRANCH  26  29
ATOM     29  C   UNL     1      -1.157   9.943  -1.988  0.00  0.00    +0.013 C 
ATOM     30  C   UNL     1      -1.201  10.508  -3.409  0.00  0.00    +0.012 C 
ATOM     31  C   UNL     1      -2.424  10.355  -1.236  0.00  0.00    +0.012 C 
ENDBRANCH  26  29
ENDBRANCH  21  23
ENDBRANCH   8  19
BRANCH   2  32
ATOM     32  C   UNL     1       2.846   0.525   2.153  0.00  0.00    +0.237 C 
ATOM     33  O   UNL     1       3.124   1.384   2.962  0.00  0.00    -0.274 OA
ATOM     34  N   UNL     1       3.746  -0.431   1.849  0.00  0.00    -0.311 N 
ATOM     35  H   UNL     1       3.524  -1.118   1.202  0.00  0.00    +0.149 HD
BRANCH  34  36
ATOM     36  C   UNL     1       5.060  -0.432   2.497  0.00  0.00    +0.073 C 
ATOM     37  C   UNL     1       6.006   0.496   1.732  0.00  0.00    +0.022 C 
ATOM     38  C   UNL     1       7.379   0.495   2.408  0.00  0.00    +0.002 C 
ATOM     39  C   UNL     1       7.947  -0.926   2.407  0.00  0.00    +0.000 C 
ATOM     40  C   UNL     1       7.001  -1.854   3.172  0.00  0.00    +0.002 C 
ATOM     41  C   UNL     1       5.628  -1.853   2.496  0.00  0.00    +0.022 C 
ENDBRANCH  34  36
ENDBRANCH   2  32
TORSDOF 6
