REMARK  Name = ZINC35714782
REMARK  14 active torsions:
REMARK  status: ('A' for Active; 'I' for Inactive)
REMARK    1  A    between atoms: C_1  and  C_2
REMARK    2  A    between atoms: C_2  and  N_3
REMARK    3  A    between atoms: N_3  and  C_4
REMARK    4  A    between atoms: N_3  and  C_6
REMARK    5  A    between atoms: C_4  and  C_5
REMARK    6  A    between atoms: C_6  and  C_7
REMARK    7  A    between atoms: C_7  and  N_8
REMARK    8  A    between atoms: N_8  and  C_9
REMARK    9  A    between atoms: C_9  and  C_10
REMARK   10  A    between atoms: C_22  and  C_25
REMARK   11  A    between atoms: N_34  and  C_35
REMARK   12  A    between atoms: C_35  and  C_36
REMARK   13  A    between atoms: C_35  and  C_37
REMARK   14  A    between atoms: C_35  and  C_38
REMARK                            x       y       z     vdW  Elec       q    Type
REMARK                         _______ _______ _______ _____ _____    ______ ____
ROOT
ATOM      1  C   UNL     1      -4.723  -5.374   1.937  0.00  0.00    +0.233 C 
ATOM      2  O   UNL     1      -5.507  -5.018   1.083  0.00  0.00    -0.274 OA
ATOM      3  N   UNL     1      -5.175  -5.958   3.065  0.00  0.00    -0.299 N 
ATOM      4  C   UNL     1      -6.619  -6.143   3.204  0.00  0.00    +0.109 C 
ATOM      5  C   UNL     1      -6.951  -7.565   2.797  0.00  0.00    +0.038 C 
ATOM      6  C   UNL     1      -6.798  -8.510   3.992  0.00  0.00    +0.108 C 
ATOM      7  N   UNL     1      -5.610  -8.208   4.803  0.00  0.00    -0.312 N 
ATOM      8  C   UNL     1      -4.314  -7.890   4.230  0.00  0.00    +0.125 C 
ATOM      9  C   UNL     1      -4.215  -6.356   4.034  0.00  0.00    +0.126 C 
ATOM     10  C   UNL     1      -5.733  -8.226   6.188  0.00  0.00    +0.144 A 
ATOM     11  C   UNL     1      -6.886  -8.746   6.780  0.00  0.00    +0.047 A 
ATOM     12  C   UNL     1      -6.964  -8.743   8.161  0.00  0.00    +0.033 A 
ATOM     13  C   UNL     1      -5.883  -8.219   8.878  0.00  0.00    +0.093 A 
ATOM     14  N   UNL     1      -4.828  -7.746   8.229  0.00  0.00    -0.147 NA
ATOM     15  N   UNL     1      -4.755  -7.755   6.947  0.00  0.00    -0.134 NA
ENDROOT
BRANCH  13  16
ATOM     16  C   UNL     1      -5.917  -8.192  10.361  0.00  0.00    +0.002 A 
ATOM     17  C   UNL     1      -7.024  -8.694  11.044  0.00  0.00    +0.013 A 
ATOM     18  C   UNL     1      -7.051  -8.667  12.423  0.00  0.00    +0.039 A 
ATOM     19  C   UNL     1      -5.981  -8.142  13.129  0.00  0.00    +0.123 A 
ATOM     20  C   UNL     1      -4.879  -7.642  12.454  0.00  0.00    +0.039 A 
ATOM     21  C   UNL     1      -4.840  -7.670  11.075  0.00  0.00    +0.013 A 
ATOM     22  F   UNL     1      -6.012  -8.117  14.479  0.00  0.00    -0.205 F 
ENDBRANCH  13  16
BRANCH   1  23
ATOM     23  C   UNL     1      -3.244  -5.163   1.738  0.00  0.00    +0.205 C 
BRANCH  23  24
ATOM     24  N   UNL     1      -3.013  -4.516   0.445  0.00  0.00    -0.279 N 
ATOM     25  C   UNL     1      -2.827  -5.264  -0.660  0.00  0.00    +0.303 C 
ATOM     26  O   UNL     1      -2.850  -6.478  -0.584  0.00  0.00    -0.253 OA
ATOM     27  N   UNL     1      -2.614  -4.668  -1.850  0.00  0.00    -0.294 N 
ATOM     28  H   UNL     1      -2.595  -3.700  -1.911  0.00  0.00    +0.151 HD
BRANCH  27  29
ATOM     29  C   UNL     1      -2.411  -5.482  -3.051  0.00  0.00    +0.028 C 
ATOM     30  C   UNL     1      -3.645  -6.355  -3.290  0.00  0.00    +0.031 C 
ATOM     31  C   UNL     1      -2.193  -4.566  -4.257  0.00  0.00    +0.031 C 
ATOM     32  C   UNL     1      -1.184  -6.376  -2.861  0.00  0.00    +0.031 C 
ENDBRANCH  27  29
BRANCH  24  33
ATOM     33  C   UNL     1      -2.985  -3.054   0.352  0.00  0.00    +0.091 C 
BRANCH  33  34
ATOM     34  C   UNL     1      -1.554  -2.557   0.568  0.00  0.00    -0.060 C 
BRANCH  34  35
ATOM     35  N   UNL     1      -1.503  -1.104   0.355  0.00  0.00    +0.380 N 
ATOM     36  H   UNL     1      -1.873  -0.885  -0.557  0.00  0.00    -0.082 HD
BRANCH  35  38
ATOM     37  C   UNL     1      -2.355   1.071   1.090  0.00  0.00    -0.017 C 
ATOM     38  C   UNL     1      -2.306  -0.430   1.384  0.00  0.00    -0.082 C 
ENDBRANCH  35  38
BRANCH  35  39
ATOM     39  C   UNL     1      -0.110  -0.645   0.442  0.00  0.00    -0.082 C 
ATOM     40  C   UNL     1       0.691  -1.225  -0.725  0.00  0.00    -0.017 C 
ENDBRANCH  35  39
ENDBRANCH  34  35
ENDBRANCH  33  34
ENDBRANCH  24  33
ENDBRANCH  23  24
ENDBRANCH   1  23
TORSDOF 9
