REMARK  Name = ZINC13390139
REMARK  11 active torsions:
REMARK  status: ('A' for Active; 'I' for Inactive)
REMARK    1  A    between atoms: C_1  and  C_2
REMARK    2  A    between atoms: C_4  and  C_32
REMARK    3  A    between atoms: C_5  and  C_9
REMARK    4  A    between atoms: C_6  and  C_8
REMARK    5  A    between atoms: C_15  and  C_17
REMARK    6  A    between atoms: C_17  and  C_18
REMARK    7  A    between atoms: C_18  and  C_19
REMARK    8  A    between atoms: C_19  and  N_20
REMARK    9  A    between atoms: N_20  and  S_21
REMARK   10  A    between atoms: S_21  and  C_24
REMARK   11  A    between atoms: C_27  and  C_30
REMARK                            x       y       z     vdW  Elec       q    Type
REMARK                         _______ _______ _______ _____ _____    ______ ____
ROOT
ATOM      1  C   UNL     1      -3.509   7.538  -8.818  0.00  0.00    +0.081 A 
ATOM      2  C   UNL     1      -3.421   6.487  -9.688  0.00  0.00    +0.076 A 
ATOM      3  S   UNL     1      -2.752   5.223  -8.614  0.00  0.00    -0.060 S 
ATOM      4  C   UNL     1      -2.669   6.213  -7.129  0.00  0.00    +0.165 A 
ATOM      5  N   UNL     1      -3.130   7.373  -7.559  0.00  0.00    -0.225 NA
ATOM      6  N   UNL     1      -2.230   5.859  -5.859  0.00  0.00    -0.265 N 
ATOM      7  C   UNL     1      -1.792   4.606  -5.623  0.00  0.00    +0.219 C 
ATOM      8  O   UNL     1      -1.781   3.788  -6.519  0.00  0.00    -0.275 OA
ATOM      9  H   UNL     1      -2.239   6.512  -5.143  0.00  0.00    +0.157 HD
ENDROOT
BRANCH   1  14
ATOM     10  C   UNL     1      -5.508  12.634 -10.606  0.00  0.00    +0.044 C 
ATOM     11  C   UNL     1      -4.985  11.300 -10.138  0.00  0.00    -0.050 A 
ATOM     12  C   UNL     1      -5.535  10.698  -9.021  0.00  0.00    +0.007 A 
ATOM     13  C   UNL     1      -5.060   9.477  -8.588  0.00  0.00    -0.041 A 
ATOM     14  C   UNL     1      -4.024   8.850  -9.279  0.00  0.00    +0.007 A 
ATOM     15  C   UNL     1      -3.470   9.464 -10.401  0.00  0.00    -0.041 A 
ATOM     16  C   UNL     1      -3.957  10.682 -10.828  0.00  0.00    +0.007 A 
ATOM     17  C   UNL     1      -2.346   8.796 -11.150  0.00  0.00    +0.044 C 
ATOM     18  C   UNL     1      -5.660   8.822  -7.370  0.00  0.00    +0.044 C 
ENDBRANCH   1  14
BRANCH   7  19
ATOM     19  C   UNL     1      -1.316   4.221  -4.246  0.00  0.00    +0.097 C 
BRANCH  19  20
ATOM     20  C   UNL     1      -0.877   2.756  -4.249  0.00  0.00    +0.026 C 
BRANCH  20  21
ATOM     21  C   UNL     1      -0.394   2.365  -2.851  0.00  0.00    +0.106 C 
BRANCH  21  22
ATOM     22  N   UNL     1       0.027   0.962  -2.854  0.00  0.00    -0.190 NA
ATOM     23  H   UNL     1      -0.225   0.381  -3.589  0.00  0.00    +0.148 HD
BRANCH  22  24
ATOM     24  S   UNL     1       0.933   0.366  -1.603  0.00  0.00    +0.058 S 
ATOM     25  O   UNL     1       1.154  -1.010  -1.880  0.00  0.00    -0.153 OA
ATOM     26  O   UNL     1       2.000   1.283  -1.401  0.00  0.00    -0.153 OA
BRANCH  24  27
ATOM     27  C   UNL     1      -0.070   0.433  -0.155  0.00  0.00    +0.105 A 
ATOM     28  C   UNL     1      -0.050   1.562   0.644  0.00  0.00    +0.029 A 
ATOM     29  C   UNL     1      -0.836   1.624   1.776  0.00  0.00    +0.017 A 
ATOM     30  C   UNL     1      -1.645   0.539   2.120  0.00  0.00    +0.063 A 
ATOM     31  C   UNL     1      -1.656  -0.599   1.312  0.00  0.00    +0.017 A 
ATOM     32  C   UNL     1      -0.869  -0.645   0.180  0.00  0.00    +0.029 A 
BRANCH  30  33
ATOM     33  C   UNL     1      -2.485   0.596   3.333  0.00  0.00    +0.387 C 
ATOM     34  O   UNL     1      -3.189  -0.349   3.630  0.00  0.00    -0.241 OA
ATOM     35  O   UNL     1      -2.472   1.696   4.111  0.00  0.00    -0.241 OA
ENDBRANCH  30  33
ENDBRANCH  24  27
ENDBRANCH  22  24
ENDBRANCH  21  22
ENDBRANCH  20  21
ENDBRANCH  19  20
ENDBRANCH   7  19
TORSDOF 8
