REMARK  Name = ZINC30825515
REMARK  4 active torsions:
REMARK  status: ('A' for Active; 'I' for Inactive)
REMARK    1  A    between atoms: C_3  and  C_8
REMARK    2  A    between atoms: N_14  and  C_17
REMARK    3  A    between atoms: C_20  and  S_23
REMARK    4  A    between atoms: S_23  and  N_26
REMARK                            x       y       z     vdW  Elec       q    Type
REMARK                         _______ _______ _______ _____ _____    ______ ____
ROOT
ATOM      1  C   UNL     1       0.715  -2.056  -0.184  0.00  0.00    +0.166 A 
ATOM      2  N   UNL     1      -0.562  -2.045   0.131  0.00  0.00    -0.128 NA
ATOM      3  N   UNL     1      -0.980  -0.830   0.241  0.00  0.00    -0.122 NA
ATOM      4  C   UNL     1       0.002  -0.004   0.002  0.00  0.00    +0.195 A 
ATOM      5  N   UNL     1       1.116  -0.748  -0.272  0.00  0.00    -0.285 N 
ATOM      6  C   UNL     1       2.442  -0.228  -0.584  0.00  0.00    +0.235 C 
ATOM      7  N   UNL     1       2.370   1.167  -1.026  0.00  0.00    -0.302 N 
ATOM      8  C   UNL     1       1.773   2.043  -0.004  0.00  0.00    +0.184 C 
ATOM      9  S   UNL     1      -0.022   1.760   0.012  0.00  0.00    -0.067 S 
ENDROOT
BRANCH   1  12
ATOM     10  C   UNL     1       3.729  -4.253  -0.625  0.00  0.00    +0.003 A 
ATOM     11  C   UNL     1       2.947  -3.134  -0.427  0.00  0.00    +0.012 A 
ATOM     12  C   UNL     1       1.557  -3.251  -0.401  0.00  0.00    +0.022 A 
ATOM     13  C   UNL     1       0.964  -4.501  -0.587  0.00  0.00    +0.050 A 
ATOM     14  C   UNL     1       1.757  -5.614  -0.789  0.00  0.00    +0.124 A 
ATOM     15  C   UNL     1       3.138  -5.490  -0.809  0.00  0.00    +0.038 A 
ATOM     16  F   UNL     1       1.187  -6.825  -0.969  0.00  0.00    -0.205 F 
ENDBRANCH   1  12
BRANCH   7  17
ATOM     17  C   UNL     1       3.628   1.636  -1.413  0.00  0.00    +0.032 A 
ATOM     18  C   UNL     1       4.735   0.799  -1.341  0.00  0.00    +0.025 A 
ATOM     19  C   UNL     1       5.976   1.264  -1.729  0.00  0.00    +0.030 A 
ATOM     20  C   UNL     1       6.120   2.563  -2.179  0.00  0.00    +0.105 A 
ATOM     21  C   UNL     1       5.021   3.400  -2.248  0.00  0.00    +0.030 A 
ATOM     22  C   UNL     1       3.776   2.940  -1.866  0.00  0.00    +0.025 A 
BRANCH  20  23
ATOM     23  S   UNL     1       7.707   3.154  -2.667  0.00  0.00    +0.056 S 
ATOM     24  O   UNL     1       8.473   2.013  -3.025  0.00  0.00    -0.153 OA
ATOM     25  O   UNL     1       7.480   4.233  -3.564  0.00  0.00    -0.153 OA
BRANCH  23  26
ATOM     26  N   UNL     1       8.423   3.801  -1.321  0.00  0.00    -0.204 NA
ATOM     27  H   UNL     1       9.420   4.183  -1.584  0.00  0.00    +0.144 HD
ATOM     28  H   UNL     1       8.520   3.025  -0.548  0.00  0.00    +0.144 HD
ENDBRANCH  23  26
ENDBRANCH  20  23
ENDBRANCH   7  17
TORSDOF 4
