REMARK  Name = ZINC63491705
REMARK  5 active torsions:
REMARK  status: ('A' for Active; 'I' for Inactive)
REMARK    1  A    between atoms: C_1  and  O_2
REMARK    2  A    between atoms: O_2  and  C_3
REMARK    3  A    between atoms: C_3  and  C_5
REMARK    4  A    between atoms: C_6  and  N_10
REMARK    5  A    between atoms: C_26  and  C_28
REMARK                            x       y       z     vdW  Elec       q    Type
REMARK                         _______ _______ _______ _____ _____    ______ ____
ROOT
ATOM      1  N   UNL     1       2.376  -2.332  -2.937  0.00  0.00    -0.268 N 
ATOM      2  C   UNL     1       2.834  -3.142  -3.912  0.00  0.00    +0.307 C 
ATOM      3  O   UNL     1       2.749  -4.348  -3.790  0.00  0.00    -0.252 OA
ATOM      4  N   UNL     1       3.387  -2.614  -5.021  0.00  0.00    -0.276 N 
ATOM      5  C   UNL     1       3.605  -1.166  -5.105  0.00  0.00    +0.114 C 
ATOM      6  C   UNL     1       5.098  -0.886  -5.355  0.00  0.00    +0.052 C 
ATOM      7  C   UNL     1       5.540  -1.836  -6.441  0.00  0.00    -0.035 C 
ATOM      8  C   UNL     1       6.174  -1.625  -7.588  0.00  0.00    -0.001 A 
ATOM      9  C   UNL     1       6.772  -0.411  -8.168  0.00  0.00    +0.010 A 
ATOM     10  C   UNL     1       7.336  -0.549  -9.396  0.00  0.00    +0.001 A 
ATOM     11  C   UNL     1       7.365  -1.759 -10.098  0.00  0.00    +0.002 A 
ATOM     12  C   UNL     1       6.847  -2.925  -9.638  0.00  0.00    +0.026 A 
ATOM     13  C   UNL     1       6.234  -2.908  -8.351  0.00  0.00    +0.043 A 
ATOM     14  N   UNL     1       5.687  -3.870  -7.667  0.00  0.00    -0.375 N 
ATOM     15  C   UNL     1       5.272  -3.335  -6.370  0.00  0.00    +0.131 C 
ATOM     16  C   UNL     1       3.771  -3.497  -6.134  0.00  0.00    +0.137 C 
ATOM     17  H   UNL     1       2.379  -1.370  -3.063  0.00  0.00    +0.156 HD
ATOM     18  H   UNL     1       5.574  -4.786  -7.966  0.00  0.00    +0.160 HD
ENDROOT
BRANCH  16  19
ATOM     19  C   UNL     1       3.465  -4.929  -5.779  0.00  0.00    +0.010 A 
ATOM     20  C   UNL     1       4.477  -5.766  -5.348  0.00  0.00    +0.008 A 
ATOM     21  C   UNL     1       4.196  -7.079  -5.022  0.00  0.00    +0.000 A 
ATOM     22  C   UNL     1       2.903  -7.557  -5.125  0.00  0.00    +0.003 A 
ATOM     23  C   UNL     1       1.889  -6.722  -5.555  0.00  0.00    +0.039 A 
ATOM     24  C   UNL     1       2.168  -5.404  -5.877  0.00  0.00    +0.128 A 
ATOM     25  F   UNL     1       1.177  -4.585  -6.293  0.00  0.00    -0.205 F 
ENDBRANCH  16  19
BRANCH   1  27
ATOM     26  C   UNL     1       1.554  -2.086  -0.648  0.00  0.00    +0.117 A 
ATOM     27  C   UNL     1       1.896  -2.877  -1.745  0.00  0.00    +0.056 A 
ATOM     28  C   UNL     1       1.727  -4.236  -1.571  0.00  0.00    +0.032 A 
ATOM     29  C   UNL     1       1.257  -4.695  -0.388  0.00  0.00    +0.048 A 
ATOM     30  S   UNL     1       1.032  -3.311   0.537  0.00  0.00    -0.088 S 
BRANCH  26  31
ATOM     31  C   UNL     1       1.612  -0.680  -0.510  0.00  0.00    +0.347 C 
ATOM     32  O   UNL     1       2.000   0.007  -1.437  0.00  0.00    -0.244 OA
BRANCH  31  34
ATOM     33  C   UNL     1       1.322   1.325   0.719  0.00  0.00    +0.280 C 
ATOM     34  O   UNL     1       1.237  -0.100   0.650  0.00  0.00    -0.464 OA
ENDBRANCH  31  34
ENDBRANCH  26  31
ENDBRANCH   1  27
TORSDOF 4
