REMARK  Name = ZINC13847708
REMARK  4 active torsions:
REMARK  status: ('A' for Active; 'I' for Inactive)
REMARK    1  A    between atoms: C_1  and  C_2
REMARK    2  A    between atoms: C_5  and  N_9
REMARK    3  A    between atoms: C_10  and  C_12
REMARK    4  A    between atoms: C_12  and  N_13
REMARK                            x       y       z     vdW  Elec       q    Type
REMARK                         _______ _______ _______ _____ _____    ______ ____
ROOT
ATOM      1  N   UNL     1      -6.031   3.582  -0.234  0.00  0.00    -0.233 N 
ATOM      2  C   UNL     1      -6.507   3.083  -1.427  0.00  0.00    +0.227 C 
ATOM      3  O   UNL     1      -6.017   3.193  -2.527  0.00  0.00    -0.275 OA
ATOM      4  C   UNL     1      -7.762   2.379  -1.038  0.00  0.00    +0.095 C 
ATOM      5  C   UNL     1      -8.463   1.286  -1.814  0.00  0.00    +0.027 C 
ATOM      6  C   UNL     1      -9.797   1.348  -0.974  0.00  0.00    -0.026 C 
ATOM      7  C   UNL     1      -9.625   1.099   0.311  0.00  0.00    -0.026 C 
ATOM      8  C   UNL     1      -8.212   0.827   0.857  0.00  0.00    +0.027 C 
ATOM      9  C   UNL     1      -7.256   1.816   0.309  0.00  0.00    +0.095 C 
ATOM     10  C   UNL     1      -6.697   3.073   0.859  0.00  0.00    +0.227 C 
ATOM     11  O   UNL     1      -6.785   3.499   1.981  0.00  0.00    -0.275 OA
ATOM     12  C   UNL     1      -7.872  -0.475   0.030  0.00  0.00    +0.001 C 
ATOM     13  C   UNL     1      -8.013  -0.145  -1.477  0.00  0.00    +0.001 C 
ATOM     14  C   UNL     1      -6.667  -0.486  -0.894  0.00  0.00    +0.009 C 
ENDROOT
BRANCH   1  15
ATOM     15  C   UNL     1      -4.931   4.541  -0.144  0.00  0.00    +0.212 C 
BRANCH  15  17
ATOM     16  N   UNL     1      -2.465   4.480   0.048  0.00  0.00    -0.284 N 
ATOM     17  C   UNL     1      -3.623   3.797  -0.046  0.00  0.00    +0.235 C 
ATOM     18  O   UNL     1      -3.614   2.584  -0.052  0.00  0.00    -0.274 OA
ATOM     19  H   UNL     1      -2.477   5.447   0.130  0.00  0.00    +0.155 HD
BRANCH  16  24
ATOM     20  C   UNL     1       2.480   1.700  -0.038  0.00  0.00    +0.045 C 
ATOM     21  C   UNL     1       1.167   2.438  -0.015  0.00  0.00    -0.032 A 
ATOM     22  C   UNL     1       0.095   1.964  -0.749  0.00  0.00    +0.006 A 
ATOM     23  C   UNL     1      -1.110   2.638  -0.730  0.00  0.00    +0.023 A 
ATOM     24  C   UNL     1      -1.245   3.795   0.027  0.00  0.00    +0.035 A 
ATOM     25  C   UNL     1      -0.170   4.267   0.767  0.00  0.00    +0.043 A 
ATOM     26  C   UNL     1       1.036   3.590   0.741  0.00  0.00    +0.046 A 
ATOM     27 CL   UNL     1       2.383   4.182   1.661  0.00  0.00    -0.083 Cl
ENDBRANCH  16  24
ENDBRANCH  15  17
ENDBRANCH   1  15
TORSDOF 3
