REMARK  Name = ZINC02913310
REMARK  10 active torsions:
REMARK  status: ('A' for Active; 'I' for Inactive)
REMARK    1  A    between atoms: C_4  and  O_7
REMARK    2  A    between atoms: O_7  and  C_8
REMARK    3  A    between atoms: C_8  and  C_9
REMARK    4  A    between atoms: N_11  and  C_12
REMARK    5  A    between atoms: C_12  and  C_14
REMARK    6  A    between atoms: C_12  and  N_18
REMARK    7  A    between atoms: N_18  and  C_19
REMARK    8  A    between atoms: C_19  and  N_21
REMARK    9  A    between atoms: N_21  and  C_22
REMARK   10  A    between atoms: C_26  and  C_28
REMARK                            x       y       z     vdW  Elec       q    Type
REMARK                         _______ _______ _______ _____ _____    ______ ____
ROOT
ATOM      1  C   UNL     1       1.990   1.442   0.258  0.00  0.00    +0.211 C 
ENDROOT
BRANCH   1   4
ATOM      2  C   UNL     1      -0.378   1.791   0.719  0.00  0.00    +0.252 C 
ATOM      3  O   UNL     1      -0.529   0.588   0.699  0.00  0.00    -0.272 OA
ATOM      4  N   UNL     1       0.844   2.320   0.511  0.00  0.00    -0.291 N 
ATOM      5  H   UNL     1       0.965   3.283   0.527  0.00  0.00    +0.151 HD
BRANCH   2   6
ATOM      6  C   UNL     1      -1.557   2.694   0.973  0.00  0.00    +0.324 C 
BRANCH   6   7
ATOM      7  O   UNL     1      -2.732   1.903   1.157  0.00  0.00    -0.483 OA
BRANCH   7  11
ATOM      8  C   UNL     1      -6.255   3.922   1.886  0.00  0.00    +0.000 A 
ATOM      9  C   UNL     1      -6.250   2.541   1.829  0.00  0.00    +0.004 A 
ATOM     10  C   UNL     1      -5.072   1.862   1.585  0.00  0.00    +0.045 A 
ATOM     11  C   UNL     1      -3.893   2.568   1.397  0.00  0.00    +0.121 A 
ATOM     12  C   UNL     1      -3.899   3.954   1.460  0.00  0.00    +0.045 A 
ATOM     13  C   UNL     1      -5.081   4.628   1.698  0.00  0.00    +0.004 A 
ENDBRANCH   7  11
ENDBRANCH   6   7
ENDBRANCH   2   6
ENDBRANCH   1   4
BRANCH   1  14
ATOM     14  C   UNL     1       2.807   1.993  -0.912  0.00  0.00    +0.225 C 
ATOM     15 CL   UNL     1       3.396   3.648  -0.507  0.00  0.00    -0.080 Cl
ATOM     16 CL   UNL     1       4.216   0.913  -1.222  0.00  0.00    -0.080 Cl
ATOM     17 CL   UNL     1       1.770   2.068  -2.386  0.00  0.00    -0.080 Cl
ENDBRANCH   1  14
BRANCH   1  18
ATOM     18  N   UNL     1       2.831   1.382   1.456  0.00  0.00    -0.305 N 
ATOM     19  H   UNL     1       3.402   2.132   1.686  0.00  0.00    +0.150 HD
BRANCH  18  20
ATOM     20  C   UNL     1       2.813   0.284   2.237  0.00  0.00    +0.136 C 
ATOM     21  S   UNL     1       1.807  -1.040   1.831  0.00  0.00    -0.019 S 
BRANCH  20  22
ATOM     22  N   UNL     1       3.588   0.228   3.339  0.00  0.00    -0.297 N 
ATOM     23  H   UNL     1       4.217   0.942   3.526  0.00  0.00    +0.154 HD
BRANCH  22  24
ATOM     24  C   UNL     1       3.485  -0.860   4.212  0.00  0.00    +0.033 A 
ATOM     25  C   UNL     1       2.234  -1.369   4.543  0.00  0.00    +0.023 A 
ATOM     26  C   UNL     1       2.127  -2.447   5.402  0.00  0.00    +0.003 A 
ATOM     27  C   UNL     1       3.260  -3.019   5.945  0.00  0.00    +0.015 A 
ATOM     28  C   UNL     1       4.520  -2.512   5.623  0.00  0.00    +0.065 A 
ATOM     29  C   UNL     1       4.629  -1.427   4.752  0.00  0.00    +0.038 A 
BRANCH  28  30
ATOM     30  C   UNL     1       5.735  -3.121   6.203  0.00  0.00    +0.387 C 
ATOM     31  O   UNL     1       6.830  -2.678   5.922  0.00  0.00    -0.241 OA
ATOM     32  O   UNL     1       5.628  -4.168   7.043  0.00  0.00    -0.241 OA
ENDBRANCH  28  30
ENDBRANCH  22  24
ENDBRANCH  20  22
ENDBRANCH  18  20
ENDBRANCH   1  18
TORSDOF 10
