REMARK  Name = ZINC33782164
REMARK  14 active torsions:
REMARK  status: ('A' for Active; 'I' for Inactive)
REMARK    1  A    between atoms: C_1  and  C_2
REMARK    2  A    between atoms: N_4  and  C_5
REMARK    3  A    between atoms: C_5  and  C_7
REMARK    4  A    between atoms: C_5  and  C_24
REMARK    5  A    between atoms: N_9  and  C_10
REMARK    6  A    between atoms: C_10  and  C_11
REMARK    7  A    between atoms: C_11  and  O_23
REMARK    8  A    between atoms: C_12  and  O_22
REMARK    9  A    between atoms: C_14  and  O_21
REMARK   10  A    between atoms: C_16  and  O_20
REMARK   11  A    between atoms: C_24  and  C_25
REMARK   12  A    between atoms: C_24  and  C_26
REMARK   13  A    between atoms: C_24  and  S_27
REMARK   14  A    between atoms: S_27  and  N_28
REMARK                            x       y       z     vdW  Elec       q    Type
REMARK                         _______ _______ _______ _____ _____    ______ ____
ROOT
ATOM      1  C   UNL     1      -1.570   2.368  -1.294  0.00  0.00    +0.235 C 
ATOM      2  O   UNL     1      -0.647   2.717  -1.999  0.00  0.00    -0.274 OA
ATOM      3  N   UNL     1      -2.838   2.637  -1.662  0.00  0.00    -0.309 N 
ATOM      4  H   UNL     1      -3.676   2.320  -1.022  0.00  0.00    +0.149 HD
ENDROOT
BRANCH   1   5
ATOM      5  C   UNL     1      -1.299   1.633  -0.006  0.00  0.00    +0.176 C 
BRANCH   5   9
ATOM      6  C   UNL     1       1.643  -0.680  -0.806  0.00  0.00    +0.109 C 
ATOM      7  C   UNL     1       0.247  -0.128  -0.675  0.00  0.00    +0.211 C 
ATOM      8  O   UNL     1      -0.694  -0.743  -1.130  0.00  0.00    -0.276 OA
ATOM      9  N   UNL     1       0.044   1.049  -0.051  0.00  0.00    -0.303 N 
ATOM     10  H   UNL     1       0.887   1.572   0.424  0.00  0.00    +0.149 HD
ENDBRANCH   5   9
BRANCH   5  11
ATOM     11  C   UNL     1      -1.392   2.609   1.168  0.00  0.00    +0.062 C 
ATOM     12  C   UNL     1      -0.361   3.726   0.986  0.00  0.00    +0.027 C 
ATOM     13  C   UNL     1      -2.796   3.215   1.218  0.00  0.00    +0.027 C 
BRANCH  11  14
ATOM     14  S   UNL     1      -1.059   1.728   2.713  0.00  0.00    +0.029 S 
BRANCH  14  15
ATOM     15  N   UNL     1      -1.208   2.901   3.731  0.00  0.00    +0.005 NA
ATOM     16  O   UNL     1      -1.052   2.697   4.922  0.00  0.00    -0.136 OA
ENDBRANCH  14  15
ENDBRANCH  11  14
ENDBRANCH   5  11
ENDBRANCH   1   5
BRANCH   3  17
ATOM     17  C   UNL     1      -3.102   3.351  -2.913  0.00  0.00    +0.171 C 
BRANCH  17  18
ATOM     18  C   UNL     1      -4.612   3.526  -3.092  0.00  0.00    +0.212 C 
ATOM     19  C   UNL     1      -4.888   4.273  -4.400  0.00  0.00    +0.206 C 
ATOM     20  C   UNL     1      -6.396   4.497  -4.542  0.00  0.00    +0.179 C 
ATOM     21  C   UNL     1      -6.905   5.263  -3.317  0.00  0.00    +0.171 C 
ATOM     22  C   UNL     1      -6.551   4.478  -2.051  0.00  0.00    +0.197 C 
ATOM     23  O   UNL     1      -5.138   4.277  -1.996  0.00  0.00    -0.343 OA
BRANCH  21  24
ATOM     24  O   UNL     1      -6.290   6.551  -3.269  0.00  0.00    -0.387 OA
ATOM     25  H   UNL     1      -6.534   7.248  -2.454  0.00  0.00    +0.210 HD
ENDBRANCH  21  24
BRANCH  20  26
ATOM     26  O   UNL     1      -6.657   5.256  -5.724  0.00  0.00    -0.386 OA
ATOM     27  H   UNL     1      -7.692   5.516  -5.994  0.00  0.00    +0.210 HD
ENDBRANCH  20  26
BRANCH  19  28
ATOM     28  O   UNL     1      -4.216   5.534  -4.380  0.00  0.00    -0.384 OA
ATOM     29  H   UNL     1      -4.298   6.214  -5.241  0.00  0.00    +0.210 HD
ENDBRANCH  19  28
BRANCH  18  30
ATOM     30  O   UNL     1      -5.239   2.243  -3.135  0.00  0.00    -0.361 OA
ATOM     31  H   UNL     1      -6.329   2.167  -3.259  0.00  0.00    +0.213 HD
ENDBRANCH  18  30
ENDBRANCH  17  18
ENDBRANCH   3  17
TORSDOF 11
