REMARK  Name = ZINC26674357
REMARK  13 active torsions:
REMARK  status: ('A' for Active; 'I' for Inactive)
REMARK    1  A    between atoms: C_1  and  C_2
REMARK    2  A    between atoms: C_4  and  C_9
REMARK    3  A    between atoms: C_11  and  C_31
REMARK    4  A    between atoms: C_13  and  C_28
REMARK    5  A    between atoms: C_14  and  C_15
REMARK    6  A    between atoms: C_16  and  P_17
REMARK    7  A    between atoms: P_17  and  C_19
REMARK    8  A    between atoms: C_19  and  C_20
REMARK    9  A    between atoms: C_20  and  C_22
REMARK   10  A    between atoms: C_20  and  O_26
REMARK   11  A    between atoms: C_22  and  C_23
REMARK   12  A    between atoms: C_28  and  C_29
REMARK   13  A    between atoms: C_28  and  C_30
REMARK                            x       y       z     vdW  Elec       q    Type
REMARK                         _______ _______ _______ _____ _____    ______ ____
ROOT
ATOM      1  C   UNL     1      -1.242   2.128   0.019  0.00  0.00    +0.001 A 
ATOM      2  C   UNL     1      -1.203   3.521   0.032  0.00  0.00    +0.038 A 
ATOM      3  C   UNL     1       0.031   4.163   0.024  0.00  0.00    +0.072 A 
ATOM      4  N   UNL     1       1.163   3.468   0.010  0.00  0.00    -0.250 NA
ATOM      5  C   UNL     1       1.175   2.153   0.002  0.00  0.00    +0.060 A 
ATOM      6  C   UNL     1      -0.017   1.428   0.010  0.00  0.00    +0.055 A 
ENDROOT
BRANCH   1  10
ATOM      7  C   UNL     1      -5.787   1.406   1.954  0.00  0.00    +0.047 C 
ATOM      8  C   UNL     1      -4.721   1.052   0.949  0.00  0.00    -0.015 A 
ATOM      9  C   UNL     1      -3.517   1.727   0.955  0.00  0.00    +0.014 A 
ATOM     10  C   UNL     1      -2.534   1.402   0.021  0.00  0.00    -0.016 A 
ATOM     11  C   UNL     1      -2.769   0.389  -0.908  0.00  0.00    +0.011 A 
ATOM     12  C   UNL     1      -3.973  -0.284  -0.903  0.00  0.00    +0.039 A 
ATOM     13  C   UNL     1      -4.949   0.046   0.024  0.00  0.00    +0.126 A 
ATOM     14  F   UNL     1      -6.127  -0.615   0.025  0.00  0.00    -0.205 F 
ENDBRANCH   1  10
BRANCH   3  15
ATOM     15  C   UNL     1       0.084   5.645   0.032  0.00  0.00    +0.000 A 
ATOM     16  C   UNL     1      -1.096   6.387   0.041  0.00  0.00    +0.010 A 
ATOM     17  C   UNL     1      -1.040   7.766   0.053  0.00  0.00    +0.001 A 
ATOM     18  C   UNL     1       0.183   8.412   0.045  0.00  0.00    +0.000 A 
ATOM     19  C   UNL     1       1.357   7.681   0.030  0.00  0.00    +0.001 A 
ATOM     20  C   UNL     1       1.314   6.301   0.024  0.00  0.00    +0.010 A 
ENDBRANCH   3  15
BRANCH   5  21
ATOM     21  C   UNL     1       2.491   1.420  -0.014  0.00  0.00    +0.033 C 
ATOM     22  C   UNL     1       3.276   1.809  -1.268  0.00  0.00    +0.014 C 
ATOM     23  C   UNL     1       3.299   1.796   1.230  0.00  0.00    +0.014 C 
ENDBRANCH   5  21
BRANCH   6  24
ATOM     24  C   UNL     1       0.002  -0.004   0.002  0.00  0.00    -0.054 C 
ATOM     25  C   UNL     1       0.018  -1.178  -0.004  0.00  0.00    -0.003 C 
BRANCH  25  26
ATOM     26  P   UNL     1       0.043  -2.992  -0.014  0.00  0.00    +0.307 P 
ATOM     27  O   UNL     1      -1.346  -3.504  -0.004  0.00  0.00    -0.274 OA
ATOM     28  O   UNL     1       0.796  -3.511  -1.339  0.00  0.00    -0.155 OA
BRANCH  26  29
ATOM     29  C   UNL     1       0.924  -3.596   1.462  0.00  0.00    +0.144 C 
BRANCH  29  30
ATOM     30  C   UNL     1       0.838  -5.122   1.520  0.00  0.00    +0.135 C 
BRANCH  30  31
ATOM     31  O   UNL     1      -0.524  -5.515   1.705  0.00  0.00    -0.391 OA
ATOM     32  H   UNL     1      -0.784  -6.582   1.770  0.00  0.00    +0.210 HD
ENDBRANCH  30  31
BRANCH  30  33
ATOM     33  C   UNL     1       1.681  -5.638   2.688  0.00  0.00    +0.157 C 
BRANCH  33  34
ATOM     34  C   UNL     1       1.695  -7.144   2.670  0.00  0.00    +0.358 C 
ATOM     35  O   UNL     1       1.093  -7.744   1.812  0.00  0.00    -0.246 OA
ATOM     36  O   UNL     1       2.377  -7.820   3.609  0.00  0.00    -0.246 OA
ENDBRANCH  33  34
ENDBRANCH  30  33
ENDBRANCH  29  30
ENDBRANCH  26  29
ENDBRANCH  25  26
ENDBRANCH   6  24
TORSDOF 10
