REMARK  Name = ZINC33273130
REMARK  5 active torsions:
REMARK  status: ('A' for Active; 'I' for Inactive)
REMARK    1  A    between atoms: C_1  and  C_2
REMARK    2  A    between atoms: C_7  and  N_8
REMARK    3  A    between atoms: C_14  and  C_17
REMARK    4  A    between atoms: C_20  and  C_22
REMARK    5  A    between atoms: N_24  and  C_25
REMARK                            x       y       z     vdW  Elec       q    Type
REMARK                         _______ _______ _______ _____ _____    ______ ____
ROOT
ATOM      1  C   UNL     1      -4.891  -0.082  -0.811  0.00  0.00    +0.106 A 
ATOM      2  N   UNL     1      -3.939  -0.813  -1.364  0.00  0.00    -0.146 NA
ATOM      3  N   UNL     1      -2.883  -0.298  -1.826  0.00  0.00    -0.136 NA
ATOM      4  C   UNL     1      -2.697   1.018  -1.767  0.00  0.00    +0.187 A 
ATOM      5  S   UNL     1      -4.212   1.513  -0.954  0.00  0.00    -0.046 S 
ENDROOT
BRANCH   1  12
ATOM      6  N   UNL     1      -9.427  -4.178  -0.347  0.00  0.00    -0.269 N 
ATOM      7  C   UNL     1      -8.712  -3.647   0.665  0.00  0.00    +0.306 C 
ATOM      8  O   UNL     1      -8.576  -4.266   1.702  0.00  0.00    -0.252 OA
ATOM      9  N   UNL     1      -8.149  -2.431   0.527  0.00  0.00    -0.285 N 
ATOM     10  C   UNL     1      -8.393  -1.625  -0.677  0.00  0.00    +0.110 C 
ATOM     11  C   UNL     1      -7.045  -1.218  -1.280  0.00  0.00    +0.029 C 
ATOM     12  C   UNL     1      -6.205  -0.514  -0.212  0.00  0.00    +0.049 C 
ATOM     13  C   UNL     1      -5.945  -1.475   0.950  0.00  0.00    +0.029 C 
ATOM     14  C   UNL     1      -7.280  -1.884   1.578  0.00  0.00    +0.110 C 
ATOM     15  H   UNL     1      -9.590  -3.599  -1.268  0.00  0.00    +0.156 HD
BRANCH   6  22
ATOM     16  C   UNL     1      -9.757  -5.722  -2.715  0.00  0.00    +0.045 C 
ATOM     17  C   UNL     1     -10.138  -6.254  -1.357  0.00  0.00    -0.029 A 
ATOM     18  C   UNL     1     -10.665  -7.525  -1.235  0.00  0.00    +0.005 A 
ATOM     19  C   UNL     1     -11.014  -8.013   0.010  0.00  0.00    +0.000 A 
ATOM     20  C   UNL     1     -10.838  -7.231   1.137  0.00  0.00    +0.002 A 
ATOM     21  C   UNL     1     -10.307  -5.962   1.023  0.00  0.00    +0.023 A 
ATOM     22  C   UNL     1      -9.960  -5.466  -0.227  0.00  0.00    +0.038 A 
ENDBRANCH   6  22
ENDBRANCH   1  12
BRANCH   4  23
ATOM     23  C   UNL     1      -1.564   1.835  -2.233  0.00  0.00    +0.275 C 
ATOM     24  O   UNL     1      -1.583   3.042  -2.084  0.00  0.00    -0.268 OA
ATOM     25  N   UNL     1      -0.506   1.245  -2.823  0.00  0.00    -0.280 N 
ATOM     26  H   UNL     1      -0.516   0.161  -3.014  0.00  0.00    +0.155 HD
BRANCH  25  27
ATOM     27  C   UNL     1       0.606   2.010  -3.194  0.00  0.00    +0.037 A 
ATOM     28  C   UNL     1       0.432   3.309  -3.655  0.00  0.00    +0.027 A 
ATOM     29  C   UNL     1       1.529   4.068  -4.016  0.00  0.00    +0.051 A 
ATOM     30  C   UNL     1       2.804   3.532  -3.930  0.00  0.00    +0.166 A 
ATOM     31  C   UNL     1       2.981   2.228  -3.473  0.00  0.00    +0.168 A 
ATOM     32  C   UNL     1       1.882   1.470  -3.106  0.00  0.00    +0.072 A 
ATOM     33  O   UNL     1       4.315   1.940  -3.482  0.00  0.00    -0.453 OA
ATOM     34  C   UNL     1       4.918   2.934  -4.332  0.00  0.00    +0.466 C 
ATOM     35  O   UNL     1       4.029   4.061  -4.224  0.00  0.00    -0.453 OA
ENDBRANCH  25  27
ENDBRANCH   4  23
TORSDOF 4
