REMARK  Name = ZINC67122404
REMARK  15 active torsions:
REMARK  status: ('A' for Active; 'I' for Inactive)
REMARK    1  A    between atoms: C_1  and  C_2
REMARK    2  A    between atoms: N_5  and  C_8
REMARK    3  A    between atoms: C_8  and  C_9
REMARK    4  A    between atoms: C_9  and  C_11
REMARK    5  A    between atoms: C_9  and  O_29
REMARK    6  A    between atoms: C_11  and  N_12
REMARK    7  A    between atoms: N_12  and  C_13
REMARK    8  A    between atoms: C_13  and  C_14
REMARK    9  A    between atoms: C_16  and  O_27
REMARK   10  A    between atoms: C_17  and  O_22
REMARK   11  A    between atoms: C_18  and  O_20
REMARK   12  A    between atoms: O_20  and  C_21
REMARK   13  A    between atoms: O_22  and  C_23
REMARK   14  A    between atoms: C_23  and  C_24
REMARK   15  A    between atoms: O_27  and  C_28
REMARK                            x       y       z     vdW  Elec       q    Type
REMARK                         _______ _______ _______ _____ _____    ______ ____
ROOT
ATOM      1  C   UNL     1       3.626  -7.749   2.324  0.00  0.00    -0.046 C 
ENDROOT
BRANCH   1   2
ATOM      2  C   UNL     1       4.387  -8.184   3.550  0.00  0.00    -0.057 A 
ATOM      3  C   UNL     1       5.766  -8.270   3.511  0.00  0.00    +0.051 A 
ATOM      4  C   UNL     1       6.470  -8.670   4.636  0.00  0.00    +0.165 A 
ATOM      5  C   UNL     1       5.787  -8.985   5.805  0.00  0.00    +0.204 A 
ATOM      6  C   UNL     1       4.401  -8.898   5.840  0.00  0.00    +0.165 A 
ATOM      7  C   UNL     1       3.704  -8.491   4.712  0.00  0.00    +0.051 A 
BRANCH   6   8
ATOM      8  O   UNL     1       3.728  -9.205   6.982  0.00  0.00    -0.491 OA
ATOM      9  C   UNL     1       2.304  -9.092   6.945  0.00  0.00    +0.277 C 
ENDBRANCH   6   8
BRANCH   4  10
ATOM     10  O   UNL     1       7.827  -8.755   4.597  0.00  0.00    -0.491 OA
ATOM     11  C   UNL     1       8.462  -8.416   3.362  0.00  0.00    +0.277 C 
ENDBRANCH   4  10
BRANCH   5  12
ATOM     12  O   UNL     1       6.474  -9.379   6.912  0.00  0.00    -0.476 OA
BRANCH  12  13
ATOM     13  C   UNL     1       6.888  -8.354   7.817  0.00  0.00    +0.324 C 
BRANCH  13  14
ATOM     14  C   UNL     1       7.629  -8.975   8.973  0.00  0.00    +0.248 C 
ATOM     15  O   UNL     1       7.787 -10.176   9.018  0.00  0.00    -0.272 OA
ATOM     16  N   UNL     1       8.117  -8.194   9.958  0.00  0.00    -0.327 N 
ATOM     17  H   UNL     1       7.991  -7.233   9.923  0.00  0.00    +0.145 HD
ATOM     18  H   UNL     1       8.594  -8.593  10.703  0.00  0.00    +0.145 HD
ENDBRANCH  13  14
ENDBRANCH  12  13
ENDBRANCH   5  12
ENDBRANCH   1   2
BRANCH   1  19
ATOM     19  N   UNL     1       3.478  -6.288   2.333  0.00  0.00    +0.383 N 
ATOM     20  H   UNL     1       4.390  -5.857   2.333  0.00  0.00    -0.085 HD
ATOM     21  H   UNL     1       2.973  -6.006   3.160  0.00  0.00    -0.085 HD
BRANCH  19  22
ATOM     22  C   UNL     1       2.736  -5.863   1.138  0.00  0.00    -0.052 C 
BRANCH  22  23
ATOM     23  C   UNL     1       2.582  -4.341   1.147  0.00  0.00    +0.081 C 
BRANCH  23  24
ATOM     24  O   UNL     1       3.869  -3.731   1.030  0.00  0.00    -0.395 OA
ATOM     25  H   UNL     1       4.342  -3.965   0.220  0.00  0.00    +0.210 HD
ENDBRANCH  23  24
BRANCH  23  26
ATOM     26  C   UNL     1       1.704  -3.911  -0.029  0.00  0.00    -0.049 C 
BRANCH  26  31
ATOM     27  C   UNL     1      -0.019   1.526   0.010  0.00  0.00    +0.007 C 
ATOM     28  C   UNL     1       0.002  -0.004   0.002  0.00  0.00    -0.018 C 
ATOM     29  C   UNL     1       0.727  -0.499  -1.252  0.00  0.00    -0.016 C 
ATOM     30  C   UNL     1       0.814  -2.027  -1.215  0.00  0.00    -0.078 C 
ATOM     31  N   UNL     1       1.556  -2.449  -0.021  0.00  0.00    +0.381 N 
ATOM     32  C   UNL     1       0.829  -2.040   1.187  0.00  0.00    -0.078 C 
ATOM     33  C   UNL     1       0.743  -0.513   1.242  0.00  0.00    -0.016 C 
ATOM     34  H   UNL     1       2.469  -2.020  -0.024  0.00  0.00    -0.082 HD
ENDBRANCH  26  31
ENDBRANCH  23  26
ENDBRANCH  22  23
ENDBRANCH  19  22
ENDBRANCH   1  19
TORSDOF 12
