REMARK  Name = ZINC47280949
REMARK  7 active torsions:
REMARK  status: ('A' for Active; 'I' for Inactive)
REMARK    1  A    between atoms: C_1  and  C_2
REMARK    2  A    between atoms: C_2  and  N_3
REMARK    3  A    between atoms: C_4  and  C_6
REMARK    4  A    between atoms: C_6  and  N_7
REMARK    5  A    between atoms: N_11  and  S_14
REMARK    6  A    between atoms: S_14  and  C_17
REMARK    7  A    between atoms: C_22  and  C_23
REMARK                            x       y       z     vdW  Elec       q    Type
REMARK                         _______ _______ _______ _____ _____    ______ ____
ROOT
ATOM      1  N   UNL     1       0.888  -4.056  -3.364  0.00  0.00    +0.386 N 
ATOM      2  C   UNL     1       1.621  -4.149  -2.104  0.00  0.00    -0.077 C 
ATOM      3  C   UNL     1       1.255  -5.441  -1.407  0.00  0.00    -0.001 C 
ATOM      4  C   UNL     1       2.271  -6.534  -1.787  0.00  0.00    +0.107 C 
ATOM      5  N   UNL     1       2.638  -6.445  -3.215  0.00  0.00    -0.178 NA
ATOM      6  C   UNL     1       1.661  -6.181  -4.251  0.00  0.00    +0.091 C 
ATOM      7  C   UNL     1       1.529  -4.656  -4.471  0.00  0.00    -0.061 C 
ATOM      8  H   UNL     1      -0.011  -4.496  -3.240  0.00  0.00    -0.081 HD
ENDROOT
BRANCH   5   9
ATOM      9  S   UNL     1       4.222  -6.656  -3.647  0.00  0.00    +0.061 S 
ATOM     10  O   UNL     1       4.435  -5.865  -4.808  0.00  0.00    -0.153 OA
ATOM     11  O   UNL     1       4.991  -6.492  -2.463  0.00  0.00    -0.153 OA
BRANCH   9  12
ATOM     12  C   UNL     1       4.409  -8.337  -4.140  0.00  0.00    +0.109 A 
ATOM     13  C   UNL     1       4.754  -8.640  -5.445  0.00  0.00    +0.031 A 
ATOM     14  C   UNL     1       4.901  -9.957  -5.833  0.00  0.00    +0.040 A 
ATOM     15  C   UNL     1       4.702 -10.975  -4.915  0.00  0.00    +0.124 A 
ATOM     16  C   UNL     1       4.357 -10.671  -3.609  0.00  0.00    +0.043 A 
ATOM     17  C   UNL     1       4.216  -9.352  -3.222  0.00  0.00    -0.021 A 
ATOM     18  C   UNL     1       3.846  -9.020  -1.799  0.00  0.00    +0.046 C 
ATOM     19  F   UNL     1       4.846 -12.264  -5.293  0.00  0.00    -0.205 F 
ENDBRANCH   9  12
ENDBRANCH   5   9
BRANCH   1  20
ATOM     20  C   UNL     1       0.670  -2.636  -3.669  0.00  0.00    +0.019 C 
BRANCH  20  22
ATOM     21  N   UNL     1      -0.443  -0.692  -2.620  0.00  0.00    -0.317 N 
ATOM     22  C   UNL     1      -0.122  -1.999  -2.556  0.00  0.00    +0.196 C 
ATOM     23  O   UNL     1      -0.470  -2.663  -1.603  0.00  0.00    -0.278 OA
ATOM     24  H   UNL     1      -0.165  -0.161  -3.383  0.00  0.00    +0.149 HD
BRANCH  21  26
ATOM     25  C   UNL     1      -1.441   1.407  -1.856  0.00  0.00    +0.024 C 
ATOM     26  C   UNL     1      -1.213  -0.073  -1.538  0.00  0.00    +0.101 C 
ENDBRANCH  21  26
ENDBRANCH  20  22
ENDBRANCH   1  20
TORSDOF 5
