REMARK  Name = ZINC34756333
REMARK  9 active torsions:
REMARK  status: ('A' for Active; 'I' for Inactive)
REMARK    1  A    between atoms: C_1  and  C_2
REMARK    2  A    between atoms: C_2  and  N_3
REMARK    3  A    between atoms: N_3  and  C_4
REMARK    4  A    between atoms: C_4  and  C_5
REMARK    5  A    between atoms: C_6  and  C_8
REMARK    6  A    between atoms: C_8  and  N_9
REMARK    7  A    between atoms: C_22  and  S_24
REMARK    8  A    between atoms: S_24  and  C_25
REMARK    9  A    between atoms: C_25  and  C_26
REMARK                            x       y       z     vdW  Elec       q    Type
REMARK                         _______ _______ _______ _____ _____    ______ ____
ROOT
ATOM      1  N   UNL     1      -1.572  -1.099  -4.408  0.00  0.00    +0.387 N 
ATOM      2  C   UNL     1      -2.780  -1.305  -5.217  0.00  0.00    -0.059 C 
ATOM      3  C   UNL     1      -2.388  -1.880  -6.582  0.00  0.00    +0.088 C 
ATOM      4  N   UNL     1      -1.391  -0.988  -7.195  0.00  0.00    -0.318 N 
ATOM      5  C   UNL     1      -0.223  -0.597  -6.390  0.00  0.00    +0.088 C 
ATOM      6  C   UNL     1      -0.718  -0.083  -5.034  0.00  0.00    -0.059 C 
ATOM      7  C   UNL     1      -1.547  -0.530  -8.491  0.00  0.00    +0.134 A 
ATOM      8  C   UNL     1      -0.912  -1.203  -9.572  0.00  0.00    +0.051 A 
ATOM      9  C   UNL     1      -0.054  -2.389  -9.535  0.00  0.00    -0.025 A 
ATOM     10  C   UNL     1       0.427  -2.833 -10.714  0.00  0.00    -0.004 A 
ATOM     11  S   UNL     1      -0.222  -1.717 -11.928  0.00  0.00    -0.073 S 
ATOM     12  C   UNL     1      -1.141  -0.652 -10.848  0.00  0.00    +0.115 A 
ATOM     13  N   UNL     1      -1.895   0.418 -11.014  0.00  0.00    -0.215 NA
ATOM     14  C   UNL     1      -2.462   1.005  -9.969  0.00  0.00    +0.191 A 
ATOM     15  N   UNL     1      -2.292   0.533  -8.739  0.00  0.00    -0.206 NA
ATOM     16  C   UNL     1       1.320  -4.015 -10.943  0.00  0.00    +0.043 C 
ATOM     17  C   UNL     1       1.917  -4.439  -9.594  0.00  0.00    +0.005 C 
ATOM     18  C   UNL     1       0.790  -4.513  -8.559  0.00  0.00    +0.005 C 
ATOM     19  C   UNL     1       0.293  -3.105  -8.232  0.00  0.00    +0.037 C 
ATOM     20  H   UNL     1      -1.064  -1.968  -4.340  0.00  0.00    -0.081 HD
ENDROOT
BRANCH   1  21
ATOM     21  C   UNL     1      -1.956  -0.652  -3.062  0.00  0.00    +0.019 C 
BRANCH  21  23
ATOM     22  N   UNL     1      -3.188  -1.558  -1.118  0.00  0.00    -0.304 N 
ATOM     23  C   UNL     1      -2.730  -1.746  -2.372  0.00  0.00    +0.199 C 
ATOM     24  O   UNL     1      -2.941  -2.794  -2.944  0.00  0.00    -0.278 OA
BRANCH  22  26
ATOM     25  C   UNL     1      -5.433  -2.455  -0.743  0.00  0.00    +0.024 C 
ATOM     26  C   UNL     1      -3.941  -2.621  -0.447  0.00  0.00    +0.104 C 
ENDBRANCH  22  26
BRANCH  22  27
ATOM     27  C   UNL     1      -2.934  -0.292  -0.427  0.00  0.00    +0.104 C 
ATOM     28  C   UNL     1      -1.615  -0.388   0.343  0.00  0.00    +0.024 C 
ENDBRANCH  22  27
ENDBRANCH  21  23
ENDBRANCH   1  21
BRANCH  14  29
ATOM     29  S   UNL     1      -3.464   2.433 -10.216  0.00  0.00    -0.081 S 
BRANCH  29  30
ATOM     30  C   UNL     1      -3.415   2.698 -12.010  0.00  0.00    +0.112 C 
BRANCH  30  31
ATOM     31  C   UNL     1      -4.244   3.906 -12.362  0.00  0.00    -0.037 A 
ATOM     32  C   UNL     1      -5.588   3.761 -12.648  0.00  0.00    +0.007 A 
ATOM     33  C   UNL     1      -6.350   4.869 -12.971  0.00  0.00    +0.038 A 
ATOM     34  C   UNL     1      -5.765   6.123 -13.008  0.00  0.00    +0.123 A 
ATOM     35  C   UNL     1      -4.418   6.267 -12.721  0.00  0.00    +0.038 A 
ATOM     36  C   UNL     1      -3.660   5.159 -12.394  0.00  0.00    +0.007 A 
ATOM     37  F   UNL     1      -6.508   7.206 -13.324  0.00  0.00    -0.205 F 
ENDBRANCH  30  31
ENDBRANCH  29  30
ENDBRANCH  14  29
TORSDOF 7
