REMARK  Name = ZINC14530035
REMARK  8 active torsions:
REMARK  status: ('A' for Active; 'I' for Inactive)
REMARK    1  A    between atoms: C_1  and  C_2
REMARK    2  A    between atoms: C_5  and  C_18
REMARK    3  A    between atoms: N_8  and  C_10
REMARK    4  A    between atoms: C_10  and  C_11
REMARK    5  A    between atoms: C_23  and  C_26
REMARK    6  A    between atoms: C_26  and  N_27
REMARK    7  A    between atoms: C_29  and  C_36
REMARK    8  A    between atoms: C_32  and  C_35
REMARK                            x       y       z     vdW  Elec       q    Type
REMARK                         _______ _______ _______ _____ _____    ______ ____
ROOT
ATOM      1  C   UNL     1       0.005  -1.888  -4.818  0.00  0.00    +0.256 C 
ATOM      2  O   UNL     1      -0.013  -0.872  -5.487  0.00  0.00    -0.269 OA
ATOM      3  N   UNL     1       0.019  -3.093  -5.422  0.00  0.00    -0.260 N 
ATOM      4  C   UNL     1       0.013  -3.174  -6.809  0.00  0.00    +0.165 A 
ATOM      5  N   UNL     1       0.019  -4.251  -7.565  0.00  0.00    -0.228 NA
ATOM      6  C   UNL     1       0.013  -4.159  -8.882  0.00  0.00    +0.064 A 
ATOM      7  C   UNL     1      -0.001  -2.912  -9.413  0.00  0.00    +0.073 A 
ATOM      8  S   UNL     1      -0.011  -1.919  -7.930  0.00  0.00    -0.060 S 
ATOM      9  H   UNL     1       0.033  -3.903  -4.889  0.00  0.00    +0.157 HD
ENDROOT
BRANCH   1  14
ATOM     10  C   UNL     1      -0.018   1.503   0.010  0.00  0.00    +0.068 C 
ATOM     11  C   UNL     1       0.002  -0.004   0.002  0.00  0.00    +0.068 A 
ATOM     12  C   UNL     1       0.008  -0.829  -1.170  0.00  0.00    +0.031 A 
ATOM     13  C   UNL     1      -0.001  -0.690  -2.567  0.00  0.00    +0.032 A 
ATOM     14  C   UNL     1       0.011  -1.803  -3.355  0.00  0.00    +0.077 A 
ATOM     15  S   UNL     1       0.035  -3.128  -2.160  0.00  0.00    -0.064 S 
ATOM     16  C   UNL     1       0.029  -2.145  -0.684  0.00  0.00    +0.107 A 
ATOM     17  N   UNL     1       0.035  -2.107   0.662  0.00  0.00    -0.252 N 
ATOM     18  N   UNL     1       0.023  -0.763   1.056  0.00  0.00    -0.175 NA
BRANCH  17  19
ATOM     19  C   UNL     1       0.055  -3.267   1.556  0.00  0.00    +0.180 C 
BRANCH  19  20
ATOM     20  C   UNL     1       1.482  -3.645   1.856  0.00  0.00    -0.026 A 
ATOM     21  C   UNL     1       2.144  -4.545   1.042  0.00  0.00    +0.008 A 
ATOM     22  C   UNL     1       3.454  -4.892   1.316  0.00  0.00    +0.038 A 
ATOM     23  C   UNL     1       4.103  -4.338   2.406  0.00  0.00    +0.123 A 
ATOM     24  C   UNL     1       3.439  -3.437   3.221  0.00  0.00    +0.038 A 
ATOM     25  C   UNL     1       2.131  -3.087   2.942  0.00  0.00    +0.008 A 
ATOM     26  F   UNL     1       5.382  -4.677   2.675  0.00  0.00    -0.205 F 
ENDBRANCH  19  20
ENDBRANCH  17  19
ENDBRANCH   1  14
BRANCH   6  27
ATOM     27  C   UNL     1       0.020  -5.387  -9.756  0.00  0.00    +0.140 C 
BRANCH  27  28
ATOM     28  N   UNL     1       1.403  -5.843  -9.947  0.00  0.00    -0.292 NA
ATOM     29  C   UNL     1       2.178  -4.865 -10.724  0.00  0.00    +0.116 C 
ATOM     30  C   UNL     1       3.625  -5.351 -10.848  0.00  0.00    +0.130 C 
ATOM     31  O   UNL     1       3.636  -6.649 -11.448  0.00  0.00    -0.371 OA
ATOM     32  C   UNL     1       2.892  -7.627 -10.717  0.00  0.00    +0.130 C 
ATOM     33  C   UNL     1       1.438  -7.165 -10.591  0.00  0.00    +0.116 C 
ATOM     34  C   UNL     1       3.498  -7.794  -9.322  0.00  0.00    +0.039 C 
ATOM     35  C   UNL     1       4.417  -4.376 -11.722  0.00  0.00    +0.039 C 
ENDBRANCH  27  28
ENDBRANCH   6  27
TORSDOF 5
