REMARK  Name = ZINC21525531
REMARK  4 active torsions:
REMARK  status: ('A' for Active; 'I' for Inactive)
REMARK    1  A    between atoms: C_1  and  C_2
REMARK    2  A    between atoms: C_5  and  N_9
REMARK    3  A    between atoms: C_18  and  S_22
REMARK    4  A    between atoms: S_22  and  C_25
REMARK                            x       y       z     vdW  Elec       q    Type
REMARK                         _______ _______ _______ _____ _____    ______ ____
ROOT
ATOM      1  N   UNL     1     -10.432  -1.448   0.424  0.00  0.00    -0.269 N 
ATOM      2  C   UNL     1      -9.129  -1.185   0.649  0.00  0.00    +0.310 C 
ATOM      3  O   UNL     1      -8.438  -1.996   1.236  0.00  0.00    -0.252 OA
ATOM      4  N   UNL     1      -8.593  -0.024   0.224  0.00  0.00    -0.248 N 
ATOM      5  C   UNL     1      -7.255   0.246   0.456  0.00  0.00    +0.167 A 
ATOM      6  N   UNL     1      -6.358  -0.495   1.065  0.00  0.00    -0.225 NA
ATOM      7  C   UNL     1      -5.076  -0.101   1.221  0.00  0.00    +0.080 A 
ATOM      8  C   UNL     1      -4.019  -0.798   1.852  0.00  0.00    +0.031 A 
ATOM      9  C   UNL     1      -2.765  -0.252   1.925  0.00  0.00    +0.029 A 
ATOM     10  C   UNL     1      -2.486   0.996   1.386  0.00  0.00    +0.089 A 
ATOM     11  C   UNL     1      -3.496   1.708   0.767  0.00  0.00    +0.044 A 
ATOM     12  C   UNL     1      -4.755   1.166   0.685  0.00  0.00    +0.043 A 
ATOM     13  S   UNL     1      -6.308   1.693   0.002  0.00  0.00    -0.052 S 
ATOM     14  H   UNL     1     -11.075  -0.685  -0.039  0.00  0.00    +0.156 HD
ATOM     15  H   UNL     1      -9.218   0.709  -0.306  0.00  0.00    +0.158 HD
ENDROOT
BRANCH   1  20
ATOM     16  C   UNL     1     -12.599  -6.492   1.858  0.00  0.00    +0.045 C 
ATOM     17  C   UNL     1     -12.023  -5.152   1.478  0.00  0.00    -0.032 A 
ATOM     18  C   UNL     1     -12.480  -4.502   0.346  0.00  0.00    +0.006 A 
ATOM     19  C   UNL     1     -11.958  -3.271  -0.002  0.00  0.00    +0.024 A 
ATOM     20  C   UNL     1     -10.966  -2.692   0.778  0.00  0.00    +0.036 A 
ATOM     21  C   UNL     1     -10.509  -3.347   1.914  0.00  0.00    +0.043 A 
ATOM     22  C   UNL     1     -11.039  -4.576   2.261  0.00  0.00    +0.046 A 
ATOM     23 CL   UNL     1     -10.468  -5.397   3.680  0.00  0.00    -0.083 Cl
ENDBRANCH   1  20
BRANCH  10  24
ATOM     24  S   UNL     1      -0.861   1.670   1.496  0.00  0.00    -0.006 S 
ATOM     25  O   UNL     1      -0.291   1.057   2.645  0.00  0.00    -0.170 OA
ATOM     26  O   UNL     1      -1.048   3.078   1.444  0.00  0.00    -0.170 OA
ATOM     27  C   UNL     1      -0.016   1.096  -0.002  0.00  0.00    +0.200 C 
ENDBRANCH  10  24
TORSDOF 2
