REMARK  Name = ZINC36246077
REMARK  18 active torsions:
REMARK  status: ('A' for Active; 'I' for Inactive)
REMARK    1  A    between atoms: C_1  and  C_2
REMARK    2  A    between atoms: C_2  and  C_3
REMARK    3  A    between atoms: C_3  and  N_4
REMARK    4  A    between atoms: N_4  and  C_5
REMARK    5  A    between atoms: N_4  and  C_22
REMARK    6  A    between atoms: C_5  and  C_6
REMARK    7  A    between atoms: C_7  and  C_16
REMARK    8  A    between atoms: C_10  and  N_11
REMARK    9  A    between atoms: N_11  and  C_12
REMARK   10  A    between atoms: N_11  and  C_14
REMARK   11  A    between atoms: C_12  and  C_13
REMARK   12  A    between atoms: C_14  and  C_15
REMARK   13  A    between atoms: C_22  and  C_23
REMARK   14  A    between atoms: C_23  and  C_25
REMARK   15  A    between atoms: C_23  and  O_30
REMARK   16  A    between atoms: C_25  and  O_26
REMARK   17  A    between atoms: O_26  and  C_27
REMARK   18  A    between atoms: C_27  and  C_28
REMARK                            x       y       z     vdW  Elec       q    Type
REMARK                         _______ _______ _______ _____ _____    ______ ____
ROOT
ATOM      1  C   UNL     1      -3.012  -3.089  -2.403  0.00  0.00    +0.025 A 
ATOM      2  C   UNL     1      -4.118  -2.218  -2.310  0.00  0.00    +0.117 A 
ATOM      3  N   UNL     1      -4.468  -1.877  -3.529  0.00  0.00    -0.076 NA
ATOM      4  O   UNL     1      -3.591  -2.524  -4.433  0.00  0.00    -0.339 OA
ATOM      5  C   UNL     1      -2.714  -3.248  -3.717  0.00  0.00    +0.222 A 
ENDROOT
BRANCH   2   6
ATOM      6  C   UNL     1      -4.772  -1.767  -1.056  0.00  0.00    +0.004 A 
ATOM      7  C   UNL     1      -4.969  -2.664  -0.009  0.00  0.00    +0.010 A 
ATOM      8  C   UNL     1      -5.577  -2.240   1.155  0.00  0.00    +0.001 A 
ATOM      9  C   UNL     1      -5.989  -0.926   1.283  0.00  0.00    +0.000 A 
ATOM     10  C   UNL     1      -5.796  -0.031   0.247  0.00  0.00    +0.001 A 
ATOM     11  C   UNL     1      -5.184  -0.444  -0.920  0.00  0.00    +0.010 A 
ENDBRANCH   2   6
BRANCH   1  12
ATOM     12  C   UNL     1      -2.285  -3.724  -1.246  0.00  0.00    -0.035 C 
BRANCH  12  13
ATOM     13  N   UNL     1      -1.167  -2.863  -0.838  0.00  0.00    +0.384 N 
ATOM     14  H   UNL     1      -0.574  -2.682  -1.635  0.00  0.00    -0.081 HD
BRANCH  13  15
ATOM     15  C   UNL     1      -1.690  -1.593  -0.318  0.00  0.00    -0.079 C 
BRANCH  15  17
ATOM     16  C   UNL     1      -1.078   0.727   0.379  0.00  0.00    +0.002 C 
ATOM     17  C   UNL     1      -0.528  -0.640  -0.035  0.00  0.00    -0.022 C 
ENDBRANCH  15  17
ENDBRANCH  13  15
BRANCH  13  18
ATOM     18  C   UNL     1      -0.387  -3.537   0.209  0.00  0.00    -0.044 C 
BRANCH  18  19
ATOM     19  C   UNL     1       0.295  -4.774  -0.380  0.00  0.00    +0.124 C 
BRANCH  19  20
ATOM     20  O   UNL     1       1.270  -4.367  -1.342  0.00  0.00    -0.391 OA
ATOM     21  H   UNL     1       2.007  -3.865  -0.968  0.00  0.00    +0.210 HD
ENDBRANCH  19  20
BRANCH  19  22
ATOM     22  C   UNL     1       0.981  -5.559   0.740  0.00  0.00    +0.189 C 
BRANCH  22  23
ATOM     23  O   UNL     1       1.518  -6.773   0.211  0.00  0.00    -0.373 OA
BRANCH  23  24
ATOM     24  C   UNL     1       2.183  -7.586   1.180  0.00  0.00    +0.186 C 
BRANCH  24  25
ATOM     25  C   UNL     1       2.707  -8.833   0.515  0.00  0.00    -0.007 C 
ATOM     26  C   UNL     1       3.922  -9.249   0.769  0.00  0.00    +0.006 C 
ENDBRANCH  24  25
ENDBRANCH  23  24
ENDBRANCH  22  23
ENDBRANCH  19  22
ENDBRANCH  18  19
ENDBRANCH  13  18
ENDBRANCH  12  13
ENDBRANCH   1  12
BRANCH   5  27
ATOM     27  N   UNL     1      -1.690  -4.023  -4.230  0.00  0.00    -0.300 N 
BRANCH  27  28
ATOM     28  C   UNL     1      -0.829  -4.791  -3.326  0.00  0.00    +0.104 C 
ATOM     29  C   UNL     1      -1.467  -6.154  -3.049  0.00  0.00    +0.024 C 
ENDBRANCH  27  28
BRANCH  27  30
ATOM     30  C   UNL     1      -1.466  -4.077  -5.677  0.00  0.00    +0.104 C 
ATOM     31  C   UNL     1      -0.399  -3.051  -6.066  0.00  0.00    +0.024 C 
ENDBRANCH  27  30
ENDBRANCH   5  27
TORSDOF 15
