REMARK  Name = ZINC22198644
REMARK  11 active torsions:
REMARK  status: ('A' for Active; 'I' for Inactive)
REMARK    1  A    between atoms: C_1  and  N_2
REMARK    2  A    between atoms: N_2  and  C_3
REMARK    3  A    between atoms: N_2  and  C_18
REMARK    4  A    between atoms: C_3  and  C_4
REMARK    5  A    between atoms: C_4  and  C_5
REMARK    6  A    between atoms: N_7  and  C_8
REMARK    7  A    between atoms: C_11  and  S_14
REMARK    8  A    between atoms: S_14  and  N_17
REMARK    9  A    between atoms: C_18  and  C_19
REMARK   10  A    between atoms: C_24  and  O_25
REMARK   11  A    between atoms: O_25  and  C_26
REMARK                            x       y       z     vdW  Elec       q    Type
REMARK                         _______ _______ _______ _____ _____    ______ ____
ROOT
ATOM      1  C   UNL     1       6.360   4.898  -2.788  0.00  0.00    +0.215 C 
ATOM      2  O   UNL     1       6.824   5.401  -1.786  0.00  0.00    -0.276 OA
ATOM      3  N   UNL     1       7.096   4.838  -3.915  0.00  0.00    -0.286 N 
ATOM      4  H   UNL     1       6.705   4.315  -4.800  0.00  0.00    +0.155 HD
ENDROOT
BRANCH   3   5
ATOM      5  C   UNL     1       8.358   5.441  -3.959  0.00  0.00    +0.033 A 
ATOM      6  C   UNL     1       8.807   6.029  -5.135  0.00  0.00    +0.025 A 
ATOM      7  C   UNL     1      10.050   6.629  -5.173  0.00  0.00    +0.030 A 
ATOM      8  C   UNL     1      10.852   6.634  -4.047  0.00  0.00    +0.105 A 
ATOM      9  C   UNL     1      10.411   6.045  -2.877  0.00  0.00    +0.030 A 
ATOM     10  C   UNL     1       9.166   5.449  -2.830  0.00  0.00    +0.025 A 
BRANCH   8  11
ATOM     11  S   UNL     1      12.441   7.394  -4.103  0.00  0.00    +0.056 S 
ATOM     12  O   UNL     1      12.397   8.351  -5.152  0.00  0.00    -0.153 OA
ATOM     13  O   UNL     1      12.771   7.745  -2.766  0.00  0.00    -0.153 OA
BRANCH  11  14
ATOM     14  N   UNL     1      13.524   6.232  -4.568  0.00  0.00    -0.204 NA
ATOM     15  H   UNL     1      14.533   6.668  -4.616  0.00  0.00    +0.144 HD
ATOM     16  H   UNL     1      13.245   5.846  -5.560  0.00  0.00    +0.144 HD
ENDBRANCH  11  14
ENDBRANCH   8  11
ENDBRANCH   3   5
BRANCH   1  17
ATOM     17  C   UNL     1       4.960   4.340  -2.771  0.00  0.00    +0.077 C 
BRANCH  17  18
ATOM     18  C   UNL     1       4.350   4.534  -1.381  0.00  0.00    -0.070 C 
BRANCH  18  20
ATOM     19  C   UNL     1       2.100   4.763  -2.247  0.00  0.00    -0.096 C 
ATOM     20  N   UNL     1       2.985   3.990  -1.365  0.00  0.00    +0.381 N 
ATOM     21  H   UNL     1       3.027   2.960  -1.749  0.00  0.00    -0.082 HD
BRANCH  20  22
ATOM     22  C   UNL     1       2.454   3.941   0.003  0.00  0.00    -0.040 C 
BRANCH  22  23
ATOM     23  C   UNL     1       1.165   3.160   0.014  0.00  0.00    -0.021 A 
ATOM     24  C   UNL     1      -0.046   3.824   0.026  0.00  0.00    +0.020 A 
ATOM     25  C   UNL     1      -1.229   3.107   0.036  0.00  0.00    +0.018 A 
ATOM     26  C   UNL     1      -1.202   1.724   0.030  0.00  0.00    +0.019 A 
ATOM     27  C   UNL     1       0.007   1.056   0.024  0.00  0.00    +0.047 A 
ATOM     28  C   UNL     1       1.195   1.773   0.013  0.00  0.00    +0.121 A 
ATOM     29 BR   UNL     1      -2.885   4.019   0.050  0.00  0.00    -0.050 Br
BRANCH  28  30
ATOM     30  O   UNL     1       2.385   1.117   0.002  0.00  0.00    -0.495 OA
ATOM     31  C   UNL     1       2.339  -0.311   0.001  0.00  0.00    +0.277 C 
ENDBRANCH  28  30
ENDBRANCH  22  23
ENDBRANCH  20  22
ENDBRANCH  18  20
ENDBRANCH  17  18
ENDBRANCH   1  17
TORSDOF 9
