REMARK  Name = ZINC36820413
REMARK  4 active torsions:
REMARK  status: ('A' for Active; 'I' for Inactive)
REMARK    1  A    between atoms: C_3  and  O_10
REMARK    2  A    between atoms: C_4  and  C_8
REMARK    3  A    between atoms: O_10  and  C_11
REMARK    4  A    between atoms: C_11  and  C_12
REMARK                            x       y       z     vdW  Elec       q    Type
REMARK                         _______ _______ _______ _____ _____    ______ ____
ROOT
ATOM      1  C   UNL     1      -0.017   1.379   0.010  0.00  0.00    +0.006 A 
ATOM      2  C   UNL     1       1.165   2.096   0.002  0.00  0.00    +0.047 A 
ATOM      3  C   UNL     1       2.381   1.432  -0.013  0.00  0.00    +0.141 A 
ATOM      4  C   UNL     1       2.408   0.030  -0.021  0.00  0.00    +0.128 A 
ATOM      5  C   UNL     1       1.205  -0.684  -0.013  0.00  0.00    +0.144 A 
ATOM      6  C   UNL     1       0.002  -0.004   0.002  0.00  0.00    +0.040 A 
ATOM      7  F   UNL     1       1.219  -2.035  -0.021  0.00  0.00    -0.204 F 
ENDROOT
BRANCH   4   8
ATOM      8  C   UNL     1       3.659  -0.667  -0.038  0.00  0.00    +0.106 C 
ATOM      9  N   UNL     1       4.652  -1.220  -0.051  0.00  0.00    -0.191 NA
ENDBRANCH   4   8
BRANCH   3  10
ATOM     10  O   UNL     1       3.542   2.135  -0.022  0.00  0.00    -0.484 OA
BRANCH  10  11
ATOM     11  C   UNL     1       3.436   3.561  -0.013  0.00  0.00    +0.288 C 
BRANCH  11  12
ATOM     12  C   UNL     1       4.816   4.166  -0.024  0.00  0.00    +0.128 A 
ATOM     13  C   UNL     1       5.499   4.449   1.117  0.00  0.00    +0.124 A 
ATOM     14  S   UNL     1       6.932   5.087   0.517  0.00  0.00    +0.049 S 
ATOM     15  N   UNL     1       6.628   4.976  -1.069  0.00  0.00    -0.109 NA
ATOM     16  N   UNL     1       5.453   4.456  -1.140  0.00  0.00    -0.141 NA
ATOM     17 CL   UNL     1       5.014   4.214   2.767  0.00  0.00    -0.072 Cl
ENDBRANCH  11  12
ENDBRANCH  10  11
ENDBRANCH   3  10
TORSDOF 4
