REMARK  Name = ZINC39361191
REMARK  6 active torsions:
REMARK  status: ('A' for Active; 'I' for Inactive)
REMARK    1  A    between atoms: C_1  and  C_2
REMARK    2  A    between atoms: C_7  and  C_14
REMARK    3  A    between atoms: C_14  and  C_15
REMARK    4  A    between atoms: C_15  and  N_16
REMARK    5  A    between atoms: N_16  and  S_17
REMARK    6  A    between atoms: S_17  and  C_20
REMARK                            x       y       z     vdW  Elec       q    Type
REMARK                         _______ _______ _______ _____ _____    ______ ____
ROOT
ATOM      1  C   UNL     1       1.325  -5.759   1.300  0.00  0.00    +0.033 C 
ENDROOT
BRANCH   1   8
ATOM      2  C   UNL     1      -4.760  -5.317  -3.057  0.00  0.00    +0.044 C 
ATOM      3  C   UNL     1      -3.787  -5.428  -1.912  0.00  0.00    -0.049 A 
ATOM      4  C   UNL     1      -4.047  -6.354  -0.901  0.00  0.00    +0.004 A 
ATOM      5  C   UNL     1      -3.208  -6.500   0.157  0.00  0.00    +0.010 A 
ATOM      6  C   UNL     1      -2.009  -5.665   0.227  0.00  0.00    -0.007 A 
ATOM      7  C   UNL     1      -1.137  -5.777   1.270  0.00  0.00    -0.005 C 
ATOM      8  C   UNL     1       0.079  -4.872   1.260  0.00  0.00    +0.100 C 
ATOM      9  C   UNL     1       0.227  -3.919   0.096  0.00  0.00    +0.224 C 
ATOM     10  O   UNL     1       1.183  -3.170   0.037  0.00  0.00    -0.275 OA
ATOM     11  N   UNL     1      -0.689  -3.902  -0.859  0.00  0.00    -0.284 N 
ATOM     12  C   UNL     1      -1.759  -4.696  -0.855  0.00  0.00    +0.041 A 
ATOM     13  C   UNL     1      -2.690  -4.627  -1.908  0.00  0.00    +0.027 A 
ATOM     14  H   UNL     1      -0.575  -3.283  -1.597  0.00  0.00    +0.155 HD
ENDBRANCH   1   8
BRANCH   1  15
ATOM     15  C   UNL     1       1.379  -6.503   2.636  0.00  0.00    +0.107 C 
BRANCH  15  16
ATOM     16  N   UNL     1       2.632  -7.256   2.726  0.00  0.00    -0.190 NA
ATOM     17  H   UNL     1       3.166  -7.406   1.930  0.00  0.00    +0.148 HD
BRANCH  16  18
ATOM     18  S   UNL     1       3.138  -7.850   4.186  0.00  0.00    +0.058 S 
ATOM     19  O   UNL     1       4.354  -8.545   3.943  0.00  0.00    -0.153 OA
ATOM     20  O   UNL     1       3.046  -6.779   5.115  0.00  0.00    -0.153 OA
BRANCH  18  21
ATOM     21  C   UNL     1       1.960  -9.059   4.693  0.00  0.00    +0.105 A 
ATOM     22  C   UNL     1       0.867  -8.683   5.451  0.00  0.00    +0.029 A 
ATOM     23  C   UNL     1      -0.058  -9.630   5.848  0.00  0.00    +0.017 A 
ATOM     24  C   UNL     1       0.112 -10.955   5.488  0.00  0.00    +0.018 A 
ATOM     25  C   UNL     1       1.206 -11.331   4.730  0.00  0.00    +0.017 A 
ATOM     26  C   UNL     1       2.127 -10.382   4.329  0.00  0.00    +0.029 A 
ATOM     27 BR   UNL     1      -1.152 -12.252   6.032  0.00  0.00    -0.050 Br
ENDBRANCH  18  21
ENDBRANCH  16  18
ENDBRANCH  15  16
ENDBRANCH   1  15
TORSDOF 5
