REMARK  Name = ZINC66532944
REMARK  7 active torsions:
REMARK  status: ('A' for Active; 'I' for Inactive)
REMARK    1  A    between atoms: C_1  and  C_2
REMARK    2  A    between atoms: C_5  and  N_9
REMARK    3  A    between atoms: C_6  and  C_8
REMARK    4  A    between atoms: C_13  and  C_15
REMARK    5  A    between atoms: C_15  and  C_17
REMARK    6  A    between atoms: C_15  and  N_18
REMARK    7  A    between atoms: C_21  and  N_24
REMARK                            x       y       z     vdW  Elec       q    Type
REMARK                         _______ _______ _______ _____ _____    ______ ____
ROOT
ATOM      1  N   UNL     1       0.130  -4.178  -0.020  0.00  0.00    -0.269 N 
ATOM      2  C   UNL     1       0.014  -4.844  -1.185  0.00  0.00    +0.310 C 
ATOM      3  O   UNL     1       0.000  -4.233  -2.236  0.00  0.00    -0.252 OA
ATOM      4  N   UNL     1      -0.087  -6.188  -1.186  0.00  0.00    -0.239 N 
ATOM      5  C   UNL     1      -0.204  -6.854  -2.352  0.00  0.00    +0.237 C 
ATOM      6  O   UNL     1      -0.217  -6.244  -3.400  0.00  0.00    -0.274 OA
ATOM      7  H   UNL     1       0.201  -4.668   0.814  0.00  0.00    +0.156 HD
ATOM      8  H   UNL     1      -0.077  -6.676  -0.348  0.00  0.00    +0.159 HD
ENDROOT
BRANCH   1  13
ATOM      9  C   UNL     1       0.201   1.495   0.010  0.00  0.00    +0.044 C 
ATOM     10  C   UNL     1       0.182  -0.012   0.002  0.00  0.00    -0.050 A 
ATOM     11  C   UNL     1       0.759  -0.704  -1.047  0.00  0.00    +0.005 A 
ATOM     12  C   UNL     1       0.744  -2.084  -1.058  0.00  0.00    +0.024 A 
ATOM     13  C   UNL     1       0.148  -2.778  -0.012  0.00  0.00    +0.038 A 
ATOM     14  C   UNL     1      -0.430  -2.081   1.040  0.00  0.00    -0.029 A 
ATOM     15  C   UNL     1      -0.407  -0.700   1.046  0.00  0.00    +0.008 A 
ATOM     16  C   UNL     1      -1.078  -2.830   2.176  0.00  0.00    +0.045 C 
ENDBRANCH   1  13
BRANCH   5  17
ATOM     17  C   UNL     1      -0.317  -8.357  -2.353  0.00  0.00    +0.140 C 
ATOM     18  C   UNL     1      -1.630  -8.770  -1.686  0.00  0.00    +0.034 C 
BRANCH  17  19
ATOM     19  N   UNL     1      -0.294  -8.848  -3.737  0.00  0.00    -0.292 NA
ATOM     20  C   UNL     1      -0.045 -10.295  -3.778  0.00  0.00    +0.083 C 
ATOM     21  C   UNL     1       0.116 -10.746  -5.231  0.00  0.00    +0.000 C 
ATOM     22  C   UNL     1      -1.158 -10.406  -6.010  0.00  0.00    -0.066 C 
ATOM     23  C   UNL     1      -1.421  -8.901  -5.912  0.00  0.00    +0.000 C 
ATOM     24  C   UNL     1      -1.538  -8.504  -4.438  0.00  0.00    +0.083 C 
BRANCH  22  25
ATOM     25  N   UNL     1      -0.987 -10.784  -7.420  0.00  0.00    +0.382 N 
ATOM     26  C   UNL     1      -0.810 -12.254  -7.538  0.00  0.00    -0.079 C 
ATOM     27  C   UNL     1      -1.208 -12.541  -9.008  0.00  0.00    -0.020 C 
ATOM     28  C   UNL     1      -2.384 -11.566  -9.245  0.00  0.00    -0.020 C 
ATOM     29  C   UNL     1      -2.210 -10.462  -8.186  0.00  0.00    -0.079 C 
ATOM     30  H   UNL     1      -0.192 -10.304  -7.815  0.00  0.00    -0.081 HD
ENDBRANCH  22  25
ENDBRANCH  17  19
ENDBRANCH   5  17
TORSDOF 4
