REMARK  Name = ZINC40782363
REMARK  5 active torsions:
REMARK  status: ('A' for Active; 'I' for Inactive)
REMARK    1  A    between atoms: C_4  and  C_7
REMARK    2  A    between atoms: N_9  and  N_10
REMARK    3  A    between atoms: C_12  and  N_25
REMARK    4  A    between atoms: C_13  and  N_17
REMARK    5  A    between atoms: N_17  and  C_18
REMARK                            x       y       z     vdW  Elec       q    Type
REMARK                         _______ _______ _______ _____ _____    ______ ____
ROOT
ATOM      1  N   UNL     1       4.917  -2.744  -0.473  0.00  0.00    -0.247 N 
ATOM      2  C   UNL     1       4.952  -4.117  -0.263  0.00  0.00    +0.161 A 
ATOM      3  C   UNL     1       6.165  -4.808  -0.293  0.00  0.00    +0.107 A 
ATOM      4  C   UNL     1       6.144  -6.187  -0.076  0.00  0.00    +0.149 A 
ATOM      5  N   UNL     1       4.977  -6.786   0.149  0.00  0.00    -0.219 NA
ATOM      6  C   UNL     1       3.855  -6.097   0.169  0.00  0.00    +0.225 A 
ATOM      7  N   UNL     1       3.831  -4.793  -0.025  0.00  0.00    -0.217 NA
ATOM      8  H   UNL     1       5.739  -2.258  -0.646  0.00  0.00    +0.172 HD
ENDROOT
BRANCH   1  11
ATOM      9  C   UNL     1       3.660  -0.729  -0.638  0.00  0.00    +0.260 C 
ATOM     10  O   UNL     1       4.690  -0.120  -0.855  0.00  0.00    -0.269 OA
ATOM     11  N   UNL     1       3.694  -2.061  -0.435  0.00  0.00    -0.231 N 
ATOM     12  H   UNL     1       2.873  -2.546  -0.262  0.00  0.00    +0.173 HD
BRANCH   9  16
ATOM     13  C   UNL     1      -0.046   1.343  -0.523  0.00  0.00    +0.000 A 
ATOM     14  C   UNL     1       1.124   2.038  -0.770  0.00  0.00    +0.001 A 
ATOM     15  C   UNL     1       2.331   1.372  -0.808  0.00  0.00    +0.013 A 
ATOM     16  C   UNL     1       2.370  -0.008  -0.598  0.00  0.00    +0.038 A 
ATOM     17  C   UNL     1       1.186  -0.703  -0.350  0.00  0.00    +0.013 A 
ATOM     18  C   UNL     1      -0.015  -0.025  -0.314  0.00  0.00    +0.001 A 
ENDBRANCH   9  16
ENDBRANCH   1  11
BRANCH   3  19
ATOM     19  N   UNL     1       7.373  -4.135  -0.535  0.00  0.00    -0.353 N 
ATOM     20  H   UNL     1       7.373  -3.176  -0.685  0.00  0.00    +0.143 HD
ATOM     21  H   UNL     1       8.209  -4.628  -0.553  0.00  0.00    +0.143 HD
ENDBRANCH   3  19
BRANCH   4  22
ATOM     22  N   UNL     1       7.324  -6.923  -0.096  0.00  0.00    -0.298 N 
ATOM     23  H   UNL     1       8.177  -6.469  -0.178  0.00  0.00    +0.154 HD
BRANCH  22  24
ATOM     24  C   UNL     1       7.280  -8.316   0.002  0.00  0.00    +0.032 A 
ATOM     25  C   UNL     1       8.273  -8.997   0.695  0.00  0.00    +0.024 A 
ATOM     26  C   UNL     1       8.227 -10.374   0.790  0.00  0.00    +0.016 A 
ATOM     27  C   UNL     1       7.192 -11.075   0.197  0.00  0.00    +0.013 A 
ATOM     28  C   UNL     1       6.201 -10.400  -0.493  0.00  0.00    +0.016 A 
ATOM     29  C   UNL     1       6.239  -9.023  -0.587  0.00  0.00    +0.024 A 
ATOM     30  I   UNL     1       7.127 -13.164   0.343  0.00  0.00    -0.044 I 
ENDBRANCH  22  24
ENDBRANCH   4  22
TORSDOF 5
