REMARK  Name = ZINC13584072
REMARK  4 active torsions:
REMARK  status: ('A' for Active; 'I' for Inactive)
REMARK    1  A    between atoms: C_1  and  N_56
REMARK    2  A    between atoms: C_7  and  C_9
REMARK    3  A    between atoms: N_14  and  S_17
REMARK    4  A    between atoms: S_17  and  C_20
REMARK                            x       y       z     vdW  Elec       q    Type
REMARK                         _______ _______ _______ _____ _____    ______ ____
ROOT
ATOM      1  C   UNL     1      -1.121   0.694   2.155  0.00  0.00    +0.253 C 
ATOM      2  O   UNL     1      -0.550  -0.381   2.139  0.00  0.00    -0.269 OA
ATOM      3  N   UNL     1      -1.209   1.427   1.028  0.00  0.00    -0.295 N 
ATOM      4  C   UNL     1      -0.501   1.012  -0.192  0.00  0.00    +0.125 C 
ATOM      5  C   UNL     1      -1.514   0.902  -1.338  0.00  0.00    +0.128 C 
ATOM      6  N   UNL     1      -2.321   2.130  -1.371  0.00  0.00    -0.174 NA
ATOM      7  C   UNL     1      -3.032   2.543  -0.153  0.00  0.00    +0.128 C 
ATOM      8  C   UNL     1      -2.019   2.653   0.993  0.00  0.00    +0.125 C 
ENDROOT
BRANCH   1  15
ATOM      9  C   UNL     1      -3.690   0.987   9.184  0.00  0.00    -0.096 C 
ATOM     10  C   UNL     1      -4.048   2.695   7.505  0.00  0.00    -0.074 C 
ATOM     11  C   UNL     1      -3.292   3.508   6.441  0.00  0.00    +0.024 C 
ATOM     12  C   UNL     1      -2.745   2.545   5.433  0.00  0.00    -0.010 A 
ATOM     13  C   UNL     1      -2.650   1.188   5.582  0.00  0.00    -0.053 A 
ATOM     14  C   UNL     1      -2.112   0.482   4.520  0.00  0.00    +0.022 A 
ATOM     15  C   UNL     1      -1.714   1.190   3.400  0.00  0.00    +0.074 A 
ATOM     16  S   UNL     1      -2.104   2.868   3.871  0.00  0.00    -0.088 S 
ATOM     17  C   UNL     1      -3.125   0.531   6.875  0.00  0.00    -0.043 C 
ATOM     18  N   UNL     1      -3.179   1.571   7.928  0.00  0.00    +0.381 N 
ATOM     19  H   UNL     1      -2.230   1.929   8.089  0.00  0.00    -0.082 HD
ENDBRANCH   1  15
BRANCH   6  20
ATOM     20  S   UNL     1      -2.425   3.033  -2.755  0.00  0.00    +0.061 S 
ATOM     21  O   UNL     1      -2.759   4.355  -2.354  0.00  0.00    -0.153 OA
ATOM     22  O   UNL     1      -1.264   2.739  -3.520  0.00  0.00    -0.153 OA
BRANCH  20  23
ATOM     23  C   UNL     1      -3.800   2.422  -3.673  0.00  0.00    +0.106 A 
ATOM     24  C   UNL     1      -3.607   1.402  -4.602  0.00  0.00    +0.029 A 
ATOM     25  C   UNL     1      -4.649   0.904  -5.322  0.00  0.00    +0.010 A 
ATOM     26  C   UNL     1      -5.938   1.432  -5.138  0.00  0.00    -0.016 A 
ATOM     27  C   UNL     1      -7.036   0.948  -5.868  0.00  0.00    +0.028 A 
ATOM     28  C   UNL     1      -8.271   1.485  -5.662  0.00  0.00    +0.042 A 
ATOM     29  C   UNL     1      -8.463   2.510  -4.736  0.00  0.00    +0.020 A 
ATOM     30  C   UNL     1      -7.422   3.003  -4.012  0.00  0.00    +0.010 A 
ATOM     31  C   UNL     1      -6.133   2.474  -4.197  0.00  0.00    -0.016 A 
ATOM     32  C   UNL     1      -5.034   2.958  -3.467  0.00  0.00    +0.037 A 
ATOM     33 CL   UNL     1      -9.626   0.884  -6.566  0.00  0.00    -0.084 Cl
ENDBRANCH  20  23
ENDBRANCH   6  20
TORSDOF 3
