REMARK  Name = ZINC33263585
REMARK  4 active torsions:
REMARK  status: ('A' for Active; 'I' for Inactive)
REMARK    1  A    between atoms: C_6  and  N_7
REMARK    2  A    between atoms: C_8  and  C_10
REMARK    3  A    between atoms: C_13  and  C_15
REMARK    4  A    between atoms: C_21  and  C_24
REMARK                            x       y       z     vdW  Elec       q    Type
REMARK                         _______ _______ _______ _____ _____    ______ ____
ROOT
ATOM      1  C   UNL     1      -5.755   4.250   8.016  0.00  0.00    +0.187 A 
ATOM      2  N   UNL     1      -6.234   4.852   6.930  0.00  0.00    -0.136 NA
ATOM      3  N   UNL     1      -5.672   4.686   5.811  0.00  0.00    -0.136 NA
ATOM      4  C   UNL     1      -4.599   3.908   5.707  0.00  0.00    +0.187 A 
ATOM      5  S   UNL     1      -4.404   3.383   7.352  0.00  0.00    -0.036 S 
ENDROOT
BRANCH   4   6
ATOM      6  C   UNL     1      -3.793   3.575   4.515  0.00  0.00    +0.274 C 
ATOM      7  O   UNL     1      -2.820   2.854   4.621  0.00  0.00    -0.268 OA
ATOM      8  N   UNL     1      -4.136   4.072   3.310  0.00  0.00    -0.295 N 
ATOM      9  C   UNL     1      -5.230   5.044   3.185  0.00  0.00    +0.108 C 
ATOM     10  C   UNL     1      -4.712   6.276   2.436  0.00  0.00    +0.020 C 
ATOM     11  C   UNL     1      -4.104   5.838   1.101  0.00  0.00    +0.016 C 
ATOM     12  C   UNL     1      -2.924   4.899   1.360  0.00  0.00    +0.092 C 
ATOM     13  C   UNL     1      -3.422   3.651   2.097  0.00  0.00    +0.121 C 
BRANCH  12  14
ATOM     14  C   UNL     1      -2.306   4.494   0.047  0.00  0.00    +0.220 C 
ATOM     15  O   UNL     1      -2.824   4.831  -0.997  0.00  0.00    -0.275 OA
ATOM     16  N   UNL     1      -1.177   3.758   0.032  0.00  0.00    -0.301 N 
ATOM     17  C   UNL     1      -0.491   3.413   1.284  0.00  0.00    +0.108 C 
ATOM     18  C   UNL     1       0.974   3.846   1.180  0.00  0.00    +0.019 C 
ATOM     19  C   UNL     1       1.598   3.223  -0.071  0.00  0.00    +0.003 C 
ATOM     20  C   UNL     1       0.858   3.720  -1.314  0.00  0.00    +0.019 C 
ATOM     21  C   UNL     1      -0.609   3.285  -1.238  0.00  0.00    +0.108 C 
ENDBRANCH  12  14
ENDBRANCH   4   6
BRANCH   1  23
ATOM     22  N   UNL     1      -7.328   5.041   9.715  0.00  0.00    -0.280 N 
ATOM     23  C   UNL     1      -6.244   4.301   9.408  0.00  0.00    +0.275 C 
ATOM     24  O   UNL     1      -5.669   3.675  10.277  0.00  0.00    -0.268 OA
ATOM     25  H   UNL     1      -7.888   5.553   8.919  0.00  0.00    +0.155 HD
BRANCH  22  31
ATOM     26  C   UNL     1      -9.091   5.282  11.348  0.00  0.00    +0.025 A 
ATOM     27  C   UNL     1      -9.496   5.390  12.664  0.00  0.00    +0.022 A 
ATOM     28  C   UNL     1      -8.557   5.388  13.681  0.00  0.00    +0.041 A 
ATOM     29  C   UNL     1      -7.211   5.270  13.383  0.00  0.00    +0.022 A 
ATOM     30  C   UNL     1      -6.801   5.154  12.069  0.00  0.00    +0.025 A 
ATOM     31  C   UNL     1      -7.741   5.157  11.046  0.00  0.00    +0.034 A 
ATOM     32 CL   UNL     1      -9.070   5.532  15.333  0.00  0.00    -0.084 Cl
ENDBRANCH  22  31
ENDBRANCH   1  23
TORSDOF 4
