REMARK  Name = ZINC04180882
REMARK  5 active torsions:
REMARK  status: ('A' for Active; 'I' for Inactive)
REMARK    1  A    between atoms: C_4  and  C_7
REMARK    2  A    between atoms: C_9  and  C_29
REMARK    3  A    between atoms: C_10  and  N_28
REMARK    4  A    between atoms: N_11  and  C_19
REMARK    5  A    between atoms: C_22  and  N_25
REMARK                            x       y       z     vdW  Elec       q    Type
REMARK                         _______ _______ _______ _____ _____    ______ ____
ROOT
ATOM      1  C   UNL     1       1.449  -1.704  -0.201  0.00  0.00    +0.097 C 
ATOM      2  C   UNL     1       0.974  -0.432  -0.839  0.00  0.00    +0.077 C 
ATOM      3  C   UNL     1      -0.296   0.012  -0.658  0.00  0.00    +0.107 C 
ATOM      4  N   UNL     1      -1.175  -0.708   0.119  0.00  0.00    -0.260 N 
ATOM      5  C   UNL     1      -0.948  -2.037   0.374  0.00  0.00    +0.024 C 
ATOM      6  C   UNL     1       0.288  -2.561   0.237  0.00  0.00    +0.025 C 
ATOM      7  C   UNL     1       0.532  -3.921   0.500  0.00  0.00    +0.162 C 
ATOM      8  O   UNL     1       1.653  -4.365   0.350  0.00  0.00    -0.292 OA
ATOM      9  C   UNL     1      -0.569  -4.835   0.962  0.00  0.00    +0.080 C 
ATOM     10  C   UNL     1      -1.612  -4.012   1.726  0.00  0.00    +0.014 C 
ATOM     11  C   UNL     1      -2.112  -2.893   0.810  0.00  0.00    +0.052 C 
ENDROOT
BRANCH   1  15
ATOM     12  C   UNL     1       3.850  -0.753   3.201  0.00  0.00    +0.000 A 
ATOM     13  C   UNL     1       4.391  -1.476   2.155  0.00  0.00    +0.000 A 
ATOM     14  C   UNL     1       3.614  -1.784   1.053  0.00  0.00    +0.004 A 
ATOM     15  C   UNL     1       2.296  -1.369   0.999  0.00  0.00    -0.035 A 
ATOM     16  C   UNL     1       1.757  -0.641   2.044  0.00  0.00    +0.004 A 
ATOM     17  C   UNL     1       2.533  -0.337   3.147  0.00  0.00    +0.000 A 
ENDBRANCH   1  15
BRANCH   4  18
ATOM     18  C   UNL     1      -2.310  -0.081   0.648  0.00  0.00    +0.040 A 
ATOM     19  C   UNL     1      -3.494  -0.059  -0.078  0.00  0.00    +0.026 A 
ATOM     20  C   UNL     1      -4.613   0.556   0.449  0.00  0.00    +0.034 A 
ATOM     21  C   UNL     1      -4.552   1.159   1.692  0.00  0.00    +0.126 A 
ATOM     22  C   UNL     1      -3.373   1.143   2.414  0.00  0.00    +0.034 A 
ATOM     23  C   UNL     1      -2.252   0.525   1.896  0.00  0.00    +0.026 A 
BRANCH  21  24
ATOM     24  N   UNL     1      -5.751   1.823   2.250  0.00  0.00    +0.056 N 
ATOM     25  O   UNL     1      -5.699   2.355   3.345  0.00  0.00    -0.126 OA
ATOM     26  O   UNL     1      -6.790   1.838   1.615  0.00  0.00    -0.126 OA
ENDBRANCH  21  24
ENDBRANCH   4  18
BRANCH   3  27
ATOM     27  N   UNL     1      -0.703   1.186  -1.246  0.00  0.00    -0.345 N 
ATOM     28  H   UNL     1      -0.061   1.741  -1.716  0.00  0.00    +0.144 HD
ATOM     29  H   UNL     1      -1.633   1.457  -1.194  0.00  0.00    +0.144 HD
ENDBRANCH   3  27
BRANCH   2  30
ATOM     30  C   UNL     1       1.876   0.327  -1.653  0.00  0.00    +0.099 C 
ATOM     31  N   UNL     1       2.591   0.928  -2.299  0.00  0.00    -0.191 NA
ENDBRANCH   2  30
TORSDOF 5
