REMARK  Name = ZINC19535901
REMARK  7 active torsions:
REMARK  status: ('A' for Active; 'I' for Inactive)
REMARK    1  A    between atoms: C_1  and  C_2
REMARK    2  A    between atoms: N_4  and  C_5
REMARK    3  A    between atoms: C_8  and  S_11
REMARK    4  A    between atoms: S_11  and  N_14
REMARK    5  A    between atoms: N_14  and  C_15
REMARK    6  A    between atoms: N_25  and  C_26
REMARK    7  A    between atoms: C_29  and  C_32
REMARK                            x       y       z     vdW  Elec       q    Type
REMARK                         _______ _______ _______ _____ _____    ______ ____
ROOT
ATOM      1  C   UNL     1      -0.832  -8.332   2.349  0.00  0.00    +0.203 A 
ATOM      2  C   UNL     1      -0.850  -8.668   3.724  0.00  0.00    +0.167 A 
ATOM      3  N   UNL     1      -0.768  -9.926   4.104  0.00  0.00    -0.227 NA
ATOM      4  C   UNL     1      -0.665 -10.895   3.183  0.00  0.00    +0.091 A 
ATOM      5  C   UNL     1      -0.577 -12.244   3.564  0.00  0.00    +0.030 A 
ATOM      6  C   UNL     1      -0.474 -13.210   2.609  0.00  0.00    +0.002 A 
ATOM      7  C   UNL     1      -0.456 -12.880   1.256  0.00  0.00    +0.002 A 
ATOM      8  C   UNL     1      -0.540 -11.582   0.852  0.00  0.00    +0.030 A 
ATOM      9  C   UNL     1      -0.647 -10.560   1.808  0.00  0.00    +0.092 A 
ATOM     10  N   UNL     1      -0.737  -9.275   1.434  0.00  0.00    -0.224 NA
ATOM     11  N   UNL     1      -0.955  -7.665   4.678  0.00  0.00    -0.297 N 
ATOM     12  H   UNL     1      -1.075  -6.743   4.400  0.00  0.00    +0.154 HD
ENDROOT
BRANCH  11  13
ATOM     13  C   UNL     1      -0.890  -7.981   6.030  0.00  0.00    +0.032 A 
ATOM     14  C   UNL     1      -0.281  -7.100   6.920  0.00  0.00    +0.024 A 
ATOM     15  C   UNL     1      -0.215  -7.407   8.250  0.00  0.00    +0.017 A 
ATOM     16  C   UNL     1      -0.759  -8.610   8.716  0.00  0.00    +0.063 A 
ATOM     17  C   UNL     1      -1.369  -9.493   7.818  0.00  0.00    +0.017 A 
ATOM     18  C   UNL     1      -1.437  -9.176   6.491  0.00  0.00    +0.024 A 
BRANCH  16  19
ATOM     19  C   UNL     1      -0.689  -8.945  10.147  0.00  0.00    +0.387 C 
ATOM     20  O   UNL     1      -0.154  -8.172  10.931  0.00  0.00    -0.241 OA
ATOM     21  O   UNL     1      -1.165  -9.996  10.553  0.00  0.00    -0.241 OA
ENDBRANCH  16  19
ENDBRANCH  11  13
BRANCH   1  22
ATOM     22  N   UNL     1      -0.919  -7.003   1.963  0.00  0.00    -0.074 NA
BRANCH  22  23
ATOM     23  S   UNL     1      -0.905  -6.606   0.355  0.00  0.00    +0.093 S 
ATOM     24  O   UNL     1      -2.100  -7.133  -0.204  0.00  0.00    -0.148 OA
ATOM     25  O   UNL     1       0.383  -6.950  -0.137  0.00  0.00    -0.148 OA
BRANCH  23  29
ATOM     26  C   UNL     1      -1.231  -2.096   0.088  0.00  0.00    +0.033 A 
ATOM     27  C   UNL     1       0.017  -2.701   0.162  0.00  0.00    +0.025 A 
ATOM     28  C   UNL     1       0.113  -4.076   0.243  0.00  0.00    +0.031 A 
ATOM     29  C   UNL     1      -1.032  -4.851   0.252  0.00  0.00    +0.111 A 
ATOM     30  C   UNL     1      -2.276  -4.253   0.178  0.00  0.00    +0.031 A 
ATOM     31  C   UNL     1      -2.380  -2.877   0.103  0.00  0.00    +0.025 A 
BRANCH  26  35
ATOM     32  C   UNL     1      -2.407   1.442   0.607  0.00  0.00    +0.109 C 
ATOM     33  C   UNL     1      -2.349  -0.064   0.617  0.00  0.00    +0.214 C 
ATOM     34  O   UNL     1      -3.219  -0.701   1.173  0.00  0.00    -0.276 OA
ATOM     35  N   UNL     1      -1.332  -0.703   0.006  0.00  0.00    -0.286 N 
ATOM     36  H   UNL     1      -0.670  -0.198  -0.490  0.00  0.00    +0.155 HD
ENDBRANCH  26  35
ENDBRANCH  23  29
ENDBRANCH  22  23
ENDBRANCH   1  22
TORSDOF 6
