REMARK  Name = ZINC40564104
REMARK  7 active torsions:
REMARK  status: ('A' for Active; 'I' for Inactive)
REMARK    1  A    between atoms: C_1  and  C_2
REMARK    2  A    between atoms: C_3  and  C_30
REMARK    3  A    between atoms: C_9  and  C_12
REMARK    4  A    between atoms: N_14  and  C_15
REMARK    5  A    between atoms: C_18  and  S_21
REMARK    6  A    between atoms: S_21  and  N_24
REMARK    7  A    between atoms: N_24  and  C_25
REMARK                            x       y       z     vdW  Elec       q    Type
REMARK                         _______ _______ _______ _____ _____    ______ ____
ROOT
ATOM      1  C   UNL     1       0.071  -1.528   4.877  0.00  0.00    +0.248 C 
ATOM      2  O   UNL     1       0.069  -0.396   5.320  0.00  0.00    -0.270 OA
ATOM      3  N   UNL     1       0.092  -2.581   5.717  0.00  0.00    -0.282 N 
ATOM      4  H   UNL     1       0.026  -3.483   5.367  0.00  0.00    +0.155 HD
ENDROOT
BRANCH   1  13
ATOM      5  C   UNL     1      -0.022   1.502   0.010  0.00  0.00    +0.046 C 
ATOM      6  C   UNL     1      -0.010  -0.005   0.002  0.00  0.00    -0.022 A 
ATOM      7  C   UNL     1      -0.014  -0.798  -1.081  0.00  0.00    +0.017 A 
ATOM      8  N   UNL     1       0.000  -2.112  -0.697  0.00  0.00    -0.358 N 
ATOM      9  H   UNL     1       0.001  -2.869  -1.304  0.00  0.00    +0.166 HD
ATOM     10  C   UNL     1       0.013  -2.201   0.674  0.00  0.00    +0.047 A 
ATOM     11  C   UNL     1       0.013  -0.884   1.175  0.00  0.00    +0.004 A 
ATOM     12  C   UNL     1       0.031  -0.661   2.549  0.00  0.00    +0.023 A 
ATOM     13  C   UNL     1       0.052  -1.749   3.417  0.00  0.00    +0.038 A 
ATOM     14  C   UNL     1       0.055  -3.055   2.906  0.00  0.00    +0.015 A 
ATOM     15  C   UNL     1       0.029  -3.275   1.561  0.00  0.00    +0.027 A 
ATOM     16  C   UNL     1      -0.030  -0.314  -2.507  0.00  0.00    +0.063 C 
ENDBRANCH   1  13
BRANCH   3  17
ATOM     17  C   UNL     1       0.208  -2.373   7.096  0.00  0.00    +0.034 A 
ATOM     18  C   UNL     1       0.929  -3.268   7.876  0.00  0.00    +0.025 A 
ATOM     19  C   UNL     1       1.042  -3.060   9.236  0.00  0.00    +0.031 A 
ATOM     20  C   UNL     1       0.438  -1.963   9.822  0.00  0.00    +0.111 A 
ATOM     21  C   UNL     1      -0.281  -1.070   9.048  0.00  0.00    +0.031 A 
ATOM     22  C   UNL     1      -0.392  -1.269   7.686  0.00  0.00    +0.025 A 
BRANCH  20  23
ATOM     23  S   UNL     1       0.584  -1.701  11.559  0.00  0.00    +0.093 S 
ATOM     24  O   UNL     1      -0.527  -0.903  11.944  0.00  0.00    -0.148 OA
ATOM     25  O   UNL     1       0.847  -2.971  12.140  0.00  0.00    -0.148 OA
BRANCH  23  26
ATOM     26  N   UNL     1       1.937  -0.779  11.803  0.00  0.00    -0.070 NA
BRANCH  26  27
ATOM     27  C   UNL     1       2.304  -0.413  13.088  0.00  0.00    +0.201 A 
ATOM     28  N   UNL     1       1.708  -0.709  14.224  0.00  0.00    -0.231 NA
ATOM     29  C   UNL     1       2.188  -0.280  15.378  0.00  0.00    +0.120 A 
ATOM     30  C   UNL     1       3.314   0.473  15.335  0.00  0.00    +0.068 A 
ATOM     31  S   UNL     1       3.623   0.510  13.577  0.00  0.00    -0.058 S 
ENDBRANCH  26  27
ENDBRANCH  23  26
ENDBRANCH  20  23
ENDBRANCH   3  17
TORSDOF 5
