REMARK  Name = ZINC02782588
REMARK  7 active torsions:
REMARK  status: ('A' for Active; 'I' for Inactive)
REMARK    1  A    between atoms: C_1  and  C_2
REMARK    2  A    between atoms: N_5  and  C_7
REMARK    3  A    between atoms: C_7  and  C_9
REMARK    4  A    between atoms: C_7  and  C_10
REMARK    5  A    between atoms: N_12  and  C_13
REMARK    6  A    between atoms: C_14  and  C_24
REMARK    7  A    between atoms: C_19  and  C_23
REMARK                            x       y       z     vdW  Elec       q    Type
REMARK                         _______ _______ _______ _____ _____    ______ ____
ROOT
ATOM      1  C   UNL     1      -1.701   2.389  -1.392  0.00  0.00    +0.242 C 
ATOM      2  O   UNL     1      -1.109   1.873  -2.316  0.00  0.00    -0.273 OA
ATOM      3  N   UNL     1      -2.797   3.137  -1.628  0.00  0.00    -0.277 N 
ATOM      4  H   UNL     1      -3.271   3.550  -0.889  0.00  0.00    +0.155 HD
ENDROOT
BRANCH   3   5
ATOM      5  C   UNL     1      -3.247   3.318  -2.928  0.00  0.00    +0.090 A 
ATOM      6  C   UNL     1      -4.346   4.041  -3.367  0.00  0.00    +0.084 A 
ATOM      7  C   UNL     1      -4.600   4.077  -4.796  0.00  0.00    -0.018 A 
ATOM      8  C   UNL     1      -3.725   3.379  -5.554  0.00  0.00    -0.004 A 
ATOM      9  S   UNL     1      -2.576   2.689  -4.397  0.00  0.00    -0.077 S 
ATOM     10  C   UNL     1      -3.739   3.230  -7.044  0.00  0.00    +0.046 C 
ATOM     11  C   UNL     1      -5.113   3.680  -7.562  0.00  0.00    -0.009 C 
ATOM     12  C   UNL     1      -5.465   5.025  -6.921  0.00  0.00    +0.008 C 
ATOM     13  C   UNL     1      -5.762   4.830  -5.433  0.00  0.00    +0.037 C 
ATOM     14  C   UNL     1      -5.062   3.832  -9.084  0.00  0.00    +0.008 C 
BRANCH   6  15
ATOM     15  C   UNL     1      -5.197   4.731  -2.444  0.00  0.00    +0.102 C 
ATOM     16  N   UNL     1      -5.872   5.278  -1.712  0.00  0.00    -0.191 NA
ENDBRANCH   6  15
ENDBRANCH   3   5
BRANCH   1  17
ATOM     17  C   UNL     1      -1.212   2.192   0.020  0.00  0.00    +0.190 C 
ATOM     18  C   UNL     1      -2.307   1.517   0.849  0.00  0.00    +0.042 C 
BRANCH  17  23
ATOM     19  C   UNL     1       3.603   0.777  -0.027  0.00  0.00    +0.069 C 
ATOM     20  C   UNL     1       2.097   0.750  -0.014  0.00  0.00    +0.078 A 
ATOM     21  C   UNL     1       1.297  -0.399  -0.013  0.00  0.00    +0.081 A 
ATOM     22  C   UNL     1       0.002  -0.004   0.002  0.00  0.00    +0.129 A 
ATOM     23  N   UNL     1      -0.016   1.346   0.009  0.00  0.00    -0.258 N 
ATOM     24  N   UNL     1       1.310   1.796  -0.001  0.00  0.00    -0.174 NA
ATOM     25 CL   UNL     1       1.865  -2.039  -0.027  0.00  0.00    -0.080 Cl
ENDBRANCH  17  23
ENDBRANCH   1  17
TORSDOF 4
