REMARK  Name = ZINC38534886
REMARK  4 active torsions:
REMARK  status: ('A' for Active; 'I' for Inactive)
REMARK    1  A    between atoms: N_21  and  N_24
REMARK    2  A    between atoms: C_25  and  C_26
REMARK    3  A    between atoms: C_29  and  C_31
REMARK    4  A    between atoms: C_35  and  C_37
REMARK                            x       y       z     vdW  Elec       q    Type
REMARK                         _______ _______ _______ _____ _____    ______ ____
ROOT
ATOM      1  C   UNL     1      -0.028   1.376   0.011  0.00  0.00    +0.000 A 
ATOM      2  C   UNL     1       1.154   2.093   0.018  0.00  0.00    +0.000 A 
ATOM      3  C   UNL     1       2.377   1.434   0.009  0.00  0.00    +0.004 A 
ATOM      4  C   UNL     1       2.389   0.068  -0.007  0.00  0.00    -0.035 A 
ATOM      5  C   UNL     1       1.197  -0.654  -0.015  0.00  0.00    -0.035 A 
ATOM      6  C   UNL     1      -0.009  -0.013  -0.005  0.00  0.00    +0.004 A 
ATOM      7  C   UNL     1       1.377  -2.164  -0.033  0.00  0.00    +0.062 C 
ATOM      8  C   UNL     1       2.293  -2.474   1.140  0.00  0.00    -0.035 A 
ATOM      9  C   UNL     1       2.018  -3.376   2.128  0.00  0.00    +0.004 A 
ATOM     10  C   UNL     1       2.947  -3.561   3.143  0.00  0.00    +0.000 A 
ATOM     11  C   UNL     1       4.128  -2.842   3.152  0.00  0.00    +0.000 A 
ATOM     12  C   UNL     1       4.402  -1.927   2.144  0.00  0.00    +0.004 A 
ATOM     13  C   UNL     1       3.484  -1.751   1.147  0.00  0.00    -0.035 A 
ATOM     14  C   UNL     1       3.643  -0.790  -0.020  0.00  0.00    +0.062 C 
ATOM     15  C   UNL     1       3.530  -1.663  -1.289  0.00  0.00    +0.102 C 
ATOM     16  C   UNL     1       2.214  -2.460  -1.298  0.00  0.00    +0.102 C 
ATOM     17  C   UNL     1       2.669  -3.902  -1.250  0.00  0.00    +0.246 C 
ATOM     18  O   UNL     1       1.938  -4.870  -1.244  0.00  0.00    -0.273 OA
ATOM     19  N   UNL     1       4.007  -3.939  -1.218  0.00  0.00    -0.127 N 
ATOM     20  C   UNL     1       4.596  -2.737  -1.235  0.00  0.00    +0.246 C 
ATOM     21  O   UNL     1       5.792  -2.539  -1.210  0.00  0.00    -0.273 OA
ENDROOT
BRANCH  19  22
ATOM     22  N   UNL     1       4.731  -5.138  -1.171  0.00  0.00    -0.175 NA
ATOM     23  C   UNL     1       4.105  -6.272  -1.046  0.00  0.00    +0.177 C 
BRANCH  23  24
ATOM     24  C   UNL     1       4.864  -7.513  -0.886  0.00  0.00    +0.148 A 
ATOM     25  C   UNL     1       4.331  -8.776  -0.750  0.00  0.00    +0.051 A 
ATOM     26  C   UNL     1       5.410  -9.660  -0.624  0.00  0.00    +0.050 A 
ATOM     27  C   UNL     1       6.549  -8.912  -0.687  0.00  0.00    +0.136 A 
ATOM     28  O   UNL     1       6.208  -7.621  -0.850  0.00  0.00    -0.454 OA
BRANCH  27  29
ATOM     29  C   UNL     1       7.927  -9.434  -0.596  0.00  0.00    +0.018 A 
ATOM     30  C   UNL     1       8.150 -10.804  -0.438  0.00  0.00    +0.011 A 
ATOM     31  C   UNL     1       9.440 -11.285  -0.355  0.00  0.00    +0.001 A 
ATOM     32  C   UNL     1      10.513 -10.413  -0.427  0.00  0.00    +0.012 A 
ATOM     33  C   UNL     1      10.300  -9.055  -0.584  0.00  0.00    +0.055 A 
ATOM     34  C   UNL     1       9.015  -8.561  -0.675  0.00  0.00    +0.024 A 
BRANCH  33  35
ATOM     35  C   UNL     1      11.474  -8.114  -0.663  0.00  0.00    +0.417 C 
ATOM     36  F   UNL     1      12.663  -8.843  -0.553  0.00  0.00    -0.166 F 
ATOM     37  F   UNL     1      11.451  -7.440  -1.888  0.00  0.00    -0.166 F 
ATOM     38  F   UNL     1      11.398  -7.186   0.382  0.00  0.00    -0.166 F 
ENDBRANCH  33  35
ENDBRANCH  27  29
ENDBRANCH  23  24
ENDBRANCH  19  22
TORSDOF 4
