REMARK  Name = ZINC09601580
REMARK  6 active torsions:
REMARK  status: ('A' for Active; 'I' for Inactive)
REMARK    1  A    between atoms: C_1  and  C_2
REMARK    2  A    between atoms: C_5  and  C_8
REMARK    3  A    between atoms: C_11  and  C_23
REMARK    4  A    between atoms: C_16  and  N_18
REMARK    5  A    between atoms: N_18  and  S_19
REMARK    6  A    between atoms: S_19  and  C_22
REMARK                            x       y       z     vdW  Elec       q    Type
REMARK                         _______ _______ _______ _____ _____    ______ ____
ROOT
ATOM      1  C   UNL     1       0.059  -4.275  -0.021  0.00  0.00    +0.147 C 
ATOM      2  C   UNL     1       1.311  -4.782   0.706  0.00  0.00    +0.087 C 
ATOM      3  C   UNL     1       1.162  -6.225   1.095  0.00  0.00    +0.055 C 
ATOM      4  N   UNL     1       0.015  -6.747   1.438  0.00  0.00    -0.217 NA
ATOM      5  C   UNL     1      -1.102  -5.973   1.370  0.00  0.00    +0.228 A 
ATOM      6  N   UNL     1      -1.114  -4.789   0.685  0.00  0.00    -0.221 N 
ATOM      7  N   UNL     1      -2.393  -4.260   0.821  0.00  0.00    -0.130 NA
ATOM      8  C   UNL     1      -3.086  -5.122   1.537  0.00  0.00    +0.255 A 
ATOM      9  N   UNL     1      -2.303  -6.160   1.859  0.00  0.00    -0.293 N 
ATOM     10  H   UNL     1      -2.584  -6.933   2.373  0.00  0.00    +0.172 HD
ENDROOT
BRANCH   1  15
ATOM     11  C   UNL     1      -0.018   1.503   0.010  0.00  0.00    +0.044 C 
ATOM     12  C   UNL     1       0.002  -0.004   0.002  0.00  0.00    -0.050 A 
ATOM     13  C   UNL     1       0.006  -0.689  -1.199  0.00  0.00    +0.004 A 
ATOM     14  C   UNL     1       0.025  -2.071  -1.206  0.00  0.00    +0.006 A 
ATOM     15  C   UNL     1       0.040  -2.768  -0.013  0.00  0.00    -0.023 A 
ATOM     16  C   UNL     1       0.037  -2.084   1.188  0.00  0.00    +0.006 A 
ATOM     17  C   UNL     1       0.023  -0.702   1.195  0.00  0.00    +0.004 A 
ENDBRANCH   1  15
BRANCH   3  18
ATOM     18  C   UNL     1       2.356  -7.085   1.091  0.00  0.00    -0.003 A 
ATOM     19  C   UNL     1       3.601  -6.556   0.735  0.00  0.00    +0.011 A 
ATOM     20  C   UNL     1       4.715  -7.368   0.733  0.00  0.00    +0.016 A 
ATOM     21  C   UNL     1       4.604  -8.704   1.082  0.00  0.00    +0.018 A 
ATOM     22  C   UNL     1       3.374  -9.234   1.436  0.00  0.00    +0.016 A 
ATOM     23  C   UNL     1       2.252  -8.433   1.449  0.00  0.00    +0.011 A 
ATOM     24 BR   UNL     1       6.138  -9.809   1.076  0.00  0.00    -0.050 Br
ENDBRANCH   3  18
BRANCH   8  25
ATOM     25  N   UNL     1      -4.424  -4.975   1.905  0.00  0.00    -0.063 NA
BRANCH  25  26
ATOM     26  S   UNL     1      -5.269  -3.631   1.434  0.00  0.00    +0.062 S 
ATOM     27  O   UNL     1      -4.617  -2.547   2.081  0.00  0.00    -0.154 OA
ATOM     28  O   UNL     1      -5.312  -3.708   0.015  0.00  0.00    -0.154 OA
ATOM     29  C   UNL     1      -6.932  -3.861   2.122  0.00  0.00    +0.220 C 
ENDBRANCH  25  26
ENDBRANCH   8  25
TORSDOF 4
