REMARK  Name = ZINC12153002
REMARK  4 active torsions:
REMARK  status: ('A' for Active; 'I' for Inactive)
REMARK    1  A    between atoms: C_13  and  N_58
REMARK    2  A    between atoms: C_14  and  N_58
REMARK    3  A    between atoms: N_25  and  C_28
REMARK    4  A    between atoms: C_28  and  C_29
REMARK                            x       y       z     vdW  Elec       q    Type
REMARK                         _______ _______ _______ _____ _____    ______ ____
ROOT
ATOM      1  C   UNL     1      -0.750   1.592  -1.235  0.00  0.00    -0.065 C 
ATOM      2  C   UNL     1      -0.013   1.086   0.008  0.00  0.00    -0.011 C 
ATOM      3  C   UNL     1      -0.725   1.577   1.268  0.00  0.00    +0.035 C 
ATOM      4  C   UNL     1      -0.895   3.092   1.181  0.00  0.00    -0.023 A 
ATOM      5  C   UNL     1      -0.803   3.726  -0.011  0.00  0.00    -0.006 A 
ATOM      6  S   UNL     1      -1.061   5.444   0.356  0.00  0.00    -0.073 S 
ATOM      7  C   UNL     1      -1.292   5.308   2.100  0.00  0.00    +0.116 A 
ATOM      8  C   UNL     1      -1.160   3.922   2.342  0.00  0.00    +0.076 A 
ATOM      9  C   UNL     1      -1.299   3.482   3.701  0.00  0.00    +0.263 A 
ATOM     10  O   UNL     1      -1.202   2.308   4.016  0.00  0.00    -0.267 OA
ATOM     11  N   UNL     1      -1.544   4.454   4.612  0.00  0.00    -0.294 N 
ATOM     12  C   UNL     1      -1.655   5.764   4.283  0.00  0.00    +0.203 A 
ATOM     13  N   UNL     1      -1.534   6.206   3.050  0.00  0.00    -0.230 NA
ATOM     14  C   UNL     1      -0.539   3.108  -1.349  0.00  0.00    +0.027 C 
ENDROOT
BRANCH   1  15
ATOM     15  N   UNL     1      -0.204   0.924  -2.432  0.00  0.00    +0.388 N 
ATOM     16  H   UNL     1       0.627   1.433  -2.754  0.00  0.00    -0.084 HD
ATOM     17  H   UNL     1       0.056  -0.040  -2.192  0.00  0.00    -0.084 HD
BRANCH  15  30
ATOM     18  C   UNL     1      -3.476  -2.695  -3.673  0.00  0.00    +0.001 A 
ATOM     19  C   UNL     1      -3.632  -1.935  -2.528  0.00  0.00    +0.000 A 
ATOM     20  C   UNL     1      -2.936  -0.748  -2.383  0.00  0.00    +0.003 A 
ATOM     21  C   UNL     1      -2.087  -0.319  -3.379  0.00  0.00    -0.049 A 
ATOM     22  C   UNL     1      -1.921  -1.078  -4.536  0.00  0.00    -0.016 A 
ATOM     23  C   UNL     1      -2.627  -2.275  -4.676  0.00  0.00    +0.009 A 
ATOM     24  C   UNL     1      -0.960  -0.399  -5.440  0.00  0.00    -0.016 A 
ATOM     25  C   UNL     1      -0.472  -0.755  -6.699  0.00  0.00    +0.009 A 
ATOM     26  C   UNL     1       0.432   0.062  -7.344  0.00  0.00    +0.001 A 
ATOM     27  C   UNL     1       0.860   1.235  -6.748  0.00  0.00    +0.000 A 
ATOM     28  C   UNL     1       0.381   1.594  -5.501  0.00  0.00    +0.003 A 
ATOM     29  C   UNL     1      -0.523   0.783  -4.848  0.00  0.00    -0.049 A 
ATOM     30  C   UNL     1      -1.210   0.902  -3.510  0.00  0.00    -0.008 C 
ENDBRANCH  15  30
ENDBRANCH   1  15
BRANCH  11  31
ATOM     31  C   UNL     1      -1.697   4.072   6.018  0.00  0.00    +0.161 C 
BRANCH  31  32
ATOM     32  C   UNL     1      -3.146   3.773   6.302  0.00  0.00    -0.025 A 
ATOM     33  C   UNL     1      -4.006   4.772   6.733  0.00  0.00    +0.025 A 
ATOM     34  C   UNL     1      -5.330   4.462   6.980  0.00  0.00    +0.111 A 
ATOM     35  N   UNL     1      -5.775   3.231   6.820  0.00  0.00    -0.263 NA
ATOM     36  C   UNL     1      -4.985   2.255   6.417  0.00  0.00    +0.111 A 
ATOM     37  C   UNL     1      -3.651   2.491   6.146  0.00  0.00    +0.025 A 
ENDBRANCH  31  32
ENDBRANCH  11  31
TORSDOF 4
