REMARK  Name = ZINC13248080
REMARK  11 active torsions:
REMARK  status: ('A' for Active; 'I' for Inactive)
REMARK    1  A    between atoms: C_3  and  S_11
REMARK    2  A    between atoms: C_6  and  C_7
REMARK    3  A    between atoms: C_7  and  C_8
REMARK    4  A    between atoms: C_8  and  C_9
REMARK    5  A    between atoms: S_11  and  N_14
REMARK    6  A    between atoms: N_14  and  C_15
REMARK    7  A    between atoms: N_14  and  C_26
REMARK    8  A    between atoms: C_15  and  C_16
REMARK    9  A    between atoms: C_19  and  S_22
REMARK   10  A    between atoms: S_22  and  N_25
REMARK   11  A    between atoms: C_26  and  C_27
REMARK                            x       y       z     vdW  Elec       q    Type
REMARK                         _______ _______ _______ _____ _____    ______ ____
ROOT
ATOM      1  N   UNL     1       1.155   4.329   1.596  0.00  0.00    -0.164 NA
ENDROOT
BRANCH   1   2
ATOM      2  S   UNL     1       1.147   3.847   0.011  0.00  0.00    +0.061 S 
ATOM      3  O   UNL     1       2.382   4.273  -0.549  0.00  0.00    -0.153 OA
ATOM      4  O   UNL     1      -0.109   4.239  -0.526  0.00  0.00    -0.153 OA
BRANCH   2   7
ATOM      5  C   UNL     1       0.002  -0.004   0.002  0.00  0.00    +0.005 A 
ATOM      6  C   UNL     1      -0.017   1.378   0.010  0.00  0.00    +0.029 A 
ATOM      7  C   UNL     1       1.171   2.086   0.002  0.00  0.00    +0.106 A 
ATOM      8  C   UNL     1       2.377   1.411  -0.015  0.00  0.00    +0.029 A 
ATOM      9  C   UNL     1       2.396   0.029  -0.021  0.00  0.00    +0.005 A 
ATOM     10  C   UNL     1       1.208  -0.679  -0.013  0.00  0.00    -0.047 A 
BRANCH  10  11
ATOM     11  C   UNL     1       1.229  -2.186  -0.021  0.00  0.00    +0.046 C 
BRANCH  11  12
ATOM     12  C   UNL     1       1.221  -2.689  -1.465  0.00  0.00    +0.130 C 
BRANCH  12  13
ATOM     13  C   UNL     1       1.242  -4.196  -1.473  0.00  0.00    +0.356 C 
ATOM     14  O   UNL     1       1.260  -4.805  -0.429  0.00  0.00    -0.246 OA
ATOM     15  O   UNL     1       1.239  -4.861  -2.638  0.00  0.00    -0.246 OA
ENDBRANCH  12  13
ENDBRANCH  11  12
ENDBRANCH  10  11
ENDBRANCH   2   7
ENDBRANCH   1   2
BRANCH   1  16
ATOM     16  C   UNL     1       2.427   4.559   2.285  0.00  0.00    +0.144 C 
BRANCH  16  17
ATOM     17  C   UNL     1       2.780   6.023   2.213  0.00  0.00    -0.032 A 
ATOM     18  C   UNL     1       3.536   6.500   1.159  0.00  0.00    +0.007 A 
ATOM     19  C   UNL     1       3.856   7.843   1.090  0.00  0.00    +0.029 A 
ATOM     20  C   UNL     1       3.427   8.707   2.081  0.00  0.00    +0.105 A 
ATOM     21  C   UNL     1       2.676   8.229   3.138  0.00  0.00    +0.029 A 
ATOM     22  C   UNL     1       2.352   6.886   3.204  0.00  0.00    +0.007 A 
BRANCH  20  23
ATOM     23  S   UNL     1       3.838  10.418   1.996  0.00  0.00    +0.056 S 
ATOM     24  O   UNL     1       4.085  10.709   0.627  0.00  0.00    -0.153 OA
ATOM     25  O   UNL     1       2.857  11.110   2.757  0.00  0.00    -0.153 OA
BRANCH  23  26
ATOM     26  N   UNL     1       5.279  10.616   2.789  0.00  0.00    -0.204 NA
ATOM     27  H   UNL     1       5.721   9.851   3.188  0.00  0.00    +0.144 HD
ATOM     28  H   UNL     1       5.679  11.497   2.855  0.00  0.00    +0.144 HD
ENDBRANCH  23  26
ENDBRANCH  20  23
ENDBRANCH  16  17
ENDBRANCH   1  16
BRANCH   1  29
ATOM     29  C   UNL     1      -0.110   4.525   2.308  0.00  0.00    +0.223 C 
BRANCH  29  30
ATOM     30  C   UNL     1      -0.464   3.251   3.078  0.00  0.00    +0.404 C 
ATOM     31  F   UNL     1       0.550   2.964   3.998  0.00  0.00    -0.169 F 
ATOM     32  F   UNL     1      -1.672   3.437   3.758  0.00  0.00    -0.169 F 
ATOM     33  F   UNL     1      -0.594   2.185   2.180  0.00  0.00    -0.169 F 
ENDBRANCH  29  30
ENDBRANCH   1  29
TORSDOF 11
