REMARK  Name = ZINC58013700
REMARK  11 active torsions:
REMARK  status: ('A' for Active; 'I' for Inactive)
REMARK    1  A    between atoms: C_1  and  C_2
REMARK    2  A    between atoms: C_4  and  S_28
REMARK    3  A    between atoms: C_6  and  N_9
REMARK    4  A    between atoms: C_7  and  C_8
REMARK    5  A    between atoms: C_10  and  C_12
REMARK    6  A    between atoms: C_12  and  N_13
REMARK    7  A    between atoms: N_13  and  C_14
REMARK    8  A    between atoms: N_13  and  C_21
REMARK    9  A    between atoms: C_14  and  C_15
REMARK   10  A    between atoms: C_21  and  C_22
REMARK   11  A    between atoms: S_28  and  N_31
REMARK                            x       y       z     vdW  Elec       q    Type
REMARK                         _______ _______ _______ _____ _____    ______ ____
ROOT
ATOM      1  N   UNL     1       2.322  -3.840   4.594  0.00  0.00    -0.287 N 
ATOM      2  C   UNL     1       1.885  -5.047   4.186  0.00  0.00    +0.201 C 
ATOM      3  O   UNL     1       2.590  -6.025   4.320  0.00  0.00    -0.278 OA
ATOM      4  H   UNL     1       1.727  -3.074   4.567  0.00  0.00    +0.155 HD
ENDROOT
BRANCH   1  10
ATOM      5  C   UNL     1       5.660  -1.231   7.089  0.00  0.00    +0.044 C 
ATOM      6  C   UNL     1       5.280  -2.435   6.266  0.00  0.00    -0.044 A 
ATOM      7  C   UNL     1       6.231  -3.395   5.966  0.00  0.00    +0.032 A 
ATOM      8  C   UNL     1       5.886  -4.501   5.212  0.00  0.00    +0.107 A 
ATOM      9  C   UNL     1       4.591  -4.652   4.756  0.00  0.00    +0.052 A 
ATOM     10  C   UNL     1       3.635  -3.690   5.055  0.00  0.00    +0.038 A 
ATOM     11  C   UNL     1       3.983  -2.583   5.817  0.00  0.00    -0.026 A 
ATOM     12  C   UNL     1       2.947  -1.540   6.149  0.00  0.00    +0.046 C 
BRANCH   8  13
ATOM     13  S   UNL     1       7.100  -5.720   4.833  0.00  0.00    +0.056 S 
ATOM     14  O   UNL     1       6.601  -6.460   3.727  0.00  0.00    -0.153 OA
ATOM     15  O   UNL     1       8.352  -5.049   4.798  0.00  0.00    -0.153 OA
BRANCH  13  16
ATOM     16  N   UNL     1       7.160  -6.767   6.114  0.00  0.00    -0.204 NA
ATOM     17  H   UNL     1       6.581  -6.630   6.880  0.00  0.00    +0.144 HD
ATOM     18  H   UNL     1       7.774  -7.518   6.099  0.00  0.00    +0.144 HD
ENDBRANCH  13  16
ENDBRANCH   8  13
ENDBRANCH   1  10
BRANCH   2  19
ATOM     19  C   UNL     1       0.519  -5.183   3.563  0.00  0.00    +0.020 C 
BRANCH  19  20
ATOM     20  N   UNL     1       0.224  -6.604   3.336  0.00  0.00    +0.391 N 
ATOM     21  H   UNL     1       0.986  -7.029   2.831  0.00  0.00    -0.080 HD
BRANCH  20  22
ATOM     22  C   UNL     1       0.054  -7.282   4.628  0.00  0.00    -0.042 C 
BRANCH  22  23
ATOM     23  C   UNL     1      -0.127  -8.760   4.400  0.00  0.00    -0.064 A 
ATOM     24  C   UNL     1      -1.395  -9.281   4.216  0.00  0.00    +0.002 A 
ATOM     25  C   UNL     1      -1.561 -10.637   4.006  0.00  0.00    +0.000 A 
ATOM     26  C   UNL     1      -0.460 -11.473   3.981  0.00  0.00    +0.000 A 
ATOM     27  C   UNL     1       0.808 -10.952   4.164  0.00  0.00    +0.000 A 
ATOM     28  C   UNL     1       0.974  -9.595   4.369  0.00  0.00    +0.002 A 
ENDBRANCH  22  23
ENDBRANCH  20  22
BRANCH  20  29
ATOM     29  C   UNL     1      -1.012  -6.728   2.552  0.00  0.00    -0.042 C 
BRANCH  29  30
ATOM     30  C   UNL     1      -0.784  -6.184   1.165  0.00  0.00    -0.064 A 
ATOM     31  C   UNL     1      -1.137  -4.882   0.866  0.00  0.00    +0.002 A 
ATOM     32  C   UNL     1      -0.927  -4.384  -0.407  0.00  0.00    +0.000 A 
ATOM     33  C   UNL     1      -0.364  -5.188  -1.380  0.00  0.00    +0.000 A 
ATOM     34  C   UNL     1      -0.011  -6.490  -1.081  0.00  0.00    +0.000 A 
ATOM     35  C   UNL     1      -0.216  -6.987   0.193  0.00  0.00    +0.002 A 
ENDBRANCH  29  30
ENDBRANCH  20  29
ENDBRANCH  19  20
ENDBRANCH   2  19
TORSDOF 9
