REMARK  Name = ZINC38553586
REMARK  3 active torsions:
REMARK  status: ('A' for Active; 'I' for Inactive)
REMARK    1  A    between atoms: C_1  and  C_2
REMARK    2  A    between atoms: C_4  and  C_14
REMARK    3  A    between atoms: C_25  and  C_28
REMARK                            x       y       z     vdW  Elec       q    Type
REMARK                         _______ _______ _______ _____ _____    ______ ____
ROOT
ATOM      1  C   UNL     1      -2.071   0.040  -0.842  0.00  0.00    +0.260 C 
ATOM      2  O   UNL     1      -2.764  -0.733  -1.468  0.00  0.00    -0.271 OA
ATOM      3  N   UNL     1      -2.214   1.369  -1.017  0.00  0.00    -0.295 N 
ATOM      4  C   UNL     1      -1.310   2.314  -0.346  0.00  0.00    +0.127 C 
ATOM      5  C   UNL     1      -0.672   3.219  -1.407  0.00  0.00    +0.126 C 
ATOM      6  N   UNL     1      -1.735   3.749  -2.273  0.00  0.00    -0.307 N 
ATOM      7  C   UNL     1      -2.639   2.804  -2.944  0.00  0.00    +0.126 C 
ATOM      8  C   UNL     1      -3.273   1.898  -1.888  0.00  0.00    +0.127 C 
ATOM      9  C   UNL     1      -1.881   5.102  -2.452  0.00  0.00    +0.151 C 
ATOM     10  N   UNL     1      -1.297   5.959  -1.640  0.00  0.00    -0.258 N 
ATOM     11  N   UNL     1      -1.384   7.221  -1.727  0.00  0.00    -0.176 NA
ATOM     12  C   UNL     1      -2.259   7.939  -2.341  0.00  0.00    +0.079 C 
ATOM     13  C   UNL     1      -3.426   7.330  -3.084  0.00  0.00    +0.134 C 
ATOM     14  S   UNL     1      -2.853   5.744  -3.786  0.00  0.00    -0.085 S 
ATOM     15  H   UNL     1      -0.759   5.596  -0.919  0.00  0.00    +0.191 HD
ENDROOT
BRANCH   1  18
ATOM     16  C   UNL     1       0.809   0.471  -1.249  0.00  0.00    +0.056 C 
ATOM     17  C   UNL     1       0.257  -0.803  -0.606  0.00  0.00    +0.220 C 
ATOM     18  C   UNL     1      -1.049  -0.485   0.134  0.00  0.00    +0.299 C 
ATOM     19  O   UNL     1      -1.530  -1.692   0.734  0.00  0.00    -0.472 OA
ATOM     20  C   UNL     1      -0.618  -2.445   1.409  0.00  0.00    +0.163 A 
ATOM     21  C   UNL     1      -1.059  -3.409   2.303  0.00  0.00    +0.049 A 
ATOM     22  C   UNL     1      -0.145  -4.184   2.993  0.00  0.00    +0.004 A 
ATOM     23  C   UNL     1       1.210  -4.000   2.793  0.00  0.00    +0.004 A 
ATOM     24  C   UNL     1       1.657  -3.040   1.905  0.00  0.00    +0.049 A 
ATOM     25  C   UNL     1       0.745  -2.258   1.211  0.00  0.00    +0.163 A 
ATOM     26  O   UNL     1       1.200  -1.311   0.345  0.00  0.00    -0.481 OA
ENDBRANCH   1  18
BRANCH  12  27
ATOM     27  C   UNL     1      -2.118   9.404  -2.319  0.00  0.00    -0.001 A 
ATOM     28  C   UNL     1      -3.055  10.210  -2.972  0.00  0.00    +0.011 A 
ATOM     29  C   UNL     1      -2.917  11.582  -2.946  0.00  0.00    +0.020 A 
ATOM     30  C   UNL     1      -1.853  12.162  -2.276  0.00  0.00    +0.041 A 
ATOM     31  C   UNL     1      -0.920  11.369  -1.627  0.00  0.00    +0.020 A 
ATOM     32  C   UNL     1      -1.048   9.997  -1.639  0.00  0.00    +0.011 A 
ATOM     33 CL   UNL     1      -1.686  13.889  -2.250  0.00  0.00    -0.084 Cl
ENDBRANCH  12  27
TORSDOF 2
