REMARK  Name = ZINC04266987
REMARK  10 active torsions:
REMARK  status: ('A' for Active; 'I' for Inactive)
REMARK    1  A    between atoms: C_1  and  C_2
REMARK    2  A    between atoms: C_2  and  C_28
REMARK    3  A    between atoms: C_3  and  C_26
REMARK    4  A    between atoms: C_7  and  C_8
REMARK    5  A    between atoms: C_7  and  C_9
REMARK    6  A    between atoms: C_9  and  C_24
REMARK    7  A    between atoms: N_10  and  N_11
REMARK    8  A    between atoms: N_11  and  C_12
REMARK    9  A    between atoms: C_15  and  N_21
REMARK   10  A    between atoms: C_17  and  N_18
REMARK                            x       y       z     vdW  Elec       q    Type
REMARK                         _______ _______ _______ _____ _____    ______ ____
ROOT
ATOM      1  C   UNL     1      -5.977   6.316   1.442  0.00  0.00    +0.153 C 
ATOM      2  N   UNL     1      -5.801   7.456   0.833  0.00  0.00    -0.179 NA
ENDROOT
BRANCH   1   8
ATOM      3  C   UNL     1      -7.949   5.877   3.046  0.00  0.00    +0.012 C 
ATOM      4  C   UNL     1      -8.072   5.006   1.794  0.00  0.00    -0.011 C 
ATOM      5  C   UNL     1      -7.995   3.514   2.179  0.00  0.00    +0.109 C 
ATOM      6  C   UNL     1      -6.507   3.142   1.962  0.00  0.00    +0.016 C 
ATOM      7  C   UNL     1      -6.138   3.940   0.687  0.00  0.00    +0.014 C 
ATOM      8  C   UNL     1      -6.891   5.277   0.846  0.00  0.00    +0.025 C 
ATOM      9  C   UNL     1      -7.408   5.752  -0.514  0.00  0.00    +0.018 C 
ATOM     10  C   UNL     1      -9.394   5.296   1.081  0.00  0.00    +0.012 C 
BRANCH   5  11
ATOM     11  C   UNL     1      -8.383   3.318   3.622  0.00  0.00    +0.360 C 
ATOM     12  O   UNL     1      -7.538   3.050   4.444  0.00  0.00    -0.246 OA
ATOM     13  O   UNL     1      -9.666   3.442   3.995  0.00  0.00    -0.246 OA
ENDBRANCH   5  11
ENDBRANCH   1   8
BRANCH   1  14
ATOM     14  C   UNL     1      -5.309   6.055   2.666  0.00  0.00    +0.402 C 
ATOM     15  O   UNL     1      -5.423   4.969   3.201  0.00  0.00    -0.239 OA
ATOM     16  O   UNL     1      -4.548   7.012   3.236  0.00  0.00    -0.239 OA
ENDBRANCH   1  14
BRANCH   2  17
ATOM     17  N   UNL     1      -5.810   7.511  -0.567  0.00  0.00    -0.235 N 
ATOM     18  H   UNL     1      -5.892   6.694  -1.084  0.00  0.00    +0.174 HD
BRANCH  17  19
ATOM     19  C   UNL     1      -5.699   8.741  -1.218  0.00  0.00    +0.079 A 
ATOM     20  C   UNL     1      -5.551   9.909  -0.480  0.00  0.00    +0.029 A 
ATOM     21  C   UNL     1      -5.437  11.123  -1.127  0.00  0.00    +0.035 A 
ATOM     22  C   UNL     1      -5.481  11.179  -2.509  0.00  0.00    +0.128 A 
ATOM     23  C   UNL     1      -5.630  10.019  -3.246  0.00  0.00    +0.067 A 
ATOM     24  C   UNL     1      -5.739   8.800  -2.606  0.00  0.00    +0.151 A 
BRANCH  24  25
ATOM     25  N   UNL     1      -5.897   7.559  -3.396  0.00  0.00    +0.058 N 
ATOM     26  O   UNL     1      -6.045   7.621  -4.604  0.00  0.00    -0.126 OA
ATOM     27  O   UNL     1      -5.880   6.476  -2.840  0.00  0.00    -0.126 OA
ENDBRANCH  24  25
BRANCH  22  28
ATOM     28  N   UNL     1      -5.364  12.483  -3.199  0.00  0.00    +0.056 N 
ATOM     29  O   UNL     1      -5.398  12.533  -4.415  0.00  0.00    -0.126 OA
ATOM     30  O   UNL     1      -5.239  13.506  -2.550  0.00  0.00    -0.126 OA
ENDBRANCH  22  28
ENDBRANCH  17  19
ENDBRANCH   2  17
TORSDOF 7
