REMARK  Name = ZINC35427145
REMARK  7 active torsions:
REMARK  status: ('A' for Active; 'I' for Inactive)
REMARK    1  A    between atoms: C_1  and  C_2
REMARK    2  A    between atoms: C_4  and  C_38
REMARK    3  A    between atoms: C_6  and  N_8
REMARK    4  A    between atoms: C_23  and  C_25
REMARK    5  A    between atoms: C_28  and  O_31
REMARK    6  A    between atoms: O_31  and  C_32
REMARK    7  A    between atoms: N_34  and  C_37
REMARK                            x       y       z     vdW  Elec       q    Type
REMARK                         _______ _______ _______ _____ _____    ______ ____
ROOT
ATOM      1  N   UNL     1       0.025  -2.267   2.337  0.00  0.00    -0.269 N 
ATOM      2  C   UNL     1       0.162  -1.780   3.586  0.00  0.00    +0.308 C 
ATOM      3  O   UNL     1       0.229  -0.580   3.766  0.00  0.00    -0.252 OA
ATOM      4  N   UNL     1       0.224  -2.624   4.635  0.00  0.00    -0.268 N 
ATOM      5  C   UNL     1       0.152  -4.085   4.457  0.00  0.00    +0.148 C 
ATOM      6  C   UNL     1      -0.671  -4.766   5.527  0.00  0.00    +0.004 A 
ATOM      7  C   UNL     1      -1.921  -5.360   5.276  0.00  0.00    -0.034 A 
ATOM      8  C   UNL     1      -2.562  -5.958   6.317  0.00  0.00    -0.021 A 
ATOM      9  S   UNL     1      -1.458  -5.722   7.684  0.00  0.00    -0.077 S 
ATOM     10  C   UNL     1      -0.212  -4.825   6.808  0.00  0.00    +0.090 A 
ATOM     11  N   UNL     1       0.979  -4.253   7.236  0.00  0.00    -0.312 N 
ATOM     12  C   UNL     1       1.976  -4.733   8.015  0.00  0.00    +0.092 A 
ATOM     13  C   UNL     1       2.951  -3.798   8.070  0.00  0.00    +0.020 A 
ATOM     14  C   UNL     1       2.522  -2.690   7.307  0.00  0.00    +0.025 A 
ATOM     15  C   UNL     1       1.304  -2.980   6.827  0.00  0.00    +0.049 A 
ATOM     16  C   UNL     1       0.374  -2.127   6.024  0.00  0.00    +0.155 C 
ATOM     17  C   UNL     1      -3.888  -6.642   6.279  0.00  0.00    -0.036 C 
ATOM     18  N   UNL     1      -4.574  -6.254   5.032  0.00  0.00    +0.381 N 
ATOM     19  C   UNL     1      -3.664  -6.444   3.895  0.00  0.00    -0.074 C 
ATOM     20  C   UNL     1      -2.577  -5.364   3.897  0.00  0.00    +0.018 C 
ATOM     21  C   UNL     1      -5.767  -7.090   4.848  0.00  0.00    -0.096 C 
ATOM     22  H   UNL     1      -0.103  -3.219   2.198  0.00  0.00    +0.156 HD
ATOM     23  H   UNL     1      -4.847  -5.284   5.086  0.00  0.00    -0.082 HD
ENDROOT
BRANCH   1  29
ATOM     24  C   UNL     1      -1.472  -1.104  -2.200  0.00  0.00    +0.044 C 
ATOM     25  C   UNL     1      -0.646  -0.812  -0.973  0.00  0.00    -0.048 A 
ATOM     26  C   UNL     1       0.157   0.312  -0.932  0.00  0.00    +0.006 A 
ATOM     27  C   UNL     1       0.916   0.583   0.191  0.00  0.00    -0.048 A 
ATOM     28  C   UNL     1       0.875  -0.270   1.276  0.00  0.00    +0.026 A 
ATOM     29  C   UNL     1       0.069  -1.401   1.239  0.00  0.00    +0.035 A 
ATOM     30  C   UNL     1      -0.697  -1.666   0.111  0.00  0.00    +0.026 A 
ATOM     31  C   UNL     1       1.790   1.810   0.231  0.00  0.00    +0.044 C 
ENDBRANCH   1  29
BRANCH  16  32
ATOM     32  C   UNL     1      -0.977  -2.118   6.691  0.00  0.00    -0.021 A 
ATOM     33  C   UNL     1      -1.066  -2.120   8.071  0.00  0.00    +0.009 A 
ATOM     34  C   UNL     1      -2.303  -2.112   8.684  0.00  0.00    +0.046 A 
ATOM     35  C   UNL     1      -3.458  -2.104   7.915  0.00  0.00    +0.120 A 
ATOM     36  C   UNL     1      -3.366  -2.102   6.531  0.00  0.00    +0.046 A 
ATOM     37  C   UNL     1      -2.126  -2.104   5.922  0.00  0.00    +0.009 A 
BRANCH  35  38
ATOM     38  O   UNL     1      -4.677  -2.097   8.517  0.00  0.00    -0.495 OA
ATOM     39  C   UNL     1      -5.822  -2.088   7.662  0.00  0.00    +0.277 C 
ENDBRANCH  35  38
ENDBRANCH  16  32
TORSDOF 3
