REMARK  Name = ZINC06233408
REMARK  7 active torsions:
REMARK  status: ('A' for Active; 'I' for Inactive)
REMARK    1  A    between atoms: C_1  and  C_2
REMARK    2  A    between atoms: C_7  and  C_8
REMARK    3  A    between atoms: C_13  and  C_29
REMARK    4  A    between atoms: C_16  and  C_20
REMARK    5  A    between atoms: C_17  and  C_18
REMARK    6  A    between atoms: C_17  and  C_19
REMARK    7  A    between atoms: C_25  and  C_28
REMARK                            x       y       z     vdW  Elec       q    Type
REMARK                         _______ _______ _______ _____ _____    ______ ____
ROOT
ATOM      1  C   UNL     1      -6.016   2.055   0.092  0.00  0.00    +0.044 C 
ATOM      2  C   UNL     1      -4.694   1.331   0.066  0.00  0.00    -0.045 A 
ATOM      3  C   UNL     1      -3.537   2.047   0.059  0.00  0.00    +0.033 A 
ATOM      4  C   UNL     1      -2.303   1.376   0.036  0.00  0.00    +0.090 A 
ATOM      5  C   UNL     1      -2.283  -0.042   0.024  0.00  0.00    +0.090 A 
ATOM      6  C   UNL     1      -3.499  -0.747   0.030  0.00  0.00    +0.033 A 
ATOM      7  C   UNL     1      -4.675  -0.063   0.052  0.00  0.00    -0.045 A 
ATOM      8  C   UNL     1      -5.977  -0.823   0.059  0.00  0.00    +0.044 C 
ATOM      9  N   UNL     1      -1.111  -0.689   0.008  0.00  0.00    -0.247 NA
ATOM     10  C   UNL     1       0.002  -0.004   0.002  0.00  0.00    +0.079 A 
ATOM     11  C   UNL     1      -0.017   1.400   0.010  0.00  0.00    +0.071 A 
ATOM     12  N   UNL     1      -1.148   2.055   0.029  0.00  0.00    -0.248 NA
ATOM     13  C   UNL     1       1.439   1.871  -0.002  0.00  0.00    +0.018 C 
ATOM     14  C   UNL     1       1.952   1.505  -1.430  0.00  0.00    +0.015 C 
ATOM     15  C   UNL     1       1.973  -0.042  -1.438  0.00  0.00    +0.024 C 
ATOM     16  C   UNL     1       1.471  -0.436  -0.013  0.00  0.00    +0.097 C 
ATOM     17  C   UNL     1       2.106   0.723   0.841  0.00  0.00    -0.005 C 
ATOM     18  C   UNL     1       1.621   0.709   2.292  0.00  0.00    +0.013 C 
ATOM     19  C   UNL     1       3.633   0.742   0.749  0.00  0.00    +0.013 C 
ATOM     20  C   UNL     1       1.690   3.303   0.476  0.00  0.00    +0.018 C 
ENDROOT
BRANCH  16  21
ATOM     21  C   UNL     1       1.756  -1.843   0.444  0.00  0.00    +0.231 C 
ATOM     22  O   UNL     1       2.464  -2.035   1.410  0.00  0.00    -0.274 OA
ATOM     23  N   UNL     1       1.223  -2.888  -0.220  0.00  0.00    -0.267 N 
ATOM     24  C   UNL     1       1.487  -4.191   0.204  0.00  0.00    +0.168 A 
ATOM     25  C   UNL     1       2.295  -4.583   1.304  0.00  0.00    +0.091 A 
ATOM     26  C   UNL     1       2.227  -5.934   1.293  0.00  0.00    +0.136 A 
ATOM     27  O   UNL     1       1.446  -6.270   0.257  0.00  0.00    -0.358 OA
ATOM     28  N   UNL     1       1.044  -5.296  -0.336  0.00  0.00    -0.063 NA
ATOM     29  C   UNL     1       2.904  -6.877   2.255  0.00  0.00    +0.089 C 
ATOM     30  H   UNL     1       0.656  -2.735  -0.992  0.00  0.00    +0.156 HD
ENDBRANCH  16  21
TORSDOF 1
