REMARK  Name = ZINC17080220
REMARK  8 active torsions:
REMARK  status: ('A' for Active; 'I' for Inactive)
REMARK    1  A    between atoms: C_1  and  C_2
REMARK    2  A    between atoms: C_2  and  C_3
REMARK    3  A    between atoms: C_10  and  N_20
REMARK    4  A    between atoms: C_11  and  C_12
REMARK    5  A    between atoms: N_14  and  C_15
REMARK    6  A    between atoms: C_21  and  C_23
REMARK    7  A    between atoms: C_23  and  C_24
REMARK    8  A    between atoms: C_24  and  C_25
REMARK                            x       y       z     vdW  Elec       q    Type
REMARK                         _______ _______ _______ _____ _____    ______ ____
ROOT
ATOM      1  C   UNL     1      -6.689  -1.371   0.408  0.00  0.00    -0.006 C 
ATOM      2  C   UNL     1      -7.063  -0.139  -0.421  0.00  0.00    +0.008 C 
ATOM      3  C   UNL     1      -6.239   1.066   0.037  0.00  0.00    +0.037 C 
ATOM      4  C   UNL     1      -4.764   0.684   0.029  0.00  0.00    -0.023 A 
ATOM      5  C   UNL     1      -4.382  -0.611   0.021  0.00  0.00    -0.004 A 
ATOM      6  S   UNL     1      -2.612  -0.560   0.012  0.00  0.00    -0.077 S 
ATOM      7  C   UNL     1      -2.382   1.157   0.020  0.00  0.00    +0.084 A 
ATOM      8  C   UNL     1      -3.679   1.650   0.034  0.00  0.00    +0.069 A 
ATOM      9  C   UNL     1      -5.271  -1.816   0.020  0.00  0.00    +0.046 C 
ENDROOT
BRANCH   8  10
ATOM     10  C   UNL     1      -3.944   3.092   0.050  0.00  0.00    +0.247 C 
ATOM     11  O   UNL     1      -4.063   3.701  -0.997  0.00  0.00    -0.270 OA
ATOM     12  N   UNL     1      -4.057   3.743   1.225  0.00  0.00    -0.308 N 
ATOM     13  H   UNL     1      -3.963   3.258   2.060  0.00  0.00    +0.149 HD
BRANCH  12  14
ATOM     14  C   UNL     1      -4.322   5.184   1.241  0.00  0.00    +0.073 C 
ATOM     15  C   UNL     1      -2.994   5.966   1.184  0.00  0.00    +0.022 C 
ATOM     16  C   UNL     1      -3.233   7.188   2.105  0.00  0.00    +0.002 C 
ATOM     17  C   UNL     1      -4.073   6.587   3.259  0.00  0.00    +0.002 C 
ATOM     18  C   UNL     1      -5.008   5.579   2.561  0.00  0.00    +0.022 C 
ENDBRANCH  12  14
ENDBRANCH   8  10
BRANCH   7  19
ATOM     19  N   UNL     1      -1.191   1.867   0.018  0.00  0.00    -0.279 N 
ATOM     20  C   UNL     1      -0.014   1.209   0.009  0.00  0.00    +0.218 C 
ATOM     21  O   UNL     1       0.002  -0.004   0.002  0.00  0.00    -0.275 OA
ATOM     22  H   UNL     1      -1.204   2.836   0.023  0.00  0.00    +0.155 HD
BRANCH  20  23
ATOM     23  C   UNL     1       1.280   1.980   0.001  0.00  0.00    +0.107 C 
BRANCH  23  24
ATOM     24  C   UNL     1       2.457   1.002  -0.016  0.00  0.00    +0.134 C 
BRANCH  24  25
ATOM     25  C   UNL     1       3.751   1.773  -0.024  0.00  0.00    +0.356 C 
ATOM     26  O   UNL     1       3.735   2.981  -0.018  0.00  0.00    -0.246 OA
ATOM     27  O   UNL     1       4.923   1.117  -0.039  0.00  0.00    -0.246 OA
ENDBRANCH  24  25
ENDBRANCH  23  24
ENDBRANCH  20  23
ENDBRANCH   7  19
BRANCH   1  29
ATOM     28  C   UNL     1      -7.379  -3.687   1.041  0.00  0.00    +0.004 C 
ATOM     29  C   UNL     1      -7.679  -2.502   0.121  0.00  0.00    +0.000 C 
ENDBRANCH   1  29
TORSDOF 7
