REMARK  Name = ZINC20898707
REMARK  9 active torsions:
REMARK  status: ('A' for Active; 'I' for Inactive)
REMARK    1  A    between atoms: C_1  and  C_2
REMARK    2  A    between atoms: C_5  and  N_9
REMARK    3  A    between atoms: C_12  and  C_14
REMARK    4  A    between atoms: C_15  and  C_22
REMARK    5  A    between atoms: C_25  and  O_30
REMARK    6  A    between atoms: C_26  and  O_28
REMARK    7  A    between atoms: O_28  and  C_29
REMARK    8  A    between atoms: O_30  and  C_31
REMARK    9  A    between atoms: C_31  and  C_32
REMARK                            x       y       z     vdW  Elec       q    Type
REMARK                         _______ _______ _______ _____ _____    ______ ____
ROOT
ATOM      1  N   UNL     1       7.060   3.486   2.929  0.00  0.00    -0.218 N 
ATOM      2  C   UNL     1       6.944   3.908   1.623  0.00  0.00    +0.133 A 
ATOM      3  C   UNL     1       5.626   3.917   1.326  0.00  0.00    +0.033 A 
ATOM      4  C   UNL     1       4.923   3.493   2.474  0.00  0.00    +0.067 A 
ATOM      5  N   UNL     1       5.779   3.238   3.422  0.00  0.00    -0.170 NA
ATOM      6  C   UNL     1       3.426   3.357   2.585  0.00  0.00    +0.068 C 
ATOM      7  C   UNL     1       4.923   4.287   0.058  0.00  0.00    +0.112 C 
ATOM      8  S   UNL     1       5.852   3.862  -1.418  0.00  0.00    -0.138 S 
ATOM      9  C   UNL     1       7.296   4.932  -1.421  0.00  0.00    +0.166 C 
ATOM     10  C   UNL     1       8.259   4.605  -0.348  0.00  0.00    +0.228 C 
ATOM     11  O   UNL     1       9.426   4.700  -0.664  0.00  0.00    -0.275 OA
ATOM     12  N   UNL     1       8.053   4.232   0.879  0.00  0.00    -0.269 N 
ATOM     13  H   UNL     1       9.052   4.198   1.339  0.00  0.00    +0.156 HD
ENDROOT
BRANCH   1  18
ATOM     14  C   UNL     1      11.914   2.867   5.806  0.00  0.00    +0.045 C 
ATOM     15  C   UNL     1      10.625   3.031   5.042  0.00  0.00    -0.032 A 
ATOM     16  C   UNL     1      10.427   4.151   4.255  0.00  0.00    +0.007 A 
ATOM     17  C   UNL     1       9.247   4.304   3.554  0.00  0.00    +0.028 A 
ATOM     18  C   UNL     1       8.259   3.333   3.639  0.00  0.00    +0.069 A 
ATOM     19  C   UNL     1       8.457   2.212   4.434  0.00  0.00    +0.048 A 
ATOM     20  C   UNL     1       9.642   2.061   5.130  0.00  0.00    +0.046 A 
ATOM     21 CL   UNL     1       9.894   0.657   6.119  0.00  0.00    -0.083 Cl
ENDBRANCH   1  18
BRANCH   7  22
ATOM     22  C   UNL     1       3.595   3.575   0.015  0.00  0.00    -0.026 A 
ATOM     23  C   UNL     1       3.553   2.205  -0.167  0.00  0.00    +0.009 A 
ATOM     24  C   UNL     1       2.338   1.546  -0.201  0.00  0.00    +0.050 A 
ATOM     25  C   UNL     1       1.159   2.261  -0.063  0.00  0.00    +0.163 A 
ATOM     26  C   UNL     1       1.201   3.639   0.121  0.00  0.00    +0.162 A 
ATOM     27  C   UNL     1       2.423   4.293   0.160  0.00  0.00    +0.054 A 
BRANCH  26  28
ATOM     28  O   UNL     1       0.047   4.344   0.263  0.00  0.00    -0.491 OA
ATOM     29  C   UNL     1       0.167   5.756   0.449  0.00  0.00    +0.277 C 
ENDBRANCH  26  28
BRANCH  25  30
ATOM     30  O   UNL     1      -0.038   1.615  -0.102  0.00  0.00    -0.479 OA
BRANCH  30  31
ATOM     31  C   UNL     1      -0.005   0.199  -0.294  0.00  0.00    +0.324 C 
BRANCH  31  32
ATOM     32  C   UNL     1      -1.413  -0.338  -0.309  0.00  0.00    +0.248 C 
ATOM     33  O   UNL     1      -2.352   0.417  -0.170  0.00  0.00    -0.272 OA
ATOM     34  N   UNL     1      -1.628  -1.658  -0.479  0.00  0.00    -0.327 N 
ATOM     35  H   UNL     1      -2.656  -2.050  -0.490  0.00  0.00    +0.145 HD
ATOM     36  H   UNL     1      -0.777  -2.342  -0.605  0.00  0.00    +0.145 HD
ENDBRANCH  31  32
ENDBRANCH  30  31
ENDBRANCH  25  30
ENDBRANCH   7  22
TORSDOF 6
