REMARK  Name = ZINC12384400
REMARK  4 active torsions:
REMARK  status: ('A' for Active; 'I' for Inactive)
REMARK    1  A    between atoms: C_1  and  C_2
REMARK    2  A    between atoms: C_2  and  C_7
REMARK    3  A    between atoms: N_12  and  C_15
REMARK    4  A    between atoms: C_18  and  N_21
REMARK                            x       y       z     vdW  Elec       q    Type
REMARK                         _______ _______ _______ _____ _____    ______ ____
ROOT
ATOM      1  C   UNL     1       3.536   2.234   2.002  0.00  0.00    +0.224 C 
ATOM      2  O   UNL     1       4.414   2.067   2.823  0.00  0.00    -0.275 OA
ATOM      3  N   UNL     1       3.060   1.185   1.303  0.00  0.00    -0.298 N 
ATOM      4  C   UNL     1       1.914   1.340   0.395  0.00  0.00    +0.126 C 
ATOM      5  C   UNL     1       0.877   0.263   0.730  0.00  0.00    +0.124 C 
ATOM      6  N   UNL     1       1.520  -1.058   0.698  0.00  0.00    -0.327 N 
ATOM      7  C   UNL     1       2.567  -1.166   1.723  0.00  0.00    +0.124 C 
ATOM      8  C   UNL     1       3.673  -0.147   1.429  0.00  0.00    +0.126 C 
ENDROOT
BRANCH   1  10
ATOM      9  C   UNL     1       2.940   4.067   0.304  0.00  0.00    +0.023 C 
ATOM     10  C   UNL     1       2.978   3.613   1.765  0.00  0.00    +0.071 C 
ATOM     11  C   UNL     1       3.252   4.679   2.829  0.00  0.00    +0.048 C 
ATOM     12  C   UNL     1       1.849   4.086   2.682  0.00  0.00    +0.096 C 
ATOM     13 BR   UNL     1       0.458   5.230   1.893  0.00  0.00    -0.071 Br
ATOM     14 BR   UNL     1       1.236   2.847   4.080  0.00  0.00    -0.071 Br
ENDBRANCH   1  10
BRANCH   6  15
ATOM     15  C   UNL     1       0.576  -2.077   0.837  0.00  0.00    +0.030 A 
ATOM     16  C   UNL     1      -0.769  -1.765   0.986  0.00  0.00    +0.025 A 
ATOM     17  C   UNL     1      -1.701  -2.776   1.117  0.00  0.00    +0.034 A 
ATOM     18  C   UNL     1      -1.294  -4.098   1.112  0.00  0.00    +0.126 A 
ATOM     19  C   UNL     1       0.045  -4.412   0.969  0.00  0.00    +0.034 A 
ATOM     20  C   UNL     1       0.981  -3.406   0.832  0.00  0.00    +0.025 A 
BRANCH  18  21
ATOM     21  N   UNL     1      -2.295  -5.178   1.259  0.00  0.00    +0.056 N 
ATOM     22  O   UNL     1      -1.938  -6.343   1.255  0.00  0.00    -0.126 OA
ATOM     23  O   UNL     1      -3.475  -4.903   1.385  0.00  0.00    -0.126 OA
ENDBRANCH  18  21
ENDBRANCH   6  15
TORSDOF 3
