REMARK  Name = ZINC34756363
REMARK  6 active torsions:
REMARK  status: ('A' for Active; 'I' for Inactive)
REMARK    1  A    between atoms: C_1  and  C_2
REMARK    2  A    between atoms: C_5  and  N_8
REMARK    3  A    between atoms: C_18  and  N_20
REMARK    4  A    between atoms: N_20  and  C_21
REMARK    5  A    between atoms: N_20  and  C_22
REMARK    6  A    between atoms: C_27  and  C_29
REMARK                            x       y       z     vdW  Elec       q    Type
REMARK                         _______ _______ _______ _____ _____    ______ ____
ROOT
ATOM      1  N   UNL     1       2.459  -4.139  -0.034  0.00  0.00    -0.327 N 
ATOM      2  C   UNL     1       2.591  -4.892   1.221  0.00  0.00    +0.124 C 
ATOM      3  C   UNL     1       1.413  -5.868   1.333  0.00  0.00    +0.127 C 
ATOM      4  N   UNL     1       1.296  -6.610   0.070  0.00  0.00    -0.298 N 
ATOM      5  C   UNL     1       1.165  -5.857  -1.185  0.00  0.00    +0.127 C 
ATOM      6  C   UNL     1       2.337  -4.881  -1.296  0.00  0.00    +0.124 C 
ATOM      7  C   UNL     1       1.311  -7.994   0.062  0.00  0.00    +0.198 A 
ATOM      8  N   UNL     1       1.312  -8.646   1.213  0.00  0.00    -0.331 N 
ATOM      9  C   UNL     1       1.322  -9.977   1.254  0.00  0.00    +0.028 A 
ATOM     10  C   UNL     1       1.326 -10.676   0.072  0.00  0.00    +0.029 A 
ATOM     11  C   UNL     1       1.333  -9.961  -1.132  0.00  0.00    +0.131 A 
ATOM     12  N   UNL     1       1.319  -8.634  -1.098  0.00  0.00    -0.201 NA
ATOM     13  C   UNL     1       1.309 -12.180   0.019  0.00  0.00    +0.148 C 
ATOM     14  N   UNL     1       1.570 -12.721   1.358  0.00  0.00    -0.293 N 
ATOM     15  C   UNL     1       0.865 -12.097   2.489  0.00  0.00    +0.114 C 
ATOM     16  C   UNL     1       1.338 -10.648   2.600  0.00  0.00    +0.072 C 
ATOM     17  C   UNL     1       2.421 -13.750   1.545  0.00  0.00    +0.252 C 
ATOM     18  O   UNL     1       2.990 -14.248   0.593  0.00  0.00    -0.270 OA
ATOM     19  H   UNL     1       1.305  -8.145   2.043  0.00  0.00    +0.168 HD
ENDROOT
BRANCH  17  20
ATOM     20  C   UNL     1       2.661 -14.271   2.904  0.00  0.00    +0.107 A 
ATOM     21  C   UNL     1       1.866 -15.304   3.412  0.00  0.00    +0.138 A 
ATOM     22  C   UNL     1       2.099 -15.786   4.686  0.00  0.00    +0.039 A 
ATOM     23  C   UNL     1       3.114 -15.251   5.458  0.00  0.00    +0.006 A 
ATOM     24  C   UNL     1       3.904 -14.229   4.964  0.00  0.00    +0.039 A 
ATOM     25  C   UNL     1       3.689 -13.739   3.690  0.00  0.00    +0.138 A 
ATOM     26  F   UNL     1       4.466 -12.745   3.207  0.00  0.00    -0.205 F 
ATOM     27  F   UNL     1       0.874 -15.828   2.660  0.00  0.00    -0.205 F 
ENDBRANCH  17  20
BRANCH   1  32
ATOM     28  C   UNL     1       2.397   1.532  -0.002  0.00  0.00    +0.044 C 
ATOM     29  C   UNL     1       2.413   0.025  -0.010  0.00  0.00    -0.050 A 
ATOM     30  C   UNL     1       2.420  -0.658  -1.213  0.00  0.00    +0.005 A 
ATOM     31  C   UNL     1       2.435  -2.039  -1.224  0.00  0.00    +0.023 A 
ATOM     32  C   UNL     1       2.444  -2.742  -0.026  0.00  0.00    +0.030 A 
ATOM     33  C   UNL     1       2.437  -2.053   1.180  0.00  0.00    +0.023 A 
ATOM     34  C   UNL     1       2.428  -0.672   1.184  0.00  0.00    +0.005 A 
ENDBRANCH   1  32
BRANCH  11  35
ATOM     35  N   UNL     1       1.348 -10.631  -2.345  0.00  0.00    -0.321 N 
ATOM     36  C   UNL     1       0.092 -10.900  -3.049  0.00  0.00    +0.130 C 
ATOM     37  C   UNL     1       2.621 -11.071  -2.922  0.00  0.00    +0.130 C 
ENDBRANCH  11  35
TORSDOF 3
