REMARK  Name = ZINC06300279
REMARK  6 active torsions:
REMARK  status: ('A' for Active; 'I' for Inactive)
REMARK    1  A    between atoms: C_1  and  C_2
REMARK    2  A    between atoms: C_4  and  C_8
REMARK    3  A    between atoms: C_5  and  C_7
REMARK    4  A    between atoms: C_15  and  N_29
REMARK    5  A    between atoms: C_16  and  C_27
REMARK    6  A    between atoms: C_17  and  C_19
REMARK                            x       y       z     vdW  Elec       q    Type
REMARK                         _______ _______ _______ _____ _____    ______ ____
ROOT
ATOM      1  C   UNL     1      -1.923  -3.252   0.011  0.00  0.00    +0.101 A 
ATOM      2  C   UNL     1      -3.280  -2.927   0.102  0.00  0.00    +0.054 A 
ATOM      3  C   UNL     1      -3.996  -4.088   0.061  0.00  0.00    +0.223 A 
ATOM      4  N   UNL     1      -3.119  -5.107  -0.050  0.00  0.00    -0.246 N 
ATOM      5  H   UNL     1      -3.343  -6.050  -0.100  0.00  0.00    +0.192 HD
ATOM      6  N   UNL     1      -1.825  -4.564  -0.085  0.00  0.00    -0.171 NA
ATOM      7  O   UNL     1      -5.350  -4.116   0.125  0.00  0.00    -0.423 OA
ATOM      8  C   UNL     1      -6.008  -2.951  -0.045  0.00  0.00    +0.200 C 
ATOM      9  C   UNL     1      -5.410  -1.739  -0.013  0.00  0.00    +0.098 C 
ATOM     10  C   UNL     1      -3.930  -1.573   0.226  0.00  0.00    +0.103 C 
ENDROOT
BRANCH  10  11
ATOM     11  C   UNL     1      -3.696  -1.021   1.608  0.00  0.00    -0.015 A 
ATOM     12  C   UNL     1      -4.042  -1.768   2.719  0.00  0.00    +0.006 A 
ATOM     13  C   UNL     1      -3.827  -1.262   3.987  0.00  0.00    +0.002 A 
ATOM     14  C   UNL     1      -3.266  -0.008   4.146  0.00  0.00    +0.021 A 
ATOM     15  C   UNL     1      -2.920   0.740   3.036  0.00  0.00    +0.060 A 
ATOM     16  C   UNL     1      -3.129   0.231   1.766  0.00  0.00    +0.063 A 
ATOM     17 CL   UNL     1      -2.687   1.166   0.371  0.00  0.00    -0.082 Cl
ATOM     18 CL   UNL     1      -2.216   2.315   3.236  0.00  0.00    -0.082 Cl
ENDBRANCH  10  11
BRANCH   1  22
ATOM     19  C   UNL     1       0.470   0.931  -1.590  0.00  0.00    +0.051 C 
ATOM     20  C   UNL     1       0.248  -0.325  -0.789  0.00  0.00    -0.012 A 
ATOM     21  C   UNL     1      -0.799  -1.179  -0.822  0.00  0.00    +0.021 A 
ATOM     22  C   UNL     1      -0.792  -2.289   0.016  0.00  0.00    +0.013 A 
ATOM     23  C   UNL     1       0.278  -2.474   0.845  0.00  0.00    -0.004 A 
ATOM     24  S   UNL     1       1.304  -1.071   0.442  0.00  0.00    -0.098 S 
ATOM     25  C   UNL     1       0.530  -3.580   1.838  0.00  0.00    +0.052 C 
ENDBRANCH   1  22
BRANCH   8  26
ATOM     26  N   UNL     1      -7.362  -2.998  -0.264  0.00  0.00    -0.328 N 
ATOM     27  H   UNL     1      -7.819  -3.853  -0.292  0.00  0.00    +0.145 HD
ATOM     28  H   UNL     1      -7.862  -2.177  -0.389  0.00  0.00    +0.145 HD
ENDBRANCH   8  26
BRANCH   9  29
ATOM     29  C   UNL     1      -6.212  -0.569  -0.212  0.00  0.00    +0.101 C 
ATOM     30  N   UNL     1      -6.848   0.359  -0.370  0.00  0.00    -0.191 NA
ENDBRANCH   9  29
TORSDOF 4
