REMARK  Name = ZINC08294355
REMARK  6 active torsions:
REMARK  status: ('A' for Active; 'I' for Inactive)
REMARK    1  A    between atoms: C_1  and  C_2
REMARK    2  A    between atoms: C_3  and  C_13
REMARK    3  A    between atoms: C_5  and  C_7
REMARK    4  A    between atoms: N_15  and  N_16
REMARK    5  A    between atoms: C_17  and  C_19
REMARK    6  A    between atoms: C_23  and  C_25
REMARK                            x       y       z     vdW  Elec       q    Type
REMARK                         _______ _______ _______ _____ _____    ______ ____
ROOT
ATOM      1  C   UNL     1       2.263   8.095   0.024  0.00  0.00    +0.269 C 
ATOM      2  O   UNL     1       3.321   7.492   0.011  0.00  0.00    -0.268 OA
ATOM      3  N   UNL     1       1.100   7.415   0.031  0.00  0.00    -0.230 N 
ATOM      4  H   UNL     1       0.257   7.895   0.042  0.00  0.00    +0.173 HD
ENDROOT
BRANCH   1   7
ATOM      5  C   UNL     1       4.745   9.967   0.013  0.00  0.00    +0.067 C 
ATOM      6  C   UNL     1       3.319  10.454   0.027  0.00  0.00    +0.058 A 
ATOM      7  C   UNL     1       2.255   9.561   0.032  0.00  0.00    +0.098 A 
ATOM      8  S   UNL     1       0.874  10.695   0.043  0.00  0.00    -0.062 S 
ATOM      9  C   UNL     1       1.792  12.169   0.049  0.00  0.00    +0.109 A 
ATOM     10  N   UNL     1       3.042  11.730   0.036  0.00  0.00    -0.243 NA
BRANCH   9  11
ATOM     11  C   UNL     1       1.301  13.564   0.061  0.00  0.00    +0.007 A 
ATOM     12  C   UNL     1       2.208  14.625   0.065  0.00  0.00    +0.010 A 
ATOM     13  C   UNL     1       1.743  15.925   0.070  0.00  0.00    +0.001 A 
ATOM     14  C   UNL     1       0.383  16.176   0.083  0.00  0.00    +0.000 A 
ATOM     15  C   UNL     1      -0.521  15.128   0.085  0.00  0.00    +0.001 A 
ATOM     16  C   UNL     1      -0.070  13.825   0.074  0.00  0.00    +0.010 A 
ENDBRANCH   9  11
ENDBRANCH   1   7
BRANCH   3  17
ATOM     17  N   UNL     1       1.107   6.014   0.024  0.00  0.00    -0.230 N 
ATOM     18  C   UNL     1      -0.056   5.333   0.031  0.00  0.00    +0.260 C 
ATOM     19  O   UNL     1      -1.112   5.935   0.044  0.00  0.00    -0.269 OA
ATOM     20  H   UNL     1       1.950   5.533   0.013  0.00  0.00    +0.173 HD
BRANCH  18  21
ATOM     21  C   UNL     1      -0.048   3.855   0.023  0.00  0.00    +0.039 A 
ATOM     22  C   UNL     1       1.165   3.162   0.008  0.00  0.00    +0.013 A 
ATOM     23  C   UNL     1       1.175   1.781   0.000  0.00  0.00    +0.002 A 
ATOM     24  C   UNL     1      -0.013   1.076   0.008  0.00  0.00    +0.019 A 
ATOM     25  C   UNL     1      -1.233   1.756   0.018  0.00  0.00    +0.052 A 
ATOM     26  C   UNL     1      -1.249   3.150   0.030  0.00  0.00    +0.032 A 
BRANCH  25  27
ATOM     27  C   UNL     1      -2.463   1.024   0.019  0.00  0.00    +0.099 C 
ATOM     28  N   UNL     1      -3.439   0.443   0.021  0.00  0.00    -0.191 NA
ENDBRANCH  25  27
ENDBRANCH  18  21
ENDBRANCH   3  17
TORSDOF 5
