REMARK  Name = ZINC20202970
REMARK  9 active torsions:
REMARK  status: ('A' for Active; 'I' for Inactive)
REMARK    1  A    between atoms: C_4  and  O_7
REMARK    2  A    between atoms: O_7  and  C_8
REMARK    3  A    between atoms: C_11  and  N_14
REMARK    4  A    between atoms: C_15  and  C_17
REMARK    5  A    between atoms: N_23  and  C_24
REMARK    6  A    between atoms: C_24  and  C_25
REMARK    7  A    between atoms: C_27  and  C_30
REMARK    8  A    between atoms: C_31  and  C_32
REMARK    9  A    between atoms: C_32  and  O_33
REMARK                            x       y       z     vdW  Elec       q    Type
REMARK                         _______ _______ _______ _____ _____    ______ ____
ROOT
ATOM      1  C   UNL     1       4.387   0.955  -1.389  0.00  0.00    +0.020 C 
ATOM      2  C   UNL     1       4.552   1.100  -2.903  0.00  0.00    -0.006 C 
ATOM      3  C   UNL     1       3.846  -0.066  -3.602  0.00  0.00    -0.003 C 
ATOM      4  C   UNL     1       2.370  -0.077  -3.193  0.00  0.00    -0.019 C 
ATOM      5  C   UNL     1       2.268  -0.188  -1.670  0.00  0.00    -0.077 C 
ATOM      6  N   UNL     1       2.958   0.950  -1.049  0.00  0.00    +0.390 N 
ATOM      7  H   UNL     1       2.514   1.872  -1.452  0.00  0.00    -0.080 HD
ENDROOT
BRANCH   1   9
ATOM      8  N   UNL     1       6.365   2.025  -0.357  0.00  0.00    -0.286 N 
ATOM      9  C   UNL     1       5.063   2.111  -0.698  0.00  0.00    +0.204 C 
ATOM     10  O   UNL     1       4.437   3.119  -0.448  0.00  0.00    -0.277 OA
ATOM     11  H   UNL     1       6.954   1.144  -0.655  0.00  0.00    +0.155 HD
BRANCH   8  15
ATOM     12  C   UNL     1       8.185   5.006   1.836  0.00  0.00    +0.221 A 
ATOM     13  C   UNL     1       7.204   5.367   0.921  0.00  0.00    +0.069 A 
ATOM     14  C   UNL     1       6.586   4.382   0.172  0.00  0.00    +0.030 A 
ATOM     15  C   UNL     1       6.967   3.056   0.375  0.00  0.00    +0.052 A 
ATOM     16  C   UNL     1       7.955   2.772   1.306  0.00  0.00    +0.138 A 
ATOM     17  N   UNL     1       8.527   3.739   1.998  0.00  0.00    -0.219 NA
BRANCH  12  18
ATOM     18  O   UNL     1       8.802   5.966   2.572  0.00  0.00    -0.438 OA
BRANCH  18  22
ATOM     19  C   UNL     1      11.919   4.826   5.021  0.00  0.00    +0.000 A 
ATOM     20  C   UNL     1      12.116   4.930   3.656  0.00  0.00    +0.004 A 
ATOM     21  C   UNL     1      11.074   5.311   2.834  0.00  0.00    +0.046 A 
ATOM     22  C   UNL     1       9.829   5.591   3.379  0.00  0.00    +0.130 A 
ATOM     23  C   UNL     1       9.635   5.491   4.749  0.00  0.00    +0.046 A 
ATOM     24  C   UNL     1      10.680   5.103   5.566  0.00  0.00    +0.004 A 
ENDBRANCH  18  22
ENDBRANCH  12  18
ENDBRANCH   8  15
ENDBRANCH   1   9
BRANCH   6  25
ATOM     25  C   UNL     1       2.764   0.952   0.407  0.00  0.00    -0.035 C 
BRANCH  25  26
ATOM     26  C   UNL     1       1.340   1.334   0.723  0.00  0.00    -0.026 A 
ATOM     27  C   UNL     1       0.260   0.534   0.865  0.00  0.00    +0.026 A 
ATOM     28  C   UNL     1      -0.974   1.111   1.156  0.00  0.00    +0.032 A 
ATOM     29  C   UNL     1      -1.040   2.471   1.298  0.00  0.00    +0.062 A 
ATOM     30  S   UNL     1       0.653   2.956   1.006  0.00  0.00    -0.102 S 
BRANCH  28  31
ATOM     31  C   UNL     1      -2.145   0.300   1.309  0.00  0.00    -0.063 C 
ATOM     32  C   UNL     1      -3.104  -0.364   1.435  0.00  0.00    -0.069 C 
BRANCH  32  33
ATOM     33  C   UNL     1      -4.308  -1.198   1.592  0.00  0.00    +0.244 C 
BRANCH  33  34
ATOM     34  O   UNL     1      -4.109  -2.123   2.663  0.00  0.00    -0.383 OA
ATOM     35  H   UNL     1      -4.906  -2.833   2.930  0.00  0.00    +0.211 HD
ENDBRANCH  33  34
ENDBRANCH  32  33
ENDBRANCH  28  31
ENDBRANCH  25  26
ENDBRANCH   6  25
TORSDOF 9
