REMARK  Name = ZINC67623775
REMARK  12 active torsions:
REMARK  status: ('A' for Active; 'I' for Inactive)
REMARK    1  A    between atoms: C_1  and  C_2
REMARK    2  A    between atoms: C_2  and  C_3
REMARK    3  A    between atoms: C_3  and  C_4
REMARK    4  A    between atoms: C_3  and  C_6
REMARK    5  A    between atoms: C_3  and  N_26
REMARK    6  A    between atoms: C_4  and  C_5
REMARK    7  A    between atoms: C_6  and  N_7
REMARK    8  A    between atoms: C_13  and  C_16
REMARK    9  A    between atoms: C_16  and  C_18
REMARK   10  A    between atoms: C_16  and  O_25
REMARK   11  A    between atoms: N_26  and  C_27
REMARK   12  A    between atoms: N_26  and  C_28
REMARK                            x       y       z     vdW  Elec       q    Type
REMARK                         _______ _______ _______ _____ _____    ______ ____
ROOT
ATOM      1  N   UNL     1      -3.440  -0.134   1.246  0.00  0.00    -0.301 N 
ATOM      2  C   UNL     1      -4.162   0.447   2.225  0.00  0.00    +0.302 C 
ATOM      3  O   UNL     1      -3.648   1.278   2.948  0.00  0.00    -0.253 OA
ATOM      4  N   UNL     1      -5.454   0.107   2.401  0.00  0.00    -0.286 N 
ATOM      5  C   UNL     1      -6.054  -0.984   1.621  0.00  0.00    +0.109 C 
ATOM      6  C   UNL     1      -7.321  -0.461   0.936  0.00  0.00    +0.025 C 
ATOM      7  C   UNL     1      -8.252   0.145   1.988  0.00  0.00    +0.025 C 
ATOM      8  C   UNL     1      -7.553   1.322   2.673  0.00  0.00    +0.025 C 
ATOM      9  C   UNL     1      -6.288   0.815   3.382  0.00  0.00    +0.109 C 
ATOM     10  H   UNL     1      -3.869  -0.738   0.621  0.00  0.00    +0.150 HD
ENDROOT
BRANCH   1  11
ATOM     11  C   UNL     1      -2.007   0.149   1.127  0.00  0.00    +0.094 C 
BRANCH  11  12
ATOM     12  C   UNL     1      -1.401  -0.742   0.041  0.00  0.00    -0.051 C 
BRANCH  12  13
ATOM     13  N   UNL     1       0.001  -0.362  -0.178  0.00  0.00    +0.381 N 
ATOM     14  C   UNL     1       0.774  -0.614   1.046  0.00  0.00    -0.096 C 
ATOM     15  C   UNL     1       0.558  -1.157  -1.281  0.00  0.00    -0.096 C 
ATOM     16  H   UNL     1       0.051   0.619  -0.411  0.00  0.00    -0.082 HD
ENDBRANCH  12  13
BRANCH  12  18
ATOM     17  C   UNL     1      -2.932  -2.640   0.584  0.00  0.00    +0.002 C 
ATOM     18  C   UNL     1      -1.469  -2.205   0.485  0.00  0.00    -0.014 C 
ENDBRANCH  12  18
BRANCH  12  19
ATOM     19  C   UNL     1      -2.186  -0.567  -1.260  0.00  0.00    -0.014 C 
ATOM     20  C   UNL     1      -2.018   0.867  -1.768  0.00  0.00    +0.002 C 
ENDBRANCH  12  19
ENDBRANCH  11  12
ENDBRANCH   1  11
BRANCH   7  21
ATOM     21  C   UNL     1      -9.533   0.637   1.311  0.00  0.00    +0.148 C 
BRANCH  21  22
ATOM     22  C   UNL     1     -10.450   1.235   2.347  0.00  0.00    -0.019 A 
ATOM     23  C   UNL     1     -11.223   0.410   3.144  0.00  0.00    +0.007 A 
ATOM     24  C   UNL     1     -12.064   0.958   4.094  0.00  0.00    +0.020 A 
ATOM     25  C   UNL     1     -12.134   2.331   4.248  0.00  0.00    +0.041 A 
ATOM     26  C   UNL     1     -11.361   3.155   3.450  0.00  0.00    +0.020 A 
ATOM     27  C   UNL     1     -10.515   2.607   2.504  0.00  0.00    +0.007 A 
ATOM     28 CL   UNL     1     -13.191   3.019   5.440  0.00  0.00    -0.084 Cl
ENDBRANCH  21  22
BRANCH  21  29
ATOM     29  O   UNL     1     -10.187  -0.461   0.673  0.00  0.00    -0.387 OA
ATOM     30  H   UNL     1     -10.438  -1.174   1.276  0.00  0.00    +0.210 HD
ENDBRANCH  21  29
ENDBRANCH   7  21
TORSDOF 8
