REMARK  Name = ZINC41642229
REMARK  11 active torsions:
REMARK  status: ('A' for Active; 'I' for Inactive)
REMARK    1  A    between atoms: C_1  and  C_2
REMARK    2  A    between atoms: C_5  and  N_12
REMARK    3  A    between atoms: C_7  and  N_8
REMARK    4  A    between atoms: C_9  and  C_11
REMARK    5  A    between atoms: C_13  and  C_15
REMARK    6  A    between atoms: N_17  and  C_18
REMARK    7  A    between atoms: C_18  and  C_19
REMARK    8  A    between atoms: C_19  and  C_21
REMARK    9  A    between atoms: C_19  and  N_27
REMARK   10  A    between atoms: N_27  and  C_28
REMARK   11  A    between atoms: N_27  and  C_29
REMARK                            x       y       z     vdW  Elec       q    Type
REMARK                         _______ _______ _______ _____ _____    ______ ____
ROOT
ATOM      1  N   UNL     1      -0.116  -5.375   0.226  0.00  0.00    -0.278 N 
ATOM      2  C   UNL     1      -0.286  -5.941  -0.986  0.00  0.00    +0.303 C 
ATOM      3  O   UNL     1      -0.652  -5.265  -1.925  0.00  0.00    -0.265 OA
ATOM      4  H   UNL     1       0.109  -5.927   0.991  0.00  0.00    +0.155 HD
ENDROOT
BRANCH   1   9
ATOM      5  C   UNL     1      -0.733   0.233   0.842  0.00  0.00    +0.045 C 
ATOM      6  C   UNL     1      -0.568  -1.256   0.679  0.00  0.00    -0.029 A 
ATOM      7  C   UNL     1      -1.388  -1.950  -0.190  0.00  0.00    +0.007 A 
ATOM      8  C   UNL     1      -1.240  -3.315  -0.342  0.00  0.00    +0.024 A 
ATOM      9  C   UNL     1      -0.265  -3.994   0.379  0.00  0.00    +0.036 A 
ATOM     10  C   UNL     1       0.560  -3.300   1.252  0.00  0.00    +0.047 A 
ATOM     11  C   UNL     1       0.412  -1.928   1.398  0.00  0.00    +0.038 A 
BRANCH  11  12
ATOM     12  N   UNL     1       1.246  -1.223   2.273  0.00  0.00    -0.285 N 
ATOM     13  C   UNL     1       1.767  -1.840   3.352  0.00  0.00    +0.214 C 
ATOM     14  O   UNL     1       1.581  -3.027   3.520  0.00  0.00    -0.276 OA
ATOM     15  C   UNL     1       2.581  -1.056   4.349  0.00  0.00    +0.109 C 
ATOM     16  H   UNL     1       1.449  -0.289   2.104  0.00  0.00    +0.155 HD
ENDBRANCH  11  12
ENDBRANCH   1   9
BRANCH   2  17
ATOM     17  C   UNL     1      -0.022  -7.399  -1.173  0.00  0.00    +0.299 C 
ATOM     18  O   UNL     1       0.345  -8.074  -0.234  0.00  0.00    -0.265 OA
ATOM     19  N   UNL     1      -0.192  -7.964  -2.385  0.00  0.00    -0.309 N 
ATOM     20  H   UNL     1      -0.485  -7.424  -3.136  0.00  0.00    +0.149 HD
BRANCH  19  21
ATOM     21  C   UNL     1       0.067  -9.394  -2.569  0.00  0.00    +0.089 C 
BRANCH  21  22
ATOM     22  C   UNL     1      -0.008  -9.739  -4.058  0.00  0.00    -0.049 C 
BRANCH  22  23
ATOM     23  C   UNL     1       0.064 -11.257  -4.234  0.00  0.00    -0.023 C 
ATOM     24  C   UNL     1       0.102 -11.596  -5.725  0.00  0.00    +0.002 C 
ATOM     25  C   UNL     1       0.175 -13.114  -5.901  0.00  0.00    +0.000 C 
ATOM     26  C   UNL     1      -1.056 -13.761  -5.263  0.00  0.00    +0.000 C 
ATOM     27  C   UNL     1      -1.094 -13.422  -3.771  0.00  0.00    +0.000 C 
ATOM     28  C   UNL     1      -1.166 -11.904  -3.595  0.00  0.00    +0.002 C 
ENDBRANCH  22  23
BRANCH  22  29
ATOM     29  N   UNL     1       1.116  -9.110  -4.763  0.00  0.00    +0.379 N 
ATOM     30  C   UNL     1       0.984  -7.649  -4.691  0.00  0.00    -0.096 C 
ATOM     31  C   UNL     1       2.379  -9.519  -4.134  0.00  0.00    -0.096 C 
ATOM     32  H   UNL     1       1.112  -9.401  -5.729  0.00  0.00    -0.082 HD
ENDBRANCH  22  29
ENDBRANCH  21  22
ENDBRANCH  19  21
ENDBRANCH   2  17
TORSDOF 7
