REMARK  Name = ZINC58974653
REMARK  9 active torsions:
REMARK  status: ('A' for Active; 'I' for Inactive)
REMARK    1  A    between atoms: C_1  and  N_2
REMARK    2  A    between atoms: N_5  and  N_8
REMARK    3  A    between atoms: C_9  and  C_11
REMARK    4  A    between atoms: C_11  and  C_12
REMARK    5  A    between atoms: C_12  and  C_13
REMARK    6  A    between atoms: C_13  and  S_14
REMARK    7  A    between atoms: S_14  and  C_15
REMARK    8  A    between atoms: C_17  and  C_25
REMARK    9  A    between atoms: C_19  and  C_21
REMARK                            x       y       z     vdW  Elec       q    Type
REMARK                         _______ _______ _______ _____ _____    ______ ____
ROOT
ATOM      1  C   UNL     1       5.930 -10.230   0.021  0.00  0.00    +0.189 A 
ATOM      2  N   UNL     1       7.056 -10.927   0.046  0.00  0.00    -0.222 NA
ATOM      3  C   UNL     1       7.031 -12.257   0.037  0.00  0.00    +0.077 A 
ATOM      4  C   UNL     1       5.795 -12.911  -0.000  0.00  0.00    +0.060 A 
ATOM      5  C   UNL     1       4.644 -12.144  -0.026  0.00  0.00    +0.148 A 
ATOM      6  N   UNL     1       4.745 -10.824  -0.009  0.00  0.00    -0.218 NA
ENDROOT
BRANCH   3   7
ATOM      7  C   UNL     1       8.293 -13.034   0.065  0.00  0.00    +0.019 A 
ATOM      8  C   UNL     1       8.257 -14.428   0.049  0.00  0.00    +0.013 A 
ATOM      9  C   UNL     1       9.434 -15.147   0.075  0.00  0.00    +0.021 A 
ATOM     10  C   UNL     1      10.651 -14.487   0.117  0.00  0.00    +0.042 A 
ATOM     11  C   UNL     1      10.694 -13.104   0.133  0.00  0.00    +0.040 A 
ATOM     12  C   UNL     1       9.521 -12.374   0.102  0.00  0.00    +0.052 A 
ATOM     13 CL   UNL     1       9.576 -10.639   0.114  0.00  0.00    -0.083 Cl
ATOM     14 CL   UNL     1      12.128 -15.398   0.151  0.00  0.00    -0.083 Cl
ENDBRANCH   3   7
BRANCH   5  15
ATOM     15  C   UNL     1       3.290 -12.804  -0.067  0.00  0.00    +0.434 C 
ATOM     16  F   UNL     1       2.836 -13.018   1.239  0.00  0.00    -0.164 F 
ATOM     17  F   UNL     1       2.389 -11.977  -0.745  0.00  0.00    -0.164 F 
ATOM     18  F   UNL     1       3.389 -14.031  -0.732  0.00  0.00    -0.164 F 
ENDBRANCH   5  15
BRANCH   1  19
ATOM     19  S   UNL     1       6.008  -8.470   0.035  0.00  0.00    -0.086 S 
BRANCH  19  20
ATOM     20  C   UNL     1       4.269  -7.954   0.000  0.00  0.00    +0.078 C 
BRANCH  20  21
ATOM     21  C   UNL     1       4.191  -6.426   0.009  0.00  0.00    +0.020 C 
BRANCH  21  22
ATOM     22  C   UNL     1       2.725  -5.990  -0.020  0.00  0.00    +0.098 C 
BRANCH  22  24
ATOM     23  N   UNL     1       1.448  -3.871  -0.034  0.00  0.00    -0.248 N 
ATOM     24  C   UNL     1       2.648  -4.485  -0.011  0.00  0.00    +0.227 C 
ATOM     25  O   UNL     1       3.666  -3.826   0.016  0.00  0.00    -0.275 OA
ATOM     26  H   UNL     1       0.634  -4.398  -0.055  0.00  0.00    +0.169 HD
BRANCH  23  31
ATOM     27  C   UNL     1      -0.018   1.465   0.010  0.00  0.00    -0.096 C 
ATOM     28  N   UNL     1       0.002  -0.004   0.002  0.00  0.00    +0.380 N 
ATOM     29  C   UNL     1       0.688  -0.477  -1.207  0.00  0.00    -0.062 C 
ATOM     30  C   UNL     1       0.693  -2.008  -1.226  0.00  0.00    +0.087 C 
ATOM     31  N   UNL     1       1.378  -2.507  -0.025  0.00  0.00    -0.231 NA
ATOM     32  C   UNL     1       0.717  -2.021   1.194  0.00  0.00    +0.087 C 
ATOM     33  C   UNL     1       0.713  -0.490   1.192  0.00  0.00    -0.062 C 
ATOM     34  H   UNL     1      -0.945  -0.353   0.010  0.00  0.00    -0.082 HD
ENDBRANCH  23  31
ENDBRANCH  22  24
ENDBRANCH  21  22
ENDBRANCH  20  21
ENDBRANCH  19  20
ENDBRANCH   1  19
TORSDOF 8
