REMARK  Name = ZINC63632822
REMARK  12 active torsions:
REMARK  status: ('A' for Active; 'I' for Inactive)
REMARK    1  A    between atoms: C_1  and  C_2
REMARK    2  A    between atoms: C_2  and  C_3
REMARK    3  A    between atoms: C_3  and  S_4
REMARK    4  A    between atoms: S_4  and  N_7
REMARK    5  A    between atoms: N_7  and  C_8
REMARK    6  A    between atoms: C_11  and  N_14
REMARK    7  A    between atoms: N_14  and  C_15
REMARK    8  A    between atoms: C_15  and  C_16
REMARK    9  A    between atoms: C_15  and  C_17
REMARK   10  A    between atoms: N_19  and  C_20
REMARK   11  A    between atoms: C_25  and  O_26
REMARK   12  A    between atoms: O_26  and  C_27
REMARK                            x       y       z     vdW  Elec       q    Type
REMARK                         _______ _______ _______ _____ _____    ______ ____
ROOT
ATOM      1  N   UNL     1      -4.383  -8.182   0.023  0.00  0.00    -0.333 N 
ATOM      2  H   UNL     1      -3.689  -8.858   0.012  0.00  0.00    +0.147 HD
ENDROOT
BRANCH   1   6
ATOM      3  C   UNL     1      -3.357  -4.141   0.070  0.00  0.00    +0.074 A 
ATOM      4  C   UNL     1      -2.362  -5.110   0.056  0.00  0.00    +0.028 A 
ATOM      5  C   UNL     1      -2.702  -6.448   0.040  0.00  0.00    +0.025 A 
ATOM      6  C   UNL     1      -4.039  -6.825   0.039  0.00  0.00    +0.028 A 
ATOM      7  C   UNL     1      -5.033  -5.856   0.054  0.00  0.00    +0.025 A 
ATOM      8  C   UNL     1      -4.693  -4.518   0.075  0.00  0.00    +0.028 A 
BRANCH   3   9
ATOM      9  N   UNL     1      -3.012  -2.784   0.086  0.00  0.00    -0.103 NA
BRANCH   9  10
ATOM     10  S   UNL     1      -1.419  -2.334   0.080  0.00  0.00    +0.062 S 
ATOM     11  O   UNL     1      -0.915  -2.800  -1.165  0.00  0.00    -0.154 OA
ATOM     12  O   UNL     1      -0.897  -2.833   1.304  0.00  0.00    -0.154 OA
BRANCH  10  13
ATOM     13  C   UNL     1      -1.446  -0.521   0.104  0.00  0.00    +0.190 C 
BRANCH  13  15
ATOM     14  C   UNL     1      -0.034   1.540   0.121  0.00  0.00    +0.005 C 
ATOM     15  C   UNL     1      -0.011   0.011   0.101  0.00  0.00    +0.021 C 
ENDBRANCH  13  15
ENDBRANCH  10  13
ENDBRANCH   9  10
ENDBRANCH   3   9
ENDBRANCH   1   6
BRANCH   1  16
ATOM     16  C   UNL     1      -5.793  -8.579   0.022  0.00  0.00    +0.154 C 
ATOM     17  C   UNL     1      -6.323  -8.578  -1.413  0.00  0.00    +0.038 C 
BRANCH  16  18
ATOM     18  C   UNL     1      -5.926  -9.963   0.605  0.00  0.00    +0.237 C 
ATOM     19  O   UNL     1      -4.939 -10.558   0.984  0.00  0.00    -0.273 OA
ATOM     20  N   UNL     1      -7.140 -10.538   0.706  0.00  0.00    -0.281 N 
ATOM     21  H   UNL     1      -7.935 -10.039   0.463  0.00  0.00    +0.155 HD
BRANCH  20  22
ATOM     22  C   UNL     1      -7.254 -11.859   1.160  0.00  0.00    +0.076 A 
ATOM     23  C   UNL     1      -6.383 -12.339   2.127  0.00  0.00    +0.027 A 
ATOM     24  C   UNL     1      -6.497 -13.642   2.575  0.00  0.00    +0.002 A 
ATOM     25  C   UNL     1      -7.478 -14.469   2.060  0.00  0.00    +0.004 A 
ATOM     26  C   UNL     1      -8.350 -13.998   1.096  0.00  0.00    +0.047 A 
ATOM     27  C   UNL     1      -8.245 -12.691   0.646  0.00  0.00    +0.141 A 
BRANCH  27  28
ATOM     28  O   UNL     1      -9.105 -12.225  -0.298  0.00  0.00    -0.493 OA
ATOM     29  C   UNL     1     -10.097 -13.134  -0.779  0.00  0.00    +0.277 C 
ENDBRANCH  27  28
ENDBRANCH  20  22
ENDBRANCH  16  18
ENDBRANCH   1  16
TORSDOF 9
