REMARK  Name = ZINC59890288
REMARK  12 active torsions:
REMARK  status: ('A' for Active; 'I' for Inactive)
REMARK    1  A    between atoms: C_1  and  C_2
REMARK    2  A    between atoms: C_4  and  C_33
REMARK    3  A    between atoms: C_5  and  S_9
REMARK    4  A    between atoms: C_6  and  C_8
REMARK    5  A    between atoms: S_9  and  N_12
REMARK    6  A    between atoms: C_15  and  C_18
REMARK    7  A    between atoms: N_20  and  C_21
REMARK    8  A    between atoms: C_21  and  C_22
REMARK    9  A    between atoms: C_22  and  N_30
REMARK   10  A    between atoms: C_26  and  C_29
REMARK   11  A    between atoms: N_30  and  C_31
REMARK   12  A    between atoms: N_30  and  C_32
REMARK                            x       y       z     vdW  Elec       q    Type
REMARK                         _______ _______ _______ _____ _____    ______ ____
ROOT
ATOM      1  N   UNL     1       0.129  -5.304   0.239  0.00  0.00    -0.177 NA
ATOM      2  C   UNL     1       0.944  -5.749  -0.900  0.00  0.00    +0.110 C 
ATOM      3  C   UNL     1       1.130  -7.267  -0.810  0.00  0.00    +0.030 C 
ATOM      4  C   UNL     1       1.714  -7.625   0.559  0.00  0.00    +0.077 C 
ATOM      5  C   UNL     1       0.743  -7.192   1.659  0.00  0.00    +0.030 C 
ATOM      6  C   UNL     1       0.555  -5.668   1.598  0.00  0.00    +0.110 C 
ENDROOT
BRANCH   4   7
ATOM      7  C   UNL     1       1.930  -9.114   0.638  0.00  0.00    +0.216 C 
ATOM      8  O   UNL     1       1.645  -9.820  -0.307  0.00  0.00    -0.276 OA
ATOM      9  N   UNL     1       2.440  -9.663   1.758  0.00  0.00    -0.316 N 
ATOM     10  H   UNL     1       2.668  -9.099   2.514  0.00  0.00    +0.149 HD
BRANCH   9  11
ATOM     11  C   UNL     1       2.650 -11.111   1.835  0.00  0.00    +0.092 C 
BRANCH  11  12
ATOM     12  C   UNL     1       3.353 -11.455   3.150  0.00  0.00    -0.050 C 
ATOM     13  C   UNL     1       2.475 -11.023   4.326  0.00  0.00    -0.010 C 
ATOM     14  C   UNL     1       3.178 -11.367   5.641  0.00  0.00    -0.001 C 
ATOM     15  C   UNL     1       4.519 -10.633   5.709  0.00  0.00    +0.003 C 
ATOM     16  C   UNL     1       5.397 -11.065   4.533  0.00  0.00    -0.015 C 
ATOM     17  C   UNL     1       4.694 -10.721   3.219  0.00  0.00    -0.007 C 
ATOM     18  C   UNL     1       6.738 -10.331   4.602  0.00  0.00    +0.007 C 
BRANCH  12  19
ATOM     19  N   UNL     1       3.584 -12.904   3.217  0.00  0.00    +0.381 N 
ATOM     20  C   UNL     1       2.301 -13.610   3.103  0.00  0.00    -0.096 C 
ATOM     21  C   UNL     1       4.467 -13.310   2.115  0.00  0.00    -0.096 C 
ATOM     22  H   UNL     1       4.018 -13.135   4.098  0.00  0.00    -0.082 HD
ENDBRANCH  12  19
ENDBRANCH  11  12
ENDBRANCH   9  11
ENDBRANCH   4   7
BRANCH   1  23
ATOM     23  S   UNL     1      -1.240  -4.404  -0.002  0.00  0.00    +0.061 S 
ATOM     24  O   UNL     1      -2.063  -4.603   1.138  0.00  0.00    -0.153 OA
ATOM     25  O   UNL     1      -1.684  -4.688  -1.322  0.00  0.00    -0.153 OA
BRANCH  23  30
ATOM     26  C   UNL     1       0.413   1.399   0.052  0.00  0.00    +0.044 C 
ATOM     27  C   UNL     1      -0.000  -0.051   0.039  0.00  0.00    -0.050 A 
ATOM     28  C   UNL     1      -0.377  -0.673   1.214  0.00  0.00    +0.008 A 
ATOM     29  C   UNL     1      -0.755  -2.002   1.202  0.00  0.00    -0.024 A 
ATOM     30  C   UNL     1      -0.758  -2.709   0.013  0.00  0.00    +0.111 A 
ATOM     31  C   UNL     1      -0.383  -2.086  -1.162  0.00  0.00    -0.024 A 
ATOM     32  C   UNL     1      -0.008  -0.756  -1.150  0.00  0.00    +0.008 A 
ATOM     33  C   UNL     1      -0.385  -2.857  -2.457  0.00  0.00    +0.046 C 
ATOM     34  C   UNL     1      -1.165  -2.682   2.483  0.00  0.00    +0.046 C 
ENDBRANCH  23  30
ENDBRANCH   1  23
TORSDOF 6
