REMARK  Name = ZINC00714322
REMARK  3 active torsions:
REMARK  status: ('A' for Active; 'I' for Inactive)
REMARK    1  A    between atoms: C_12  and  C_20
REMARK    2  A    between atoms: C_14  and  C_18
REMARK    3  A    between atoms: C_15  and  N_17
REMARK                            x       y       z     vdW  Elec       q    Type
REMARK                         _______ _______ _______ _____ _____    ______ ____
ROOT
ATOM      1  C   UNL     1       4.404   4.487  -1.185  0.00  0.00    +0.001 A 
ATOM      2  C   UNL     1       5.581   3.869  -1.583  0.00  0.00    +0.004 A 
ATOM      3  C   UNL     1       5.685   2.494  -1.594  0.00  0.00    +0.047 A 
ATOM      4  C   UNL     1       4.604   1.714  -1.204  0.00  0.00    +0.143 A 
ATOM      5  C   UNL     1       3.412   2.339  -0.801  0.00  0.00    +0.060 A 
ATOM      6  C   UNL     1       3.320   3.732  -0.795  0.00  0.00    +0.015 A 
ATOM      7  C   UNL     1       2.275   1.500  -0.391  0.00  0.00    +0.152 A 
ATOM      8  C   UNL     1       2.428   0.146  -0.421  0.00  0.00    +0.092 A 
ATOM      9  C   UNL     1       3.653  -0.405  -0.838  0.00  0.00    +0.345 A 
ATOM     10  O   UNL     1       3.779  -1.617  -0.862  0.00  0.00    -0.245 OA
ATOM     11  O   UNL     1       4.686   0.366  -1.209  0.00  0.00    -0.422 OA
ATOM     12  C   UNL     1       1.300  -0.762  -0.013  0.00  0.00    +0.108 C 
ATOM     13  C   UNL     1       0.002  -0.004   0.002  0.00  0.00    +0.098 C 
ATOM     14  C   UNL     1      -0.016   1.350   0.009  0.00  0.00    +0.199 C 
ATOM     15  O   UNL     1       1.120   2.070   0.003  0.00  0.00    -0.440 OA
ENDROOT
BRANCH  12  16
ATOM     16  C   UNL     1       1.574  -1.310   1.365  0.00  0.00    +0.002 A 
ATOM     17  C   UNL     1       1.706  -0.449   2.437  0.00  0.00    +0.022 A 
ATOM     18  C   UNL     1       1.952  -0.952   3.702  0.00  0.00    +0.018 A 
ATOM     19  C   UNL     1       2.077  -2.316   3.892  0.00  0.00    +0.018 A 
ATOM     20  C   UNL     1       1.951  -3.178   2.820  0.00  0.00    +0.040 A 
ATOM     21  C   UNL     1       1.699  -2.676   1.554  0.00  0.00    +0.128 A 
ATOM     22  F   UNL     1       1.575  -3.518   0.505  0.00  0.00    -0.205 F 
ATOM     23 BR   UNL     1       2.125   0.227   5.170  0.00  0.00    -0.050 Br
ENDBRANCH  12  16
BRANCH  14  24
ATOM     24  N   UNL     1      -1.223   2.004   0.019  0.00  0.00    -0.328 N 
ATOM     25  H   UNL     1      -2.050   1.496   0.020  0.00  0.00    +0.145 HD
ATOM     26  H   UNL     1      -1.250   2.974   0.024  0.00  0.00    +0.145 HD
ENDBRANCH  14  24
BRANCH  13  27
ATOM     27  C   UNL     1      -1.235  -0.725   0.009  0.00  0.00    +0.101 C 
ATOM     28  N   UNL     1      -2.216  -1.298   0.014  0.00  0.00    -0.191 NA
ENDBRANCH  13  27
TORSDOF 3
