REMARK  Name = ZINC39030332
REMARK  8 active torsions:
REMARK  status: ('A' for Active; 'I' for Inactive)
REMARK    1  A    between atoms: C_1  and  C_2
REMARK    2  A    between atoms: C_2  and  O_3
REMARK    3  A    between atoms: O_3  and  C_4
REMARK    4  A    between atoms: C_4  and  C_6
REMARK    5  A    between atoms: C_8  and  N_18
REMARK    6  A    between atoms: C_11  and  O_16
REMARK    7  A    between atoms: O_16  and  C_17
REMARK    8  A    between atoms: C_19  and  C_21
REMARK                            x       y       z     vdW  Elec       q    Type
REMARK                         _______ _______ _______ _____ _____    ______ ____
ROOT
ATOM      1  C   UNL     1       0.472  -3.793  -4.215  0.00  0.00    +0.234 C 
ATOM      2  C   UNL     1       0.651  -2.381  -3.701  0.00  0.00    +0.053 C 
ATOM      3  C   UNL     1       1.444  -2.489  -2.574  0.00  0.00    +0.021 A 
ATOM      4  C   UNL     1       1.951  -1.526  -1.667  0.00  0.00    +0.057 A 
ATOM      5  C   UNL     1       2.724  -1.926  -0.623  0.00  0.00    +0.121 A 
ATOM      6  C   UNL     1       3.036  -3.277  -0.418  0.00  0.00    +0.047 A 
ATOM      7  C   UNL     1       2.585  -4.249  -1.246  0.00  0.00    +0.029 A 
ATOM      8  C   UNL     1       1.771  -3.909  -2.358  0.00  0.00    +0.045 A 
ATOM      9  N   UNL     1       1.217  -4.657  -3.294  0.00  0.00    -0.367 N 
ATOM     10  H   UNL     1       1.290  -5.622  -3.362  0.00  0.00    +0.161 HD
ENDROOT
BRANCH   2  11
ATOM     11  N   UNL     1       0.136  -1.238  -4.239  0.00  0.00    -0.286 N 
ATOM     12  C   UNL     1      -0.761  -1.310  -5.243  0.00  0.00    +0.223 C 
ATOM     13  O   UNL     1      -1.189  -2.388  -5.597  0.00  0.00    -0.275 OA
ATOM     14  H   UNL     1       0.415  -0.374  -3.900  0.00  0.00    +0.155 HD
BRANCH  12  15
ATOM     15  C   UNL     1      -1.231  -0.051  -5.925  0.00  0.00    +0.049 C 
ATOM     16  C   UNL     1      -0.033   0.667  -6.550  0.00  0.00    +0.019 C 
ATOM     17  C   UNL     1      -0.510   1.945  -7.243  0.00  0.00    -0.008 C 
ATOM     18  C   UNL     1      -1.518   1.587  -8.337  0.00  0.00    +0.007 C 
ATOM     19  C   UNL     1      -2.715   0.868  -7.712  0.00  0.00    -0.008 C 
ATOM     20  C   UNL     1      -2.238  -0.410  -7.019  0.00  0.00    +0.019 C 
ATOM     21  C   UNL     1      -3.382   1.786  -6.685  0.00  0.00    +0.021 C 
ATOM     22  C   UNL     1      -2.374   2.145  -5.591  0.00  0.00    +0.028 C 
ATOM     23  C   UNL     1      -1.177   2.863  -6.216  0.00  0.00    +0.021 C 
ATOM     24  C   UNL     1      -1.897   0.867  -4.899  0.00  0.00    +0.034 C 
ATOM     25 BR   UNL     1      -3.231   3.324  -4.272  0.00  0.00    -0.084 Br
ENDBRANCH  12  15
ENDBRANCH   2  11
BRANCH   1  26
ATOM     26  C   UNL     1       1.035  -3.913  -5.608  0.00  0.00    +0.336 C 
ATOM     27  O   UNL     1       2.177  -4.272  -5.770  0.00  0.00    -0.248 OA
BRANCH  26  28
ATOM     28  O   UNL     1       0.267  -3.620  -6.670  0.00  0.00    -0.463 OA
BRANCH  28  30
ATOM     29  C   UNL     1      -0.156  -3.382  -9.037  0.00  0.00    +0.048 C 
ATOM     30  C   UNL     1       0.865  -3.756  -7.960  0.00  0.00    +0.229 C 
ENDBRANCH  28  30
ENDBRANCH  26  28
ENDBRANCH   1  26
BRANCH   5  31
ATOM     31  O   UNL     1       3.206  -0.994   0.242  0.00  0.00    -0.495 OA
ATOM     32  C   UNL     1       4.013  -1.467   1.322  0.00  0.00    +0.277 C 
ENDBRANCH   5  31
TORSDOF 6
