REMARK  Name = ZINC01689292
REMARK  6 active torsions:
REMARK  status: ('A' for Active; 'I' for Inactive)
REMARK    1  A    between atoms: C_1  and  C_2
REMARK    2  A    between atoms: C_2  and  C_19
REMARK    3  A    between atoms: C_7  and  C_18
REMARK    4  A    between atoms: C_9  and  O_11
REMARK    5  A    between atoms: O_11  and  C_12
REMARK    6  A    between atoms: C_12  and  C_14
REMARK                            x       y       z     vdW  Elec       q    Type
REMARK                         _______ _______ _______ _____ _____    ______ ____
ROOT
ATOM      1  C   UNL     1      -0.230   0.832   0.028  0.00  0.00    +0.015 C 
ATOM      2  C   UNL     1      -0.729   1.579   1.267  0.00  0.00    +0.006 C 
ATOM      3  C   UNL     1      -0.507   3.114   1.102  0.00  0.00    -0.001 C 
ATOM      4  C   UNL     1      -0.834   3.708   2.506  0.00  0.00    +0.005 C 
ATOM      5  C   UNL     1      -2.365   3.548   2.652  0.00  0.00    +0.010 C 
ATOM      6  C   UNL     1      -2.819   2.871   1.322  0.00  0.00    +0.006 C 
ATOM      7  C   UNL     1      -1.803   3.510   0.310  0.00  0.00    +0.014 C 
ATOM      8  C   UNL     1      -2.259   1.416   1.414  0.00  0.00    +0.188 C 
ATOM      9  C   UNL     1      -4.301   3.012   0.972  0.00  0.00    +0.015 C 
ATOM     10  C   UNL     1      -0.015   1.069   2.520  0.00  0.00    +0.015 C 
ENDROOT
BRANCH   8  11
ATOM     11  O   UNL     1      -2.583   0.827   2.701  0.00  0.00    -0.457 OA
BRANCH  11  12
ATOM     12  C   UNL     1      -2.679  -0.511   2.753  0.00  0.00    +0.359 C 
ATOM     13  O   UNL     1      -2.498  -1.168   1.755  0.00  0.00    -0.246 OA
BRANCH  12  14
ATOM     14  C   UNL     1      -3.013  -1.193   4.054  0.00  0.00    +0.288 C 
ATOM     15 CL   UNL     1      -3.068  -2.977   3.801  0.00  0.00    -0.072 Cl
ATOM     16 CL   UNL     1      -1.751  -0.799   5.280  0.00  0.00    -0.072 Cl
ATOM     17 CL   UNL     1      -4.619  -0.618   4.639  0.00  0.00    -0.072 Cl
ENDBRANCH  12  14
ENDBRANCH  11  12
ENDBRANCH   8  11
TORSDOF 3
