REMARK  Name = ZINC12378291
REMARK  6 active torsions:
REMARK  status: ('A' for Active; 'I' for Inactive)
REMARK    1  A    between atoms: C_1  and  C_2
REMARK    2  A    between atoms: C_2  and  C_32
REMARK    3  A    between atoms: C_9  and  C_21
REMARK    4  A    between atoms: C_17  and  C_19
REMARK    5  A    between atoms: C_17  and  C_20
REMARK    6  A    between atoms: N_23  and  C_24
REMARK                            x       y       z     vdW  Elec       q    Type
REMARK                         _______ _______ _______ _____ _____    ______ ____
ROOT
ATOM      1  C   UNL     1      -6.387   1.434   4.039  0.00  0.00    +0.074 C 
ATOM      2  C   UNL     1      -5.339   2.535   3.867  0.00  0.00    +0.166 C 
ATOM      3  O   UNL     1      -4.129   1.972   3.325  0.00  0.00    -0.341 OA
ATOM      4  C   UNL     1      -4.236   2.204   1.909  0.00  0.00    +0.187 C 
ATOM      5  C   UNL     1      -4.890   3.607   1.859  0.00  0.00    +0.191 C 
ATOM      6  O   UNL     1      -5.832   3.531   2.960  0.00  0.00    -0.340 OA
ATOM      7  C   UNL     1      -3.898   4.716   2.198  0.00  0.00    +0.238 C 
ATOM      8  O   UNL     1      -2.634   4.567   1.541  0.00  0.00    -0.333 OA
ATOM      9  C   UNL     1      -2.028   3.332   1.885  0.00  0.00    +0.286 C 
ATOM     10  C   UNL     1      -2.901   2.226   1.231  0.00  0.00    +0.209 C 
ATOM     11  O   UNL     1      -2.060   1.087   1.320  0.00  0.00    -0.338 OA
ATOM     12  C   UNL     1      -0.706   1.595   1.300  0.00  0.00    +0.168 C 
ATOM     13  O   UNL     1      -0.760   3.043   1.289  0.00  0.00    -0.318 OA
ATOM     14  C   UNL     1       0.012   1.096   0.045  0.00  0.00    +0.074 C 
ATOM     15  C   UNL     1       0.042   1.116   2.546  0.00  0.00    +0.074 C 
ATOM     16  C   UNL     1      -5.044   3.180   5.223  0.00  0.00    +0.074 C 
ENDROOT
BRANCH   7  17
ATOM     17  C   UNL     1      -4.497   6.040   1.798  0.00  0.00    +0.249 C 
ATOM     18  O   UNL     1      -3.946   6.729   0.966  0.00  0.00    -0.273 OA
ATOM     19  N   UNL     1      -5.646   6.458   2.365  0.00  0.00    -0.281 N 
ATOM     20  H   UNL     1      -6.129   5.874   2.970  0.00  0.00    +0.155 HD
BRANCH  19  21
ATOM     21  C   UNL     1      -6.143   7.738   2.081  0.00  0.00    +0.069 A 
ATOM     22  C   UNL     1      -5.278   8.743   1.671  0.00  0.00    +0.029 A 
ATOM     23  C   UNL     1      -5.770  10.004   1.390  0.00  0.00    +0.040 A 
ATOM     24  C   UNL     1      -7.123  10.265   1.518  0.00  0.00    +0.126 A 
ATOM     25  C   UNL     1      -7.989   9.265   1.926  0.00  0.00    +0.078 A 
ATOM     26  C   UNL     1      -7.502   8.000   2.204  0.00  0.00    +0.147 A 
ATOM     27  F   UNL     1      -8.347   7.022   2.597  0.00  0.00    -0.203 F 
ATOM     28  F   UNL     1      -7.601  11.499   1.243  0.00  0.00    -0.205 F 
ENDBRANCH  19  21
ENDBRANCH   7  17
TORSDOF 2
