REMARK  Name = ZINC13361362
REMARK  6 active torsions:
REMARK  status: ('A' for Active; 'I' for Inactive)
REMARK    1  A    between atoms: C_1  and  O_2
REMARK    2  A    between atoms: O_2  and  C_3
REMARK    3  A    between atoms: C_8  and  N_9
REMARK    4  A    between atoms: N_12  and  C_13
REMARK    5  A    between atoms: N_22  and  S_23
REMARK    6  A    between atoms: S_23  and  C_26
REMARK                            x       y       z     vdW  Elec       q    Type
REMARK                         _______ _______ _______ _____ _____    ______ ____
ROOT
ATOM      1  C   UNL     1       3.576   7.332  -0.164  0.00  0.00    +0.037 A 
ATOM      2  C   UNL     1       2.354   8.001  -0.147  0.00  0.00    +0.024 A 
ATOM      3  C   UNL     1       2.340   9.383  -0.135  0.00  0.00    +0.019 A 
ATOM      4  C   UNL     1       3.526  10.075  -0.140  0.00  0.00    +0.041 A 
ATOM      5  C   UNL     1       4.785   9.434  -0.158  0.00  0.00    +0.082 A 
ATOM      6  C   UNL     1       4.768   8.020  -0.164  0.00  0.00    +0.052 A 
ATOM      7  N   UNL     1       5.859  10.254  -0.161  0.00  0.00    -0.224 NA
ATOM      8  C   UNL     1       5.748  11.562  -0.149  0.00  0.00    +0.179 A 
ATOM      9  S   UNL     1       3.976  11.793  -0.130  0.00  0.00    -0.051 S 
ATOM     10  N   UNL     1       6.745  12.517  -0.151  0.00  0.00    -0.194 N 
ATOM     11  H   UNL     1       7.676  12.245  -0.162  0.00  0.00    +0.176 HD
ENDROOT
BRANCH   1  15
ATOM     12  N   UNL     1       2.581   3.907  -0.751  0.00  0.00    -0.266 N 
ATOM     13  C   UNL     1       2.626   5.252  -0.827  0.00  0.00    +0.308 C 
ATOM     14  O   UNL     1       1.796   5.852  -1.482  0.00  0.00    -0.252 OA
ATOM     15  N   UNL     1       3.592   5.931  -0.176  0.00  0.00    -0.269 N 
ATOM     16  H   UNL     1       3.193   3.433  -0.166  0.00  0.00    +0.156 HD
ATOM     17  H   UNL     1       4.298   5.450   0.283  0.00  0.00    +0.156 HD
BRANCH  12  23
ATOM     18  C   UNL     1       1.272   1.907  -1.138  0.00  0.00    +0.141 A 
ATOM     19  C   UNL     1       0.352   1.206  -1.900  0.00  0.00    +0.049 A 
ATOM     20  C   UNL     1      -0.185   1.779  -3.037  0.00  0.00    +0.024 A 
ATOM     21  C   UNL     1       0.185   3.058  -3.412  0.00  0.00    +0.043 A 
ATOM     22  C   UNL     1       1.103   3.765  -2.657  0.00  0.00    +0.047 A 
ATOM     23  C   UNL     1       1.650   3.193  -1.518  0.00  0.00    +0.078 A 
ATOM     24 CL   UNL     1      -0.498   3.775  -4.838  0.00  0.00    -0.083 Cl
BRANCH  18  26
ATOM     25  C   UNL     1       1.372   0.021   0.306  0.00  0.00    +0.277 C 
ATOM     26  O   UNL     1       1.806   1.342  -0.022  0.00  0.00    -0.493 OA
ENDBRANCH  18  26
ENDBRANCH  12  23
ENDBRANCH   1  15
BRANCH  10  27
ATOM     27  S   UNL     1       6.352  14.125  -0.133  0.00  0.00    +0.074 S 
ATOM     28  O   UNL     1       7.579  14.842  -0.112  0.00  0.00    -0.150 OA
ATOM     29  O   UNL     1       5.376  14.316  -1.148  0.00  0.00    -0.150 OA
BRANCH  27  30
ATOM     30  C   UNL     1       5.553  14.449   1.403  0.00  0.00    +0.109 A 
ATOM     31  C   UNL     1       4.179  14.329   1.506  0.00  0.00    +0.029 A 
ATOM     32  C   UNL     1       3.552  14.578   2.713  0.00  0.00    +0.002 A 
ATOM     33  C   UNL     1       4.298  14.958   3.813  0.00  0.00    +0.000 A 
ATOM     34  C   UNL     1       5.670  15.084   3.708  0.00  0.00    +0.002 A 
ATOM     35  C   UNL     1       6.298  14.830   2.503  0.00  0.00    +0.029 A 
ENDBRANCH  27  30
ENDBRANCH  10  27
TORSDOF 5
