REMARK  Name = ZINC25195862
REMARK  5 active torsions:
REMARK  status: ('A' for Active; 'I' for Inactive)
REMARK    1  A    between atoms: C_4  and  C_7
REMARK    2  A    between atoms: C_7  and  N_8
REMARK    3  A    between atoms: C_9  and  C_27
REMARK    4  A    between atoms: N_11  and  C_14
REMARK    5  A    between atoms: C_14  and  N_15
REMARK                            x       y       z     vdW  Elec       q    Type
REMARK                         _______ _______ _______ _____ _____    ______ ____
ROOT
ATOM      1  N   UNL     1      -1.078  10.473  -3.859  0.00  0.00    -0.296 N 
ATOM      2  C   UNL     1      -2.063  10.495  -2.888  0.00  0.00    +0.199 A 
ATOM      3  N   UNL     1      -1.550  10.060  -1.768  0.00  0.00    -0.146 NA
ATOM      4  N   UNL     1      -0.204   9.746  -2.002  0.00  0.00    -0.226 N 
ATOM      5  C   UNL     1       0.058  10.016  -3.297  0.00  0.00    +0.180 A 
ATOM      6  S   UNL     1       1.563   9.810  -4.086  0.00  0.00    -0.011 S 
ENDROOT
BRANCH   2   7
ATOM      7  C   UNL     1      -3.454  10.934  -3.084  0.00  0.00    +0.173 A 
ATOM      8  C   UNL     1      -4.345  11.232  -2.098  0.00  0.00    +0.054 A 
ATOM      9  C   UNL     1      -5.545  11.604  -2.734  0.00  0.00    +0.057 A 
ATOM     10  C   UNL     1      -5.331  11.518  -4.064  0.00  0.00    +0.171 A 
ATOM     11  O   UNL     1      -4.066  11.118  -4.271  0.00  0.00    -0.445 OA
ATOM     12 BR   UNL     1      -6.601  11.903  -5.411  0.00  0.00    -0.008 Br
ENDBRANCH   2   7
BRANCH   1  13
ATOM     13  C   UNL     1      -1.241  10.882  -5.256  0.00  0.00    +0.161 C 
BRANCH  13  17
ATOM     14  C   UNL     1      -0.351  15.042  -5.637  0.00  0.00    +0.000 A 
ATOM     15  C   UNL     1       0.653  14.104  -5.786  0.00  0.00    +0.000 A 
ATOM     16  C   UNL     1       0.365  12.758  -5.663  0.00  0.00    +0.005 A 
ATOM     17  C   UNL     1      -0.927  12.350  -5.390  0.00  0.00    -0.028 A 
ATOM     18  C   UNL     1      -1.932  13.287  -5.246  0.00  0.00    +0.005 A 
ATOM     19  C   UNL     1      -1.644  14.634  -5.364  0.00  0.00    +0.000 A 
ENDBRANCH  13  17
ENDBRANCH   1  13
BRANCH   4  20
ATOM     20  C   UNL     1       0.746   9.225  -1.016  0.00  0.00    +0.233 C 
BRANCH  20  21
ATOM     21  N   UNL     1       0.704   7.756  -1.024  0.00  0.00    -0.281 NA
ATOM     22  C   UNL     1       1.462   7.202   0.107  0.00  0.00    +0.105 C 
ATOM     23  C   UNL     1       1.460   5.674   0.018  0.00  0.00    +0.122 C 
ATOM     24  N   UNL     1       0.073   5.187   0.028  0.00  0.00    -0.314 N 
ATOM     25  C   UNL     1      -0.685   5.742  -1.102  0.00  0.00    +0.122 C 
ATOM     26  C   UNL     1      -0.683   7.270  -1.014  0.00  0.00    +0.105 C 
ATOM     27  C   UNL     1       0.033   3.798   0.021  0.00  0.00    +0.099 A 
ATOM     28  C   UNL     1      -1.195   3.144   0.029  0.00  0.00    +0.042 A 
ATOM     29  C   UNL     1      -1.221   1.761   0.017  0.00  0.00    +0.005 A 
ATOM     30  C   UNL     1      -0.013   1.076   0.008  0.00  0.00    +0.018 A 
ATOM     31  C   UNL     1       1.169   1.789   0.001  0.00  0.00    +0.084 A 
ATOM     32  N   UNL     1       1.163   3.109   0.007  0.00  0.00    -0.350 N 
ATOM     33  H   UNL     1       2.129   3.636   0.001  0.00  0.00    +0.166 HD
ENDBRANCH  20  21
ENDBRANCH   4  20
TORSDOF 5
