REMARK  Name = ZINC39961437
REMARK  2 active torsions:
REMARK  status: ('A' for Active; 'I' for Inactive)
REMARK    1  A    between atoms: C_7  and  C_10
REMARK    2  A    between atoms: C_20  and  C_22
REMARK                            x       y       z     vdW  Elec       q    Type
REMARK                         _______ _______ _______ _____ _____    ______ ____
ROOT
ATOM      1  C   UNL     1       0.661  -3.133  -0.021  0.00  0.00    +0.022 C 
ATOM      2  C   UNL     1       1.143  -4.427  -0.138  0.00  0.00    +0.080 C 
ATOM      3  C   UNL     1       2.603  -4.726  -0.151  0.00  0.00    +0.152 C 
ATOM      4  N   UNL     1       3.484  -4.032   0.518  0.00  0.00    -0.283 NA
ATOM      5  N   UNL     1       2.939  -5.834  -0.960  0.00  0.00    -0.152 N 
ATOM      6  C   UNL     1       1.964  -6.770  -1.207  0.00  0.00    +0.181 C 
ATOM      7  N   UNL     1       0.698  -6.703  -0.858  0.00  0.00    -0.152 NA
ATOM      8  C   UNL     1       0.233  -5.596  -0.249  0.00  0.00    +0.273 C 
ATOM      9  O   UNL     1      -0.903  -5.550   0.194  0.00  0.00    -0.268 OA
ATOM     10  S   UNL     1       2.768  -7.965  -2.054  0.00  0.00    -0.037 S 
ATOM     11  C   UNL     1       4.361  -7.173  -2.184  0.00  0.00    +0.106 C 
ATOM     12  N   UNL     1       4.178  -6.066  -1.524  0.00  0.00    -0.169 NA
ATOM     13  H   UNL     1       4.423  -4.270   0.474  0.00  0.00    +0.188 HD
ENDROOT
BRANCH   1  20
ATOM     14  C   UNL     1       0.140   1.335   0.543  0.00  0.00    +0.001 A 
ATOM     15  C   UNL     1       1.217   2.109   0.091  0.00  0.00    +0.002 A 
ATOM     16  C   UNL     1       2.315   1.548  -0.466  0.00  0.00    +0.026 A 
ATOM     17  C   UNL     1       2.380   0.087  -0.602  0.00  0.00    +0.043 A 
ATOM     18  N   UNL     1       3.300  -0.703  -1.092  0.00  0.00    -0.380 N 
ATOM     19  C   UNL     1       2.854  -2.096  -0.981  0.00  0.00    +0.149 C 
ATOM     20  C   UNL     1       1.488  -2.049  -0.333  0.00  0.00    -0.018 C 
ATOM     21  C   UNL     1       1.226  -0.700  -0.114  0.00  0.00    +0.003 A 
ATOM     22  C   UNL     1       0.129  -0.016   0.452  0.00  0.00    +0.010 A 
ATOM     23  H   UNL     1       4.145  -0.413  -1.470  0.00  0.00    +0.160 HD
ENDBRANCH   1  20
BRANCH  11  24
ATOM     24  C   UNL     1       5.605  -7.662  -2.881  0.00  0.00    +0.022 C 
ATOM     25  C   UNL     1       6.722  -6.630  -2.715  0.00  0.00    +0.017 C 
ATOM     26  C   UNL     1       7.984  -7.127  -3.423  0.00  0.00    -0.010 C 
ATOM     27  C   UNL     1       8.424  -8.457  -2.807  0.00  0.00    +0.007 C 
ATOM     28  C   UNL     1       7.307  -9.489  -2.973  0.00  0.00    -0.010 C 
ATOM     29  C   UNL     1       6.044  -8.992  -2.266  0.00  0.00    +0.017 C 
ATOM     30  C   UNL     1       7.013  -9.688  -4.461  0.00  0.00    +0.007 C 
ATOM     31  C   UNL     1       6.573  -8.358  -5.077  0.00  0.00    -0.010 C 
ATOM     32  C   UNL     1       7.690  -7.325  -4.911  0.00  0.00    +0.007 C 
ATOM     33  C   UNL     1       5.311  -7.861  -4.369  0.00  0.00    +0.017 C 
ENDBRANCH  11  24
TORSDOF 2
