REMARK  Name = ZINC17283104
REMARK  6 active torsions:
REMARK  status: ('A' for Active; 'I' for Inactive)
REMARK    1  A    between atoms: C_1  and  C_2
REMARK    2  A    between atoms: N_7  and  S_9
REMARK    3  A    between atoms: S_9  and  C_12
REMARK    4  A    between atoms: C_15  and  N_21
REMARK    5  A    between atoms: C_16  and  N_18
REMARK    6  A    between atoms: C_26  and  N_62
REMARK                            x       y       z     vdW  Elec       q    Type
REMARK                         _______ _______ _______ _____ _____    ______ ____
ROOT
ATOM      1  C   UNL     1      -2.638  -1.367  -2.057  0.00  0.00    +0.108 A 
ATOM      2  C   UNL     1      -1.518  -2.010  -2.553  0.00  0.00    +0.030 A 
ATOM      3  C   UNL     1      -1.322  -3.353  -2.299  0.00  0.00    +0.027 A 
ATOM      4  C   UNL     1      -2.257  -4.061  -1.554  0.00  0.00    +0.060 A 
ATOM      5  C   UNL     1      -3.383  -3.413  -1.063  0.00  0.00    +0.149 A 
ATOM      6  C   UNL     1      -3.570  -2.068  -1.316  0.00  0.00    +0.063 A 
ENDROOT
BRANCH   4   7
ATOM      7  N   UNL     1      -2.066  -5.421  -1.301  0.00  0.00    -0.332 N 
ATOM      8  C   UNL     1      -0.863  -5.640  -0.485  0.00  0.00    +0.086 C 
ATOM      9  C   UNL     1      -0.733  -7.131  -0.164  0.00  0.00    -0.059 C 
ATOM     10  C   UNL     1      -1.864  -7.676  -2.233  0.00  0.00    -0.059 C 
ATOM     11  C   UNL     1      -1.995  -6.185  -2.554  0.00  0.00    +0.086 C 
ATOM     12  N   UNL     1      -0.640  -7.885  -1.431  0.00  0.00    +0.385 N 
ATOM     13  H   UNL     1       0.170  -7.545  -1.963  0.00  0.00    -0.081 HD
BRANCH  12  14
ATOM     14  C   UNL     1      -0.460  -9.325  -1.150  0.00  0.00    -0.046 C 
ATOM     15  C   UNL     1       0.648  -9.497  -0.098  0.00  0.00    +0.009 C 
ATOM     16  C   UNL     1       1.056 -10.998  -0.066  0.00  0.00    +0.164 C 
ATOM     17  S   UNL     1       1.041 -11.390  -1.866  0.00  0.00    -0.033 S 
ATOM     18  O   UNL     1       2.345 -11.192  -2.394  0.00  0.00    -0.174 OA
ATOM     19  O   UNL     1       0.389 -12.638  -2.061  0.00  0.00    -0.174 OA
ATOM     20  C   UNL     1      -0.058 -10.041  -2.462  0.00  0.00    +0.151 C 
ENDBRANCH  12  14
ENDBRANCH   4   7
BRANCH   1  21
ATOM     21  S   UNL     1      -2.880   0.349  -2.378  0.00  0.00    +0.061 S 
ATOM     22  O   UNL     1      -4.277   0.588  -2.273  0.00  0.00    -0.153 OA
ATOM     23  O   UNL     1      -2.142   0.651  -3.554  0.00  0.00    -0.153 OA
BRANCH  21  29
ATOM     24  C   UNL     1       1.422   1.616  -0.003  0.00  0.00    +0.009 C 
ATOM     25  C   UNL     1      -0.013   1.086   0.008  0.00  0.00    +0.002 C 
ATOM     26  C   UNL     1      -0.730   1.580   1.266  0.00  0.00    +0.006 C 
ATOM     27  C   UNL     1      -2.156   1.023   1.294  0.00  0.00    +0.017 C 
ATOM     28  C   UNL     1      -2.923   1.530   0.068  0.00  0.00    +0.109 C 
ATOM     29  N   UNL     1      -2.163   1.185  -1.141  0.00  0.00    -0.176 NA
ATOM     30  C   UNL     1      -0.755   1.594  -1.232  0.00  0.00    +0.112 C 
ENDBRANCH  21  29
ENDBRANCH   1  21
BRANCH   5  31
ATOM     31  N   UNL     1      -4.382  -4.163  -0.269  0.00  0.00    +0.058 N 
ATOM     32  O   UNL     1      -5.370  -3.595   0.161  0.00  0.00    -0.126 OA
ATOM     33  O   UNL     1      -4.217  -5.349  -0.047  0.00  0.00    -0.126 OA
ENDBRANCH   5  31
TORSDOF 5
