REMARK  Name = ZINC62467467
REMARK  3 active torsions:
REMARK  status: ('A' for Active; 'I' for Inactive)
REMARK    1  A    between atoms: C_3  and  C_16
REMARK    2  A    between atoms: C_6  and  C_7
REMARK    3  A    between atoms: C_8  and  C_13
REMARK                            x       y       z     vdW  Elec       q    Type
REMARK                         _______ _______ _______ _____ _____    ______ ____
ROOT
ATOM      1  C   UNL     1      -1.375  -0.646   0.222  0.00  0.00    +0.094 A 
ATOM      2  C   UNL     1      -2.415  -0.309  -0.658  0.00  0.00    +0.129 A 
ATOM      3  S   UNL     1      -3.427  -1.776  -0.547  0.00  0.00    -0.045 S 
ATOM      4  C   UNL     1      -2.482  -2.634   0.549  0.00  0.00    +0.157 A 
ATOM      5  N   UNL     1      -1.465  -1.829   0.790  0.00  0.00    -0.224 NA
ATOM      6  N   UNL     1      -2.713  -3.888   1.069  0.00  0.00    -0.337 N 
ATOM      7  H   UNL     1      -3.504  -4.384   0.805  0.00  0.00    +0.144 HD
ATOM      8  H   UNL     1      -2.086  -4.276   1.699  0.00  0.00    +0.144 HD
ENDROOT
BRANCH   1  14
ATOM      9  C   UNL     1      -0.476   1.628   0.707  0.00  0.00    +0.010 A 
ATOM     10  C   UNL     1       0.583   2.477   0.956  0.00  0.00    +0.013 A 
ATOM     11  C   UNL     1       1.875   1.984   0.987  0.00  0.00    +0.055 A 
ATOM     12  C   UNL     1       2.114   0.639   0.770  0.00  0.00    +0.013 A 
ATOM     13  C   UNL     1       1.063  -0.220   0.521  0.00  0.00    +0.010 A 
ATOM     14  C   UNL     1      -0.242   0.271   0.488  0.00  0.00    +0.002 A 
BRANCH  11  15
ATOM     15  C   UNL     1       3.027   2.917   1.258  0.00  0.00    +0.417 C 
ATOM     16  F   UNL     1       3.265   2.976   2.636  0.00  0.00    -0.166 F 
ATOM     17  F   UNL     1       4.173   2.445   0.608  0.00  0.00    -0.166 F 
ATOM     18  F   UNL     1       2.715   4.195   0.783  0.00  0.00    -0.166 F 
ENDBRANCH  11  15
ENDBRANCH   1  14
BRANCH   2  19
ATOM     19  C   UNL     1      -2.608   0.863  -1.417  0.00  0.00    +0.395 C 
ATOM     20  O   UNL     1      -1.580   1.676  -1.661  0.00  0.00    -0.240 OA
ATOM     21  O   UNL     1      -3.818   1.159  -1.890  0.00  0.00    -0.240 OA
ENDBRANCH   2  19
TORSDOF 3
