REMARK  Name = ZINC38512104
REMARK  6 active torsions:
REMARK  status: ('A' for Active; 'I' for Inactive)
REMARK    1  A    between atoms: C_1  and  N_2
REMARK    2  A    between atoms: C_13  and  N_17
REMARK    3  A    between atoms: C_18  and  C_20
REMARK    4  A    between atoms: C_20  and  C_21
REMARK    5  A    between atoms: C_21  and  S_22
REMARK    6  A    between atoms: S_22  and  C_23
REMARK                            x       y       z     vdW  Elec       q    Type
REMARK                         _______ _______ _______ _____ _____    ______ ____
ROOT
ATOM      1  C   UNL     1      -0.015   1.494   0.063  0.00  0.00    -0.096 C 
ATOM      2  N   UNL     1       0.007   0.025   0.049  0.00  0.00    +0.380 N 
ATOM      3  C   UNL     1      -1.371  -0.483   0.041  0.00  0.00    -0.060 C 
ATOM      4  C   UNL     1      -1.350  -2.010  -0.089  0.00  0.00    +0.088 C 
ATOM      5  N   UNL     1      -0.505  -2.558   0.983  0.00  0.00    -0.313 N 
ATOM      6  C   UNL     1       0.839  -1.989   1.167  0.00  0.00    +0.088 C 
ATOM      7  C   UNL     1       0.714  -0.464   1.239  0.00  0.00    -0.060 C 
ATOM      8  C   UNL     1      -0.962  -3.579   1.794  0.00  0.00    +0.162 A 
ATOM      9  N   UNL     1      -2.118  -4.200   1.764  0.00  0.00    -0.225 NA
ATOM     10  C   UNL     1      -2.432  -5.191   2.628  0.00  0.00    +0.080 A 
ATOM     11  C   UNL     1      -3.632  -5.935   2.703  0.00  0.00    +0.031 A 
ATOM     12  C   UNL     1      -3.795  -6.908   3.639  0.00  0.00    +0.025 A 
ATOM     13  C   UNL     1      -2.792  -7.212   4.557  0.00  0.00    +0.035 A 
ATOM     14  C   UNL     1      -1.598  -6.503   4.514  0.00  0.00    +0.040 A 
ATOM     15  C   UNL     1      -1.432  -5.520   3.571  0.00  0.00    +0.043 A 
ATOM     16  S   UNL     1      -0.125  -4.395   3.146  0.00  0.00    -0.052 S 
ATOM     17  H   UNL     1       0.485  -0.294  -0.780  0.00  0.00    -0.082 HD
ENDROOT
BRANCH  13  18
ATOM     18  N   UNL     1      -2.986  -8.220   5.511  0.00  0.00    -0.285 N 
ATOM     19  C   UNL     1      -1.950  -8.993   5.893  0.00  0.00    +0.218 C 
ATOM     20  O   UNL     1      -0.835  -8.764   5.475  0.00  0.00    -0.275 OA
ATOM     21  H   UNL     1      -3.864  -8.360   5.897  0.00  0.00    +0.155 HD
BRANCH  19  22
ATOM     22  C   UNL     1      -2.179 -10.144   6.840  0.00  0.00    +0.107 C 
BRANCH  22  23
ATOM     23  C   UNL     1      -0.850 -10.854   7.109  0.00  0.00    +0.083 C 
BRANCH  23  24
ATOM     24  S   UNL     1      -1.125 -12.238   8.248  0.00  0.00    -0.125 S 
BRANCH  24  25
ATOM     25  C   UNL     1       0.476 -12.944   8.456  0.00  0.00    +0.008 A 
ATOM     26  C   UNL     1       1.570 -12.393   7.799  0.00  0.00    +0.017 A 
ATOM     27  C   UNL     1       2.824 -12.947   7.964  0.00  0.00    +0.039 A 
ATOM     28  C   UNL     1       2.992 -14.052   8.782  0.00  0.00    +0.123 A 
ATOM     29  C   UNL     1       1.904 -14.602   9.438  0.00  0.00    +0.039 A 
ATOM     30  C   UNL     1       0.648 -14.049   9.281  0.00  0.00    +0.017 A 
ATOM     31  F   UNL     1       4.220 -14.592   8.941  0.00  0.00    -0.205 F 
ENDBRANCH  24  25
ENDBRANCH  23  24
ENDBRANCH  22  23
ENDBRANCH  19  22
ENDBRANCH  13  18
TORSDOF 5
