REMARK  Name = ZINC13447008
REMARK  8 active torsions:
REMARK  status: ('A' for Active; 'I' for Inactive)
REMARK    1  A    between atoms: C_3  and  C_6
REMARK    2  A    between atoms: C_9  and  S_18
REMARK    3  A    between atoms: N_10  and  C_11
REMARK    4  A    between atoms: S_18  and  C_19
REMARK    5  A    between atoms: C_19  and  C_20
REMARK    6  A    between atoms: N_22  and  C_23
REMARK    7  A    between atoms: C_25  and  C_31
REMARK    8  A    between atoms: C_27  and  C_29
REMARK                            x       y       z     vdW  Elec       q    Type
REMARK                         _______ _______ _______ _____ _____    ______ ____
ROOT
ATOM      1  S   UNL     1       1.482  -3.600   0.774  0.00  0.00    -0.076 S 
ENDROOT
BRANCH   1   5
ATOM      2  C   UNL     1      -0.043  -0.018   0.397  0.00  0.00    +0.205 A 
ATOM      3  N   UNL     1      -1.005  -0.794  -0.052  0.00  0.00    -0.125 NA
ATOM      4  N   UNL     1      -0.643  -2.025   0.012  0.00  0.00    -0.122 NA
ATOM      5  C   UNL     1       0.572  -2.116   0.504  0.00  0.00    +0.197 A 
ATOM      6  N   UNL     1       1.002  -0.842   0.763  0.00  0.00    -0.268 N 
BRANCH   6   7
ATOM      7  C   UNL     1       2.241  -0.455   1.292  0.00  0.00    +0.051 A 
ATOM      8  C   UNL     1       3.125   0.288   0.521  0.00  0.00    +0.029 A 
ATOM      9  C   UNL     1       4.344   0.671   1.045  0.00  0.00    +0.040 A 
ATOM     10  C   UNL     1       4.689   0.306   2.336  0.00  0.00    +0.124 A 
ATOM     11  C   UNL     1       3.811  -0.440   3.104  0.00  0.00    +0.040 A 
ATOM     12  C   UNL     1       2.589  -0.821   2.585  0.00  0.00    +0.029 A 
ATOM     13  F   UNL     1       5.884   0.678   2.845  0.00  0.00    -0.205 F 
ENDBRANCH   6   7
BRANCH   2  16
ATOM     14  C   UNL     1      -0.748   3.568   0.531  0.00  0.00    +0.042 A 
ATOM     15  C   UNL     1      -1.181   2.236   0.387  0.00  0.00    +0.053 A 
ATOM     16  C   UNL     1      -0.072   1.450   0.485  0.00  0.00    +0.172 A 
ATOM     17  O   UNL     1       0.995   2.253   0.672  0.00  0.00    -0.460 OA
ATOM     18  C   UNL     1       0.589   3.533   0.700  0.00  0.00    +0.196 A 
ENDBRANCH   2  16
ENDBRANCH   1   5
BRANCH   1  19
ATOM     19  C   UNL     1       0.276  -4.818   0.195  0.00  0.00    +0.173 C 
BRANCH  19  20
ATOM     20  C   UNL     1       0.853  -6.203   0.336  0.00  0.00    +0.227 C 
ATOM     21  O   UNL     1       1.970  -6.352   0.783  0.00  0.00    -0.275 OA
ATOM     22  N   UNL     1       0.128  -7.277  -0.037  0.00  0.00    -0.285 N 
ATOM     23  H   UNL     1      -0.792  -7.165  -0.323  0.00  0.00    +0.155 HD
BRANCH  22  24
ATOM     24  C   UNL     1       0.702  -8.553  -0.010  0.00  0.00    +0.035 A 
ATOM     25  C   UNL     1       2.051  -8.711  -0.295  0.00  0.00    +0.038 A 
ATOM     26  C   UNL     1       2.628  -9.982  -0.264  0.00  0.00    +0.066 A 
ATOM     27  C   UNL     1       1.846 -11.094   0.043  0.00  0.00    +0.030 A 
ATOM     28  C   UNL     1       0.491 -10.932   0.323  0.00  0.00    +0.066 A 
ATOM     29  C   UNL     1      -0.079  -9.657   0.295  0.00  0.00    +0.038 A 
BRANCH  28  30
ATOM     30  C   UNL     1      -0.343 -12.108   0.649  0.00  0.00    +0.387 C 
ATOM     31  O   UNL     1      -1.524 -11.966   0.893  0.00  0.00    -0.241 OA
ATOM     32  O   UNL     1       0.208 -13.337   0.676  0.00  0.00    -0.241 OA
ENDBRANCH  28  30
BRANCH  26  33
ATOM     33  C   UNL     1       4.066 -10.148  -0.562  0.00  0.00    +0.387 C 
ATOM     34  O   UNL     1       4.747  -9.178  -0.829  0.00  0.00    -0.241 OA
ATOM     35  O   UNL     1       4.622 -11.375  -0.537  0.00  0.00    -0.241 OA
ENDBRANCH  26  33
ENDBRANCH  22  24
ENDBRANCH  19  20
ENDBRANCH   1  19
TORSDOF 8
