REMARK  Name = ZINC46721241
REMARK  6 active torsions:
REMARK  status: ('A' for Active; 'I' for Inactive)
REMARK    1  A    between atoms: C_1  and  C_2
REMARK    2  A    between atoms: C_2  and  C_4
REMARK    3  A    between atoms: C_2  and  N_15
REMARK    4  A    between atoms: N_6  and  C_7
REMARK    5  A    between atoms: N_23  and  C_24
REMARK    6  A    between atoms: N_23  and  C_25
REMARK                            x       y       z     vdW  Elec       q    Type
REMARK                         _______ _______ _______ _____ _____    ______ ____
ROOT
ATOM      1  C   UNL     1      -0.052   1.915   1.073  0.00  0.00    -0.004 C 
ATOM      2  C   UNL     1       0.103   0.437   1.438  0.00  0.00    +0.017 C 
ENDROOT
BRANCH   2   3
ATOM      3  N   UNL     1      -1.161  -0.266   1.179  0.00  0.00    +0.389 N 
ATOM      4  C   UNL     1      -2.259   0.444   1.847  0.00  0.00    -0.058 C 
ATOM      5  C   UNL     1      -3.591  -0.221   1.484  0.00  0.00    +0.091 C 
ATOM      6  N   UNL     1      -3.503  -1.651   1.815  0.00  0.00    -0.289 N 
ATOM      7  C   UNL     1      -2.342  -2.407   1.320  0.00  0.00    +0.091 C 
ATOM      8  C   UNL     1      -1.069  -1.639   1.690  0.00  0.00    -0.058 C 
ATOM      9  C   UNL     1      -4.459  -2.253   2.550  0.00  0.00    +0.304 C 
ATOM     10  O   UNL     1      -5.253  -1.582   3.181  0.00  0.00    -0.252 OA
ATOM     11  N   UNL     1      -4.535  -3.598   2.587  0.00  0.00    -0.292 N 
ATOM     12  C   UNL     1      -5.459  -4.255   3.515  0.00  0.00    +0.133 C 
ATOM     13  C   UNL     1      -3.693  -4.404   1.699  0.00  0.00    +0.133 C 
ATOM     14  H   UNL     1      -1.334  -0.289   0.185  0.00  0.00    -0.081 HD
ENDBRANCH   2   3
BRANCH   2  15
ATOM     15  C   UNL     1       1.198  -0.174   0.602  0.00  0.00    +0.203 C 
ATOM     16  O   UNL     1       0.954  -1.119  -0.119  0.00  0.00    -0.277 OA
ATOM     17  N   UNL     1       2.447   0.328   0.656  0.00  0.00    -0.286 N 
ATOM     18  H   UNL     1       2.662   1.026   1.294  0.00  0.00    +0.155 HD
BRANCH  17  19
ATOM     19  C   UNL     1       3.435  -0.157  -0.210  0.00  0.00    +0.047 A 
ATOM     20  C   UNL     1       3.075  -0.745  -1.415  0.00  0.00    +0.025 A 
ATOM     21  C   UNL     1       4.052  -1.223  -2.267  0.00  0.00    +0.017 A 
ATOM     22  C   UNL     1       5.387  -1.116  -1.921  0.00  0.00    +0.019 A 
ATOM     23  C   UNL     1       5.749  -0.532  -0.721  0.00  0.00    +0.032 A 
ATOM     24  C   UNL     1       4.776  -0.046   0.133  0.00  0.00    +0.040 A 
ATOM     25 BR   UNL     1       5.271   0.761   1.770  0.00  0.00    -0.048 Br
ATOM     26 BR   UNL     1       6.721  -1.772  -3.091  0.00  0.00    -0.050 Br
ENDBRANCH  17  19
ENDBRANCH   2  15
TORSDOF 3
