REMARK  Name = ZINC57984622
REMARK  11 active torsions:
REMARK  status: ('A' for Active; 'I' for Inactive)
REMARK    1  A    between atoms: C_1  and  C_2
REMARK    2  A    between atoms: C_2  and  C_3
REMARK    3  A    between atoms: C_3  and  C_5
REMARK    4  A    between atoms: C_3  and  N_12
REMARK    5  A    between atoms: N_12  and  C_13
REMARK    6  A    between atoms: N_12  and  C_21
REMARK    7  A    between atoms: C_13  and  C_14
REMARK    8  A    between atoms: C_21  and  C_22
REMARK    9  A    between atoms: N_24  and  C_25
REMARK   10  A    between atoms: C_28  and  S_31
REMARK   11  A    between atoms: S_31  and  N_34
REMARK                            x       y       z     vdW  Elec       q    Type
REMARK                         _______ _______ _______ _____ _____    ______ ____
ROOT
ATOM      1  N   UNL     1       2.195   0.189  -0.630  0.00  0.00    +0.393 N 
ATOM      2  H   UNL     1       2.830  -0.101   0.098  0.00  0.00    -0.080 HD
ENDROOT
BRANCH   1   3
ATOM      3  C   UNL     1       1.171  -0.845  -0.827  0.00  0.00    -0.037 C 
BRANCH   3   4
ATOM      4  C   UNL     1       0.318  -0.487  -2.017  0.00  0.00    -0.061 A 
ATOM      5  C   UNL     1       0.869  -0.475  -3.284  0.00  0.00    +0.005 A 
ATOM      6  C   UNL     1       0.088  -0.148  -4.376  0.00  0.00    +0.038 A 
ATOM      7  C   UNL     1      -1.248   0.170  -4.199  0.00  0.00    +0.123 A 
ATOM      8  C   UNL     1      -1.800   0.158  -2.929  0.00  0.00    +0.038 A 
ATOM      9  C   UNL     1      -1.018  -0.175  -1.840  0.00  0.00    +0.005 A 
ATOM     10  F   UNL     1      -2.013   0.491  -5.266  0.00  0.00    -0.205 F 
ENDBRANCH   3   4
BRANCH   3  12
ATOM     11  C   UNL     1       2.728  -2.550   0.127  0.00  0.00    +0.002 C 
ATOM     12  C   UNL     1       1.849  -2.194  -1.074  0.00  0.00    -0.014 C 
ENDBRANCH   3  12
ENDBRANCH   1   3
BRANCH   1  13
ATOM     13  C   UNL     1       1.549   1.451  -0.243  0.00  0.00    -0.041 C 
BRANCH  13  14
ATOM     14  C   UNL     1       0.929   1.299   1.122  0.00  0.00    -0.061 A 
ATOM     15  C   UNL     1      -0.413   0.990   1.241  0.00  0.00    +0.002 A 
ATOM     16  C   UNL     1      -0.983   0.851   2.492  0.00  0.00    +0.003 A 
ATOM     17  C   UNL     1      -0.212   1.021   3.627  0.00  0.00    +0.038 A 
ATOM     18  C   UNL     1       1.132   1.331   3.509  0.00  0.00    +0.124 A 
ATOM     19  C   UNL     1       1.704   1.464   2.255  0.00  0.00    +0.040 A 
ATOM     20  F   UNL     1       1.887   1.497   4.617  0.00  0.00    -0.205 F 
ENDBRANCH  13  14
ENDBRANCH   1  13
BRANCH   1  21
ATOM     21  C   UNL     1       2.941   0.385  -1.881  0.00  0.00    +0.020 C 
BRANCH  21  22
ATOM     22  C   UNL     1       4.091   1.328  -1.638  0.00  0.00    +0.201 C 
ATOM     23  O   UNL     1       4.272   1.792  -0.531  0.00  0.00    -0.278 OA
ATOM     24  N   UNL     1       4.919   1.656  -2.649  0.00  0.00    -0.287 N 
ATOM     25  H   UNL     1       4.735   1.340  -3.548  0.00  0.00    +0.155 HD
BRANCH  24  26
ATOM     26  C   UNL     1       6.043   2.452  -2.403  0.00  0.00    +0.033 A 
ATOM     27  C   UNL     1       6.710   2.358  -1.189  0.00  0.00    +0.025 A 
ATOM     28  C   UNL     1       7.819   3.146  -0.949  0.00  0.00    +0.030 A 
ATOM     29  C   UNL     1       8.265   4.027  -1.917  0.00  0.00    +0.105 A 
ATOM     30  C   UNL     1       7.603   4.123  -3.127  0.00  0.00    +0.030 A 
ATOM     31  C   UNL     1       6.497   3.334  -3.376  0.00  0.00    +0.025 A 
BRANCH  29  32
ATOM     32  S   UNL     1       9.681   5.030  -1.608  0.00  0.00    +0.056 S 
ATOM     33  O   UNL     1       9.571   6.162  -2.459  0.00  0.00    -0.153 OA
ATOM     34  O   UNL     1       9.795   5.147  -0.196  0.00  0.00    -0.153 OA
BRANCH  32  35
ATOM     35  N   UNL     1      11.005   4.178  -2.120  0.00  0.00    -0.204 NA
ATOM     36  H   UNL     1      10.895   3.295  -2.506  0.00  0.00    +0.144 HD
ATOM     37  H   UNL     1      11.892   4.563  -2.035  0.00  0.00    +0.144 HD
ENDBRANCH  32  35
ENDBRANCH  29  32
ENDBRANCH  24  26
ENDBRANCH  21  22
ENDBRANCH   1  21
TORSDOF 10
