REMARK  Name = ZINC06512713
REMARK  2 active torsions:
REMARK  status: ('A' for Active; 'I' for Inactive)
REMARK    1  A    between atoms: C_6  and  C_7
REMARK    2  A    between atoms: C_17  and  C_19
REMARK                            x       y       z     vdW  Elec       q    Type
REMARK                         _______ _______ _______ _____ _____    ______ ____
ROOT
ATOM      1  C   UNL     1       1.355  -0.371   0.002  0.00  0.00    +0.212 C 
ATOM      2  N   UNL     1      -0.033   0.114   0.009  0.00  0.00    -0.302 N 
ATOM      3  C   UNL     1       0.006   1.457  -0.016  0.00  0.00    +0.153 C 
ATOM      4  S   UNL     1      -1.384   2.457  -0.025  0.00  0.00    -0.017 S 
ATOM      5  N   UNL     1       1.264   1.919  -0.037  0.00  0.00    -0.203 N 
ATOM      6  N   UNL     1       2.174   0.852  -0.028  0.00  0.00    -0.203 N 
ATOM      7  C   UNL     1       3.432   1.315  -0.050  0.00  0.00    +0.153 C 
ATOM      8  S   UNL     1       4.821   0.315  -0.046  0.00  0.00    -0.017 S 
ATOM      9  N   UNL     1       3.471   2.658  -0.074  0.00  0.00    -0.302 N 
ATOM     10  C   UNL     1       2.083   3.143  -0.067  0.00  0.00    +0.212 C 
ATOM     11  H   UNL     1      -0.867  -0.604   0.030  0.00  0.00    +0.150 HD
ATOM     12  H   UNL     1       4.304   3.376  -0.095  0.00  0.00    +0.150 HD
ENDROOT
BRANCH   1  18
ATOM     13  C   UNL     1       1.962  -2.506   1.159  0.00  0.00    +0.008 A 
ATOM     14  C   UNL     1       2.229  -3.232   2.304  0.00  0.00    +0.020 A 
ATOM     15  C   UNL     1       2.165  -2.620   3.543  0.00  0.00    +0.041 A 
ATOM     16  C   UNL     1       1.838  -1.278   3.635  0.00  0.00    +0.020 A 
ATOM     17  C   UNL     1       1.576  -0.551   2.489  0.00  0.00    +0.008 A 
ATOM     18  C   UNL     1       1.641  -1.164   1.251  0.00  0.00    -0.008 A 
ATOM     19 CL   UNL     1       2.494  -3.533   4.982  0.00  0.00    -0.084 Cl
ENDBRANCH   1  18
BRANCH  10  20
ATOM     20  C   UNL     1       1.823   3.979   1.159  0.00  0.00    -0.008 A 
ATOM     21  C   UNL     1       1.321   5.261   1.028  0.00  0.00    +0.008 A 
ATOM     22  C   UNL     1       1.078   6.026   2.153  0.00  0.00    +0.020 A 
ATOM     23  C   UNL     1       1.347   5.514   3.409  0.00  0.00    +0.041 A 
ATOM     24  C   UNL     1       1.855   4.234   3.540  0.00  0.00    +0.020 A 
ATOM     25  C   UNL     1       2.092   3.467   2.414  0.00  0.00    +0.008 A 
ATOM     26 CL   UNL     1       1.049   6.478   4.822  0.00  0.00    -0.084 Cl
ENDBRANCH  10  20
TORSDOF 2
