REMARK  Name = ZINC20832525
REMARK  7 active torsions:
REMARK  status: ('A' for Active; 'I' for Inactive)
REMARK    1  A    between atoms: C_6  and  C_7
REMARK    2  A    between atoms: C_10  and  C_12
REMARK    3  A    between atoms: C_12  and  S_13
REMARK    4  A    between atoms: S_13  and  C_14
REMARK    5  A    between atoms: N_19  and  N_20
REMARK    6  A    between atoms: C_21  and  C_22
REMARK    7  A    between atoms: C_24  and  N_29
REMARK                            x       y       z     vdW  Elec       q    Type
REMARK                         _______ _______ _______ _____ _____    ______ ____
ROOT
ATOM      1  C   UNL     1      -1.114   1.772   0.016  0.00  0.00    +0.211 A 
ATOM      2  N   UNL     1      -0.011   0.966   0.007  0.00  0.00    -0.186 NA
ATOM      3  C   UNL     1       1.075   1.806   0.002  0.00  0.00    +0.232 A 
ATOM      4  N   UNL     1       0.606   3.067   0.012  0.00  0.00    -0.245 N 
ATOM      5  N   UNL     1      -0.680   3.048   0.024  0.00  0.00    -0.144 NA
ATOM      6  N   UNL     1       2.361   1.439  -0.012  0.00  0.00    -0.205 N 
ATOM      7  H   UNL     1       2.628   0.372  -0.019  0.00  0.00    +0.177 HD
ATOM      8  H   UNL     1       1.306   3.915   0.010  0.00  0.00    +0.192 HD
ENDROOT
BRANCH   6   9
ATOM      9  N   UNL     1       3.288   2.337  -0.016  0.00  0.00    -0.187 NA
ATOM     10  C   UNL     1       4.555   1.975  -0.029  0.00  0.00    +0.142 C 
BRANCH  10  11
ATOM     11  C   UNL     1       5.573   2.960  -0.033  0.00  0.00    +0.043 A 
ATOM     12  C   UNL     1       6.926   2.581  -0.047  0.00  0.00    +0.046 A 
ATOM     13  C   UNL     1       7.901   3.536  -0.052  0.00  0.00    +0.127 A 
ATOM     14  C   UNL     1       7.569   4.885  -0.043  0.00  0.00    +0.036 A 
ATOM     15  C   UNL     1       6.246   5.282  -0.030  0.00  0.00    +0.054 A 
ATOM     16  C   UNL     1       5.236   4.332  -0.030  0.00  0.00    +0.188 A 
ATOM     17  O   UNL     1       3.937   4.716  -0.022  0.00  0.00    -0.287 OA
BRANCH  13  18
ATOM     18  N   UNL     1       9.325   3.131  -0.067  0.00  0.00    +0.056 N 
ATOM     19  O   UNL     1       9.646   1.854  -0.076  0.00  0.00    -0.126 OA
ATOM     20  O   UNL     1      10.270   4.048  -0.072  0.00  0.00    -0.126 OA
ENDBRANCH  13  18
ENDBRANCH  10  11
ENDBRANCH   6   9
BRANCH   1  21
ATOM     21  S   UNL     1      -2.747   1.257   0.021  0.00  0.00    -0.075 S 
BRANCH  21  22
ATOM     22  C   UNL     1      -3.583   2.862   0.033  0.00  0.00    +0.175 C 
BRANCH  22  26
ATOM     23  C   UNL     1      -7.120   2.366  -0.582  0.00  0.00    +0.248 A 
ATOM     24  N   UNL     1      -7.055   2.368   0.729  0.00  0.00    -0.107 NA
ATOM     25  N   UNL     1      -5.833   2.538   1.093  0.00  0.00    -0.111 NA
ATOM     26  C   UNL     1      -5.075   2.651   0.038  0.00  0.00    +0.228 A 
ATOM     27  O   UNL     1      -5.867   2.550  -1.044  0.00  0.00    -0.419 OA
BRANCH  23  33
ATOM     28  C   UNL     1      -8.258   2.222  -2.792  0.00  0.00    +0.016 A 
ATOM     29  C   UNL     1      -9.399   2.059  -3.550  0.00  0.00    +0.039 A 
ATOM     30  C   UNL     1     -10.626   1.883  -2.931  0.00  0.00    +0.123 A 
ATOM     31  C   UNL     1     -10.713   1.863  -1.548  0.00  0.00    +0.039 A 
ATOM     32  C   UNL     1      -9.578   2.019  -0.781  0.00  0.00    +0.016 A 
ATOM     33  C   UNL     1      -8.340   2.197  -1.399  0.00  0.00    +0.039 A 
ATOM     34  F   UNL     1     -11.741   1.729  -3.678  0.00  0.00    -0.205 F 
ENDBRANCH  23  33
ENDBRANCH  22  26
ENDBRANCH  21  22
ENDBRANCH   1  21
TORSDOF 7
