REMARK  Name = ZINC64800794
REMARK  7 active torsions:
REMARK  status: ('A' for Active; 'I' for Inactive)
REMARK    1  A    between atoms: C_1  and  C_2
REMARK    2  A    between atoms: C_2  and  N_3
REMARK    3  A    between atoms: C_6  and  C_26
REMARK    4  A    between atoms: C_8  and  N_10
REMARK    5  A    between atoms: N_10  and  C_11
REMARK    6  A    between atoms: C_14  and  N_17
REMARK    7  A    between atoms: C_18  and  C_20
REMARK                            x       y       z     vdW  Elec       q    Type
REMARK                         _______ _______ _______ _____ _____    ______ ____
ROOT
ATOM      1  C   UNL     1      -4.642  -5.455  -0.117  0.00  0.00    +0.032 A 
ATOM      2  C   UNL     1      -3.787  -6.383   0.464  0.00  0.00    +0.025 A 
ATOM      3  C   UNL     1      -4.059  -7.732   0.360  0.00  0.00    +0.025 A 
ATOM      4  C   UNL     1      -5.189  -8.162  -0.324  0.00  0.00    +0.034 A 
ATOM      5  C   UNL     1      -6.044  -7.235  -0.905  0.00  0.00    +0.025 A 
ATOM      6  C   UNL     1      -5.774  -5.885  -0.797  0.00  0.00    +0.025 A 
ENDROOT
BRANCH   4   7
ATOM      7  N   UNL     1      -5.465  -9.531  -0.429  0.00  0.00    -0.279 N 
ATOM      8  C   UNL     1      -5.166 -10.359   0.592  0.00  0.00    +0.284 C 
ATOM      9  O   UNL     1      -4.587  -9.931   1.573  0.00  0.00    -0.266 OA
ATOM     10  H   UNL     1      -5.870  -9.883  -1.237  0.00  0.00    +0.155 HD
BRANCH   8  11
ATOM     11  C   UNL     1      -5.540 -11.774   0.520  0.00  0.00    +0.191 A 
ATOM     12  C   UNL     1      -5.304 -12.716   1.481  0.00  0.00    +0.056 A 
ATOM     13  C   UNL     1      -5.826 -13.925   0.998  0.00  0.00    +0.058 A 
ATOM     14  C   UNL     1      -6.352 -13.673  -0.223  0.00  0.00    +0.171 A 
ATOM     15  O   UNL     1      -6.182 -12.374  -0.504  0.00  0.00    -0.444 OA
ATOM     16 BR   UNL     1      -7.193 -14.942  -1.344  0.00  0.00    -0.008 Br
ENDBRANCH   8  11
ENDBRANCH   4   7
BRANCH   1  17
ATOM     17  N   UNL     1      -4.366  -4.087  -0.012  0.00  0.00    -0.299 N 
ATOM     18  H   UNL     1      -5.093  -3.451   0.075  0.00  0.00    +0.154 HD
BRANCH  17  24
ATOM     19  N   UNL     1       0.233  -5.015  -0.117  0.00  0.00    -0.315 N 
ATOM     20  C   UNL     1      -0.792  -4.085  -0.083  0.00  0.00    +0.195 A 
ATOM     21  N   UNL     1      -0.494  -2.795  -0.071  0.00  0.00    -0.332 N 
ATOM     22  C   UNL     1      -1.448  -1.875  -0.038  0.00  0.00    +0.019 A 
ATOM     23  C   UNL     1      -2.770  -2.274  -0.018  0.00  0.00    +0.064 A 
ATOM     24  C   UNL     1      -3.054  -3.641  -0.032  0.00  0.00    +0.128 A 
ATOM     25  N   UNL     1      -2.047  -4.509  -0.069  0.00  0.00    -0.201 NA
ATOM     26  C   UNL     1      -1.093  -0.411  -0.024  0.00  0.00    +0.063 C 
ATOM     27  H   UNL     1       0.028  -5.963  -0.130  0.00  0.00    +0.149 HD
ATOM     28  H   UNL     1       0.436  -2.518  -0.085  0.00  0.00    +0.168 HD
BRANCH  19  30
ATOM     29  C   UNL     1       2.554  -5.784  -0.170  0.00  0.00    +0.024 C 
ATOM     30  C   UNL     1       1.627  -4.566  -0.133  0.00  0.00    +0.101 C 
ENDBRANCH  19  30
ENDBRANCH  17  24
ENDBRANCH   1  17
TORSDOF 5
