REMARK  Name = ZINC63350792
REMARK  2 active torsions:
REMARK  status: ('A' for Active; 'I' for Inactive)
REMARK    1  A    between atoms: C_4  and  C_7
REMARK    2  A    between atoms: N_25  and  C_28
REMARK                            x       y       z     vdW  Elec       q    Type
REMARK                         _______ _______ _______ _____ _____    ______ ____
ROOT
ATOM      1  C   UNL     1       3.677  -0.706  -0.038  0.00  0.00    +0.135 C 
ATOM      2  C   UNL     1       3.999  -1.189  -1.459  0.00  0.00    +0.131 C 
ATOM      3  C   UNL     1       5.099  -2.235  -1.340  0.00  0.00    -0.034 C 
ATOM      4  C   UNL     1       6.108  -1.804  -2.090  0.00  0.00    -0.001 A 
ATOM      5  C   UNL     1       7.411  -2.406  -2.417  0.00  0.00    +0.010 A 
ATOM      6  C   UNL     1       8.225  -1.673  -3.221  0.00  0.00    +0.001 A 
ATOM      7  C   UNL     1       7.878  -0.416  -3.727  0.00  0.00    +0.002 A 
ATOM      8  C   UNL     1       6.699   0.210  -3.483  0.00  0.00    +0.026 A 
ATOM      9  C   UNL     1       5.758  -0.465  -2.652  0.00  0.00    +0.043 A 
ATOM     10  N   UNL     1       4.556  -0.105  -2.273  0.00  0.00    -0.375 N 
ATOM     11  C   UNL     1       4.988  -3.454  -0.455  0.00  0.00    +0.065 C 
ATOM     12  C   UNL     1       3.689  -3.291   0.352  0.00  0.00    +0.169 C 
ATOM     13  N   UNL     1       3.616  -1.892   0.826  0.00  0.00    -0.264 N 
ATOM     14  C   UNL     1       3.511  -1.938   2.160  0.00  0.00    +0.317 C 
ATOM     15  O   UNL     1       3.319  -0.963   2.859  0.00  0.00    -0.252 OA
ATOM     16  N   UNL     1       3.641  -3.185   2.635  0.00  0.00    -0.192 N 
ATOM     17  C   UNL     1       3.768  -4.106   1.625  0.00  0.00    +0.248 C 
ATOM     18  O   UNL     1       3.920  -5.306   1.718  0.00  0.00    -0.273 OA
ATOM     19  H   UNL     1       4.110   0.729  -2.488  0.00  0.00    +0.160 HD
ENDROOT
BRANCH  16  20
ATOM     20  C   UNL     1       3.634  -3.513   4.000  0.00  0.00    +0.049 A 
ATOM     21  C   UNL     1       3.654  -4.843   4.394  0.00  0.00    +0.028 A 
ATOM     22  C   UNL     1       3.645  -5.167   5.737  0.00  0.00    +0.051 A 
ATOM     23  C   UNL     1       3.618  -4.165   6.695  0.00  0.00    +0.162 A 
ATOM     24  C   UNL     1       3.601  -2.831   6.303  0.00  0.00    +0.164 A 
ATOM     25  C   UNL     1       3.612  -2.507   4.955  0.00  0.00    +0.073 A 
ATOM     26  O   UNL     1       3.582  -1.833   7.229  0.00  0.00    -0.485 OA
ATOM     27  C   UNL     1       3.200  -2.197   8.560  0.00  0.00    +0.270 C 
ATOM     28  C   UNL     1       3.959  -3.474   8.946  0.00  0.00    +0.270 C 
ATOM     29  O   UNL     1       3.607  -4.503   8.014  0.00  0.00    -0.485 OA
ENDBRANCH  16  20
BRANCH   1  33
ATOM     30  C   UNL     1      -0.089   1.310  -0.007  0.00  0.00    +0.000 A 
ATOM     31  C   UNL     1       1.086   2.039  -0.010  0.00  0.00    +0.000 A 
ATOM     32  C   UNL     1       2.304   1.386  -0.019  0.00  0.00    +0.005 A 
ATOM     33  C   UNL     1       2.349   0.005  -0.026  0.00  0.00    -0.025 A 
ATOM     34  C   UNL     1       1.174  -0.725  -0.023  0.00  0.00    +0.005 A 
ATOM     35  C   UNL     1      -0.044  -0.072  -0.015  0.00  0.00    +0.000 A 
ENDBRANCH   1  33
TORSDOF 2
