REMARK  Name = ZINC12281395
REMARK  8 active torsions:
REMARK  status: ('A' for Active; 'I' for Inactive)
REMARK    1  A    between atoms: C_1  and  C_2
REMARK    2  A    between atoms: C_10  and  C_11
REMARK    3  A    between atoms: N_13  and  C_14
REMARK    4  A    between atoms: N_13  and  C_15
REMARK    5  A    between atoms: C_15  and  C_16
REMARK    6  A    between atoms: N_21  and  C_22
REMARK    7  A    between atoms: C_22  and  C_24
REMARK    8  A    between atoms: C_22  and  C_25
REMARK                            x       y       z     vdW  Elec       q    Type
REMARK                         _______ _______ _______ _____ _____    ______ ____
ROOT
ATOM      1  C   UNL     1      -0.358   6.451  -3.349  0.00  0.00    +0.046 C 
ATOM      2  C   UNL     1       0.929   6.016  -4.001  0.00  0.00    -0.019 A 
ATOM      3  C   UNL     1       1.409   6.696  -5.128  0.00  0.00    +0.051 A 
ATOM      4  C   UNL     1       0.848   7.813  -5.816  0.00  0.00    +0.131 A 
ATOM      5  N   UNL     1       1.477   8.302  -6.872  0.00  0.00    -0.220 NA
ATOM      6  C   UNL     1       2.612   7.792  -7.316  0.00  0.00    +0.224 A 
ATOM      7  N   UNL     1       3.182   6.760  -6.724  0.00  0.00    -0.228 NA
ATOM      8  C   UNL     1       2.626   6.208  -5.665  0.00  0.00    +0.114 A 
ATOM      9  S   UNL     1       3.035   4.857  -4.590  0.00  0.00    -0.064 S 
ATOM     10  C   UNL     1       1.627   4.961  -3.498  0.00  0.00    +0.080 A 
ATOM     11  N   UNL     1      -0.336   8.376  -5.385  0.00  0.00    -0.321 N 
ATOM     12  H   UNL     1      -0.746   8.072  -4.560  0.00  0.00    +0.148 HD
ENDROOT
BRANCH  10  13
ATOM     13  C   UNL     1       1.304   4.120  -2.338  0.00  0.00    +0.254 C 
ATOM     14  O   UNL     1       0.234   4.248  -1.773  0.00  0.00    -0.269 OA
ATOM     15  N   UNL     1       2.193   3.206  -1.900  0.00  0.00    -0.294 N 
ATOM     16  C   UNL     1       3.459   3.017  -2.612  0.00  0.00    +0.133 C 
BRANCH  15  17
ATOM     17  C   UNL     1       1.893   2.403  -0.713  0.00  0.00    +0.170 C 
BRANCH  17  18
ATOM     18  C   UNL     1       1.180   1.141  -1.127  0.00  0.00    +0.096 A 
ATOM     19  N   UNL     1       1.689  -0.026  -1.448  0.00  0.00    -0.251 NA
ATOM     20  C   UNL     1       0.922  -1.039  -1.791  0.00  0.00    +0.119 A 
ATOM     21  C   UNL     1      -0.423  -0.854  -1.806  0.00  0.00    +0.066 A 
ATOM     22  S   UNL     1      -0.524   0.858  -1.301  0.00  0.00    -0.079 S 
ENDBRANCH  17  18
ENDBRANCH  15  17
ENDBRANCH  10  13
BRANCH  11  23
ATOM     23  C   UNL     1      -0.973   9.434  -6.173  0.00  0.00    +0.106 C 
ATOM     24  C   UNL     1      -1.841   8.804  -7.265  0.00  0.00    +0.033 C 
BRANCH  23  25
ATOM     25  C   UNL     1      -1.835  10.281  -5.272  0.00  0.00    +0.010 A 
ATOM     26  C   UNL     1      -2.002  11.626  -5.268  0.00  0.00    +0.013 A 
ATOM     27  C   UNL     1      -2.857  12.193  -4.342  0.00  0.00    +0.008 A 
ATOM     28  C   UNL     1      -3.495  11.387  -3.458  0.00  0.00    +0.045 A 
ATOM     29  S   UNL     1      -2.896   9.773  -3.929  0.00  0.00    -0.100 S 
ENDBRANCH  23  25
ENDBRANCH  11  23
TORSDOF 5
