REMARK  Name = ZINC40010740
REMARK  8 active torsions:
REMARK  status: ('A' for Active; 'I' for Inactive)
REMARK    1  A    between atoms: C_1  and  O_2
REMARK    2  A    between atoms: O_2  and  C_3
REMARK    3  A    between atoms: C_10  and  C_15
REMARK    4  A    between atoms: C_19  and  O_37
REMARK    5  A    between atoms: C_20  and  O_35
REMARK    6  A    between atoms: C_26  and  C_28
REMARK    7  A    between atoms: O_35  and  C_36
REMARK    8  A    between atoms: O_37  and  C_38
REMARK                            x       y       z     vdW  Elec       q    Type
REMARK                         _______ _______ _______ _____ _____    ______ ____
ROOT
ATOM      1  C   UNL     1      -4.127  -5.556  -1.245  0.00  0.00    +0.123 C 
ATOM      2  C   UNL     1      -2.975  -6.527  -1.320  0.00  0.00    -0.019 A 
ATOM      3  C   UNL     1      -1.724  -6.020  -1.646  0.00  0.00    +0.055 A 
ATOM      4  C   UNL     1      -0.625  -6.856  -1.721  0.00  0.00    +0.162 A 
ATOM      5  C   UNL     1      -0.778  -8.216  -1.466  0.00  0.00    +0.162 A 
ATOM      6  C   UNL     1      -2.027  -8.716  -1.147  0.00  0.00    +0.053 A 
ATOM      7  C   UNL     1      -3.130  -7.873  -1.078  0.00  0.00    -0.037 A 
ATOM      8  C   UNL     1      -4.462  -8.496  -0.750  0.00  0.00    +0.054 C 
ATOM      9  C   UNL     1      -5.446  -7.442  -0.244  0.00  0.00    +0.113 C 
ATOM     10  N   UNL     1      -5.391  -6.295  -1.163  0.00  0.00    -0.289 N 
ATOM     11  C   UNL     1      -6.461  -5.937  -1.900  0.00  0.00    +0.250 C 
ATOM     12  O   UNL     1      -6.426  -4.924  -2.571  0.00  0.00    -0.270 OA
ENDROOT
BRANCH   1  20
ATOM     13  C   UNL     1      -1.128  -0.696  -0.029  0.00  0.00    +0.121 A 
ATOM     14  C   UNL     1      -2.298   0.072   0.009  0.00  0.00    +0.047 A 
ATOM     15  C   UNL     1      -3.537  -0.483   0.033  0.00  0.00    +0.027 A 
ATOM     16  C   UNL     1      -3.695  -1.882   0.021  0.00  0.00    +0.041 A 
ATOM     17  N   UNL     1      -4.918  -2.413   0.045  0.00  0.00    -0.284 N 
ATOM     18  C   UNL     1      -5.139  -3.717   0.036  0.00  0.00    +0.226 C 
ATOM     19  O   UNL     1      -6.278  -4.143   0.059  0.00  0.00    -0.275 OA
ATOM     20  C   UNL     1      -3.970  -4.676  -0.003  0.00  0.00    +0.123 C 
ATOM     21  C   UNL     1      -2.578  -4.077  -0.031  0.00  0.00    -0.002 C 
ATOM     22  C   UNL     1      -2.482  -2.717  -0.018  0.00  0.00    -0.003 A 
ATOM     23  C   UNL     1      -1.177  -2.057  -0.049  0.00  0.00    +0.055 A 
ATOM     24  H   UNL     1      -5.681  -1.815   0.071  0.00  0.00    +0.155 HD
BRANCH  13  26
ATOM     25  C   UNL     1       0.070   1.357  -0.029  0.00  0.00    +0.277 C 
ATOM     26  O   UNL     1       0.079  -0.071  -0.052  0.00  0.00    -0.495 OA
ENDBRANCH  13  26
ENDBRANCH   1  20
BRANCH  11  27
ATOM     27  C   UNL     1      -7.677  -6.774  -1.891  0.00  0.00    +0.072 A 
ATOM     28  C   UNL     1      -7.593  -8.138  -2.183  0.00  0.00    +0.016 A 
ATOM     29  C   UNL     1      -8.732  -8.914  -2.173  0.00  0.00    +0.001 A 
ATOM     30  C   UNL     1      -9.959  -8.347  -1.875  0.00  0.00    +0.003 A 
ATOM     31  C   UNL     1     -10.053  -6.999  -1.585  0.00  0.00    +0.039 A 
ATOM     32  C   UNL     1      -8.919  -6.208  -1.585  0.00  0.00    +0.135 A 
ATOM     33  F   UNL     1      -9.010  -4.892  -1.297  0.00  0.00    -0.205 F 
ENDBRANCH  11  27
BRANCH   5  34
ATOM     34  O   UNL     1       0.295  -9.049  -1.532  0.00  0.00    -0.491 OA
ATOM     35  C   UNL     1       0.061 -10.432  -1.258  0.00  0.00    +0.277 C 
ENDBRANCH   5  34
BRANCH   4  36
ATOM     36  O   UNL     1       0.597  -6.354  -2.042  0.00  0.00    -0.491 OA
ATOM     37  C   UNL     1       0.676  -4.948  -2.291  0.00  0.00    +0.277 C 
ENDBRANCH   4  36
TORSDOF 5
