REMARK  Name = ZINC15637845
REMARK  8 active torsions:
REMARK  status: ('A' for Active; 'I' for Inactive)
REMARK    1  A    between atoms: C_1  and  C_2
REMARK    2  A    between atoms: C_4  and  S_20
REMARK    3  A    between atoms: C_6  and  N_9
REMARK    4  A    between atoms: C_7  and  C_8
REMARK    5  A    between atoms: C_10  and  C_12
REMARK    6  A    between atoms: S_20  and  N_23
REMARK    7  A    between atoms: N_23  and  C_24
REMARK    8  A    between atoms: N_23  and  C_25
REMARK                            x       y       z     vdW  Elec       q    Type
REMARK                         _______ _______ _______ _____ _____    ______ ____
ROOT
ATOM      1  C   UNL     1      -0.044   1.494  -0.004  0.00  0.00    +0.044 C 
ATOM      2  C   UNL     1      -0.021  -0.013  -0.007  0.00  0.00    -0.044 A 
ATOM      3  C   UNL     1      -0.024  -0.701  -1.207  0.00  0.00    +0.032 A 
ATOM      4  C   UNL     1      -0.003  -2.083  -1.214  0.00  0.00    +0.107 A 
ATOM      5  C   UNL     1       0.023  -2.781  -0.023  0.00  0.00    +0.052 A 
ATOM      6  C   UNL     1       0.027  -2.093   1.184  0.00  0.00    +0.039 A 
ATOM      7  C   UNL     1       0.010  -0.704   1.188  0.00  0.00    -0.026 A 
ATOM      8  C   UNL     1       0.020   0.047   2.494  0.00  0.00    +0.046 C 
ENDROOT
BRANCH   6   9
ATOM      9  N   UNL     1       0.053  -2.797   2.392  0.00  0.00    -0.281 N 
ATOM     10  C   UNL     1       0.564  -4.044   2.435  0.00  0.00    +0.251 C 
ATOM     11  O   UNL     1       1.093  -4.518   1.448  0.00  0.00    -0.270 OA
ATOM     12  H   UNL     1      -0.297  -2.388   3.199  0.00  0.00    +0.155 HD
BRANCH  10  13
ATOM     13  C   UNL     1       0.480  -4.833   3.680  0.00  0.00    +0.074 A 
ATOM     14  C   UNL     1      -0.132  -4.293   4.814  0.00  0.00    +0.036 A 
ATOM     15  C   UNL     1      -0.206  -5.036   5.974  0.00  0.00    +0.042 A 
ATOM     16  C   UNL     1       0.325  -6.316   6.017  0.00  0.00    +0.023 A 
ATOM     17  C   UNL     1       0.933  -6.857   4.900  0.00  0.00    +0.040 A 
ATOM     18  C   UNL     1       1.010  -6.127   3.728  0.00  0.00    +0.136 A 
ATOM     19  F   UNL     1       1.598  -6.659   2.635  0.00  0.00    -0.205 F 
ATOM     20 CL   UNL     1      -0.966  -4.367   7.383  0.00  0.00    -0.084 Cl
ENDBRANCH  10  13
ENDBRANCH   6   9
BRANCH   4  21
ATOM     21  S   UNL     1      -0.008  -2.955  -2.745  0.00  0.00    +0.060 S 
ATOM     22  O   UNL     1      -0.535  -4.247  -2.475  0.00  0.00    -0.153 OA
ATOM     23  O   UNL     1      -0.585  -2.083  -3.707  0.00  0.00    -0.153 OA
BRANCH  21  24
ATOM     24  N   UNL     1       1.572  -3.173  -3.190  0.00  0.00    -0.183 NA
ATOM     25  C   UNL     1       2.297  -4.371  -2.760  0.00  0.00    +0.131 C 
ATOM     26  C   UNL     1       2.246  -2.167  -4.015  0.00  0.00    +0.131 C 
ENDBRANCH  21  24
ENDBRANCH   4  21
TORSDOF 4
