REMARK  Name = ZINC40010221
REMARK  8 active torsions:
REMARK  status: ('A' for Active; 'I' for Inactive)
REMARK    1  A    between atoms: C_1  and  C_2
REMARK    2  A    between atoms: C_4  and  C_36
REMARK    3  A    between atoms: C_9  and  C_14
REMARK    4  A    between atoms: C_18  and  O_34
REMARK    5  A    between atoms: C_19  and  O_32
REMARK    6  A    between atoms: C_25  and  C_27
REMARK    7  A    between atoms: O_32  and  C_33
REMARK    8  A    between atoms: O_34  and  C_35
REMARK                            x       y       z     vdW  Elec       q    Type
REMARK                         _______ _______ _______ _____ _____    ______ ____
ROOT
ATOM      1  C   UNL     1       0.971  -4.506   2.851  0.00  0.00    +0.123 C 
ATOM      2  C   UNL     1       0.649  -5.980   2.869  0.00  0.00    -0.019 A 
ATOM      3  C   UNL     1       0.590  -6.642   1.649  0.00  0.00    +0.055 A 
ATOM      4  C   UNL     1       0.290  -7.991   1.597  0.00  0.00    +0.162 A 
ATOM      5  C   UNL     1       0.045  -8.687   2.777  0.00  0.00    +0.162 A 
ATOM      6  C   UNL     1       0.109  -8.024   3.988  0.00  0.00    +0.053 A 
ATOM      7  C   UNL     1       0.417  -6.669   4.038  0.00  0.00    -0.037 A 
ATOM      8  C   UNL     1       0.496  -6.023   5.396  0.00  0.00    +0.054 C 
ATOM      9  C   UNL     1       0.359  -4.505   5.286  0.00  0.00    +0.113 C 
ATOM     10  N   UNL     1       1.258  -4.047   4.215  0.00  0.00    -0.287 N 
ATOM     11  C   UNL     1       2.303  -3.238   4.476  0.00  0.00    +0.282 C 
ATOM     12  O   UNL     1       2.570  -2.942   5.626  0.00  0.00    -0.267 OA
ENDROOT
BRANCH   1  21
ATOM     13  C   UNL     1      -5.387  -3.118   5.793  0.00  0.00    +0.044 C 
ATOM     14  C   UNL     1      -4.133  -2.730   5.053  0.00  0.00    -0.050 A 
ATOM     15  C   UNL     1      -3.722  -1.397   5.057  0.00  0.00    +0.008 A 
ATOM     16  C   UNL     1      -2.603  -0.973   4.413  0.00  0.00    -0.028 A 
ATOM     17  C   UNL     1      -1.800  -1.883   3.702  0.00  0.00    +0.043 A 
ATOM     18  N   UNL     1      -0.705  -1.455   3.075  0.00  0.00    -0.284 N 
ATOM     19  C   UNL     1       0.094  -2.256   2.389  0.00  0.00    +0.226 C 
ATOM     20  O   UNL     1       1.081  -1.808   1.837  0.00  0.00    -0.275 OA
ATOM     21  C   UNL     1      -0.225  -3.731   2.294  0.00  0.00    +0.123 C 
ATOM     22  C   UNL     1      -1.470  -4.223   3.006  0.00  0.00    -0.003 C 
ATOM     23  C   UNL     1      -2.210  -3.297   3.680  0.00  0.00    -0.006 A 
ATOM     24  C   UNL     1      -3.424  -3.687   4.400  0.00  0.00    +0.012 A 
ATOM     25  C   UNL     1      -2.220   0.484   4.461  0.00  0.00    +0.046 C 
ATOM     26  H   UNL     1      -0.482  -0.512   3.123  0.00  0.00    +0.155 HD
ENDBRANCH   1  21
BRANCH  11  27
ATOM     27  C   UNL     1       3.118  -2.713   3.376  0.00  0.00    +0.189 A 
ATOM     28  C   UNL     1       4.118  -1.790   3.487  0.00  0.00    +0.054 A 
ATOM     29  C   UNL     1       4.622  -1.584   2.194  0.00  0.00    +0.042 A 
ATOM     30  C   UNL     1       3.917  -2.380   1.360  0.00  0.00    +0.196 A 
ATOM     31  O   UNL     1       3.015  -3.063   2.077  0.00  0.00    -0.458 OA
ENDBRANCH  11  27
BRANCH   5  32
ATOM     32  O   UNL     1      -0.257 -10.012   2.739  0.00  0.00    -0.491 OA
ATOM     33  C   UNL     1      -0.496 -10.660   3.990  0.00  0.00    +0.277 C 
ENDBRANCH   5  32
BRANCH   4  34
ATOM     34  O   UNL     1       0.234  -8.633   0.399  0.00  0.00    -0.491 OA
ATOM     35  C   UNL     1       0.497  -7.853  -0.769  0.00  0.00    +0.277 C 
ENDBRANCH   4  34
TORSDOF 4
