REMARK  Name = ZINC15931315
REMARK  4 active torsions:
REMARK  status: ('A' for Active; 'I' for Inactive)
REMARK    1  A    between atoms: C_1  and  C_2
REMARK    2  A    between atoms: C_9  and  C_11
REMARK    3  A    between atoms: C_16  and  C_29
REMARK    4  A    between atoms: C_19  and  C_22
REMARK                            x       y       z     vdW  Elec       q    Type
REMARK                         _______ _______ _______ _____ _____    ______ ____
ROOT
ATOM      1  C   UNL     1       2.214  -0.123   3.099  0.00  0.00    +0.149 A 
ATOM      2  C   UNL     1       2.710   0.637   4.182  0.00  0.00    +0.078 A 
ATOM      3  C   UNL     1       3.504  -0.169   4.914  0.00  0.00    +0.119 A 
ATOM      4  N   UNL     1       3.517  -1.402   4.327  0.00  0.00    -0.238 N 
ATOM      5  N   UNL     1       2.701  -1.348   3.198  0.00  0.00    -0.164 NA
ATOM      6  C   UNL     1       4.273  -2.544   4.849  0.00  0.00    +0.215 C 
ATOM      7  C   UNL     1       4.606  -2.286   6.323  0.00  0.00    +0.063 C 
ATOM      8  C   UNL     1       5.226  -0.893   6.482  0.00  0.00    +0.104 C 
ATOM      9  N   UNL     1       4.226   0.115   6.077  0.00  0.00    -0.322 N 
ATOM     10  H   UNL     1       4.078   0.926   6.588  0.00  0.00    +0.148 HD
ENDROOT
BRANCH   1  18
ATOM     11  C   UNL     1       0.041   1.517  -0.032  0.00  0.00    +0.028 C 
ATOM     12  C   UNL     1      -0.002  -0.012   0.006  0.00  0.00    +0.073 C 
ATOM     13  C   UNL     1       0.595  -0.574  -1.288  0.00  0.00    +0.022 C 
ATOM     14  C   UNL     1       0.677  -2.099  -1.187  0.00  0.00    +0.003 C 
ATOM     15  C   UNL     1       1.595  -2.485  -0.025  0.00  0.00    +0.019 C 
ATOM     16  C   UNL     1       1.010  -1.945   1.284  0.00  0.00    +0.108 C 
ATOM     17  N   UNL     1       0.789  -0.498   1.145  0.00  0.00    -0.293 N 
ATOM     18  C   UNL     1       1.304   0.365   2.042  0.00  0.00    +0.267 C 
ATOM     19  O   UNL     1       1.020   1.546   1.982  0.00  0.00    -0.268 OA
ENDBRANCH   1  18
BRANCH   8  20
ATOM     20  C   UNL     1       5.616  -0.674   7.921  0.00  0.00    -0.027 A 
ATOM     21  C   UNL     1       4.657  -0.320   8.852  0.00  0.00    +0.006 A 
ATOM     22  C   UNL     1       5.015  -0.120  10.171  0.00  0.00    +0.015 A 
ATOM     23  C   UNL     1       6.333  -0.274  10.562  0.00  0.00    +0.018 A 
ATOM     24  C   UNL     1       7.293  -0.628   9.630  0.00  0.00    +0.015 A 
ATOM     25  C   UNL     1       6.933  -0.834   8.312  0.00  0.00    +0.006 A 
ATOM     26 BR   UNL     1       6.824   0.000  12.367  0.00  0.00    -0.050 Br
ENDBRANCH   8  20
BRANCH   6  27
ATOM     27  C   UNL     1       3.431  -3.815   4.726  0.00  0.00    +0.412 C 
ATOM     28  F   UNL     1       3.120  -4.040   3.381  0.00  0.00    -0.168 F 
ATOM     29  F   UNL     1       4.155  -4.904   5.225  0.00  0.00    -0.168 F 
ATOM     30  F   UNL     1       2.250  -3.665   5.460  0.00  0.00    -0.168 F 
ENDBRANCH   6  27
TORSDOF 3
