REMARK  Name = ZINC40311895
REMARK  5 active torsions:
REMARK  status: ('A' for Active; 'I' for Inactive)
REMARK    1  A    between atoms: C_1  and  C_2
REMARK    2  A    between atoms: C_2  and  C_4
REMARK    3  A    between atoms: C_2  and  N_11
REMARK    4  A    between atoms: C_12  and  C_14
REMARK    5  A    between atoms: C_19  and  N_20
REMARK                            x       y       z     vdW  Elec       q    Type
REMARK                         _______ _______ _______ _____ _____    ______ ____
ROOT
ATOM      1  N   UNL     1      -1.356  -0.557   0.014  0.00  0.00    -0.305 N 
ATOM      2  C   UNL     1      -2.022  -0.674   1.181  0.00  0.00    +0.246 C 
ATOM      3  O   UNL     1      -1.478  -0.367   2.224  0.00  0.00    -0.270 OA
ATOM      4  H   UNL     1      -1.790  -0.802  -0.818  0.00  0.00    +0.150 HD
ENDROOT
BRANCH   2   5
ATOM      5  C   UNL     1      -3.408  -1.175   1.191  0.00  0.00    +0.059 A 
ATOM      6  C   UNL     1      -4.080  -1.411  -0.012  0.00  0.00    +0.035 A 
ATOM      7  C   UNL     1      -5.376  -1.879   0.005  0.00  0.00    +0.042 A 
ATOM      8  C   UNL     1      -6.019  -2.117   1.211  0.00  0.00    +0.022 A 
ATOM      9  C   UNL     1      -5.370  -1.887   2.406  0.00  0.00    +0.025 A 
ATOM     10  C   UNL     1      -4.061  -1.422   2.409  0.00  0.00    +0.037 A 
ATOM     11 CL   UNL     1      -6.208  -2.172  -1.490  0.00  0.00    -0.084 Cl
BRANCH  10  12
ATOM     12  N   UNL     1      -3.402  -1.196   3.611  0.00  0.00    -0.357 N 
ATOM     13  H   UNL     1      -2.520  -0.793   3.613  0.00  0.00    +0.142 HD
ATOM     14  H   UNL     1      -3.825  -1.442   4.449  0.00  0.00    +0.142 HD
ENDBRANCH  10  12
ENDBRANCH   2   5
BRANCH   1  16
ATOM     15  C   UNL     1       0.011   1.470  -0.017  0.00  0.00    +0.033 C 
ATOM     16  C   UNL     1       0.021  -0.060   0.004  0.00  0.00    +0.100 C 
BRANCH  16  17
ATOM     17  C   UNL     1       0.732  -0.574  -1.222  0.00  0.00    -0.027 A 
ATOM     18  C   UNL     1       0.070  -0.624  -2.434  0.00  0.00    +0.006 A 
ATOM     19  C   UNL     1       0.721  -1.095  -3.559  0.00  0.00    +0.015 A 
ATOM     20  C   UNL     1       2.036  -1.517  -3.470  0.00  0.00    +0.018 A 
ATOM     21  C   UNL     1       2.698  -1.467  -2.257  0.00  0.00    +0.015 A 
ATOM     22  C   UNL     1       2.047  -0.991  -1.134  0.00  0.00    +0.006 A 
ATOM     23 BR   UNL     1       2.927  -2.163  -5.008  0.00  0.00    -0.050 Br
ENDBRANCH  16  17
ENDBRANCH   1  16
TORSDOF 4
