REMARK  Name = ZINC19597204
REMARK  5 active torsions:
REMARK  status: ('A' for Active; 'I' for Inactive)
REMARK    1  A    between atoms: C_3  and  C_27
REMARK    2  A    between atoms: C_6  and  C_7
REMARK    3  A    between atoms: C_7  and  O_8
REMARK    4  A    between atoms: O_8  and  C_9
REMARK    5  A    between atoms: C_12  and  C_16
REMARK                            x       y       z     vdW  Elec       q    Type
REMARK                         _______ _______ _______ _____ _____    ______ ____
ROOT
ATOM      1  C   UNL     1      -2.779  -1.805  -1.849  0.00  0.00    +0.157 A 
ATOM      2  C   UNL     1      -2.845  -3.086  -2.391  0.00  0.00    +0.085 A 
ATOM      3  C   UNL     1      -4.046  -3.745  -2.454  0.00  0.00    +0.031 A 
ATOM      4  C   UNL     1      -5.209  -3.127  -1.970  0.00  0.00    -0.021 A 
ATOM      5  C   UNL     1      -5.136  -1.835  -1.424  0.00  0.00    +0.031 A 
ATOM      6  C   UNL     1      -3.929  -1.188  -1.362  0.00  0.00    +0.085 A 
ATOM      7 CL   UNL     1      -3.834   0.406  -0.682  0.00  0.00    -0.080 Cl
ATOM      8 CL   UNL     1      -1.405  -3.849  -2.990  0.00  0.00    -0.080 Cl
ENDROOT
BRANCH   4   9
ATOM      9  C   UNL     1      -6.492  -3.824  -2.034  0.00  0.00    +0.026 C 
ATOM     10  C   UNL     1      -6.584  -5.145  -1.623  0.00  0.00    +0.101 C 
ATOM     11  C   UNL     1      -5.486  -5.803  -0.897  0.00  0.00    +0.276 C 
ATOM     12  O   UNL     1      -4.351  -5.133  -0.608  0.00  0.00    -0.268 OA
ATOM     13  N   UNL     1      -5.638  -7.065  -0.534  0.00  0.00    -0.123 NA
ATOM     14  C   UNL     1      -6.747  -7.750  -0.806  0.00  0.00    +0.333 C 
ATOM     15  O   UNL     1      -6.811  -8.909  -0.438  0.00  0.00    -0.250 OA
ATOM     16  N   UNL     1      -7.796  -7.234  -1.461  0.00  0.00    -0.234 N 
ATOM     17  C   UNL     1      -7.790  -5.953  -1.890  0.00  0.00    +0.257 C 
ATOM     18  O   UNL     1      -8.744  -5.483  -2.481  0.00  0.00    -0.270 OA
ATOM     19  H   UNL     1      -8.575  -7.788  -1.627  0.00  0.00    +0.159 HD
ENDBRANCH   4   9
BRANCH   1  20
ATOM     20  O   UNL     1      -1.588  -1.157  -1.790  0.00  0.00    -0.484 OA
BRANCH  20  21
ATOM     21  C   UNL     1      -0.802  -1.351  -0.613  0.00  0.00    +0.264 C 
BRANCH  21  27
ATOM     22  C   UNL     1       0.521   0.744  -0.263  0.00  0.00    +0.008 A 
ATOM     23  C   UNL     1       1.687   1.474  -0.363  0.00  0.00    +0.015 A 
ATOM     24  C   UNL     1       2.824   0.894  -0.933  0.00  0.00    +0.063 A 
ATOM     25  C   UNL     1       2.770  -0.422  -1.397  0.00  0.00    +0.015 A 
ATOM     26  C   UNL     1       1.597  -1.141  -1.291  0.00  0.00    +0.008 A 
ATOM     27  C   UNL     1       0.475  -0.560  -0.726  0.00  0.00    -0.010 A 
BRANCH  24  28
ATOM     28  C   UNL     1       4.074   1.669  -1.043  0.00  0.00    +0.387 C 
ATOM     29  O   UNL     1       4.118   2.821  -0.636  0.00  0.00    -0.241 OA
ATOM     30  O   UNL     1       5.067   1.159  -1.542  0.00  0.00    -0.241 OA
ENDBRANCH  24  28
ENDBRANCH  21  27
ENDBRANCH  20  21
ENDBRANCH   1  20
TORSDOF 5
