REMARK  Name = ZINC40778405
REMARK  6 active torsions:
REMARK  status: ('A' for Active; 'I' for Inactive)
REMARK    1  A    between atoms: C_1  and  N_2
REMARK    2  A    between atoms: C_5  and  N_8
REMARK    3  A    between atoms: N_8  and  C_9
REMARK    4  A    between atoms: C_11  and  N_25
REMARK    5  A    between atoms: C_12  and  N_16
REMARK    6  A    between atoms: N_16  and  C_17
REMARK                            x       y       z     vdW  Elec       q    Type
REMARK                         _______ _______ _______ _____ _____    ______ ____
ROOT
ATOM      1  N   UNL     1       1.864  -3.357   0.137  0.00  0.00    -0.314 N 
ATOM      2  C   UNL     1       0.440  -3.702   0.097  0.00  0.00    +0.131 C 
ATOM      3  C   UNL     1       2.824  -4.360   0.084  0.00  0.00    +0.147 A 
ATOM      4  C   UNL     1       3.216  -5.029   1.245  0.00  0.00    +0.106 A 
ATOM      5  C   UNL     1       4.183  -6.029   1.135  0.00  0.00    +0.149 A 
ATOM      6  N   UNL     1       4.692  -6.304  -0.064  0.00  0.00    -0.219 NA
ATOM      7  C   UNL     1       4.294  -5.649  -1.135  0.00  0.00    +0.225 A 
ATOM      8  N   UNL     1       3.380  -4.702  -1.076  0.00  0.00    -0.219 NA
ENDROOT
BRANCH   1  13
ATOM      9  C   UNL     1       1.796   2.272   0.496  0.00  0.00    -0.096 C 
ATOM     10  N   UNL     1       1.508   0.835   0.400  0.00  0.00    +0.378 N 
ATOM     11  C   UNL     1       2.106   0.299  -0.829  0.00  0.00    -0.077 C 
ATOM     12  C   UNL     1       1.741  -1.180  -0.976  0.00  0.00    +0.004 C 
ATOM     13  C   UNL     1       2.275  -1.954   0.233  0.00  0.00    +0.071 C 
ATOM     14  C   UNL     1       1.702  -1.339   1.514  0.00  0.00    +0.004 C 
ATOM     15  C   UNL     1       2.069   0.146   1.568  0.00  0.00    -0.077 C 
ATOM     16  H   UNL     1       0.509   0.694   0.374  0.00  0.00    -0.082 HD
ENDBRANCH   1  13
BRANCH   4  17
ATOM     17  N   UNL     1       2.652  -4.704   2.490  0.00  0.00    -0.353 N 
ATOM     18  H   UNL     1       1.921  -4.068   2.540  0.00  0.00    +0.143 HD
ATOM     19  H   UNL     1       2.993  -5.116   3.299  0.00  0.00    +0.143 HD
ENDBRANCH   4  17
BRANCH   5  20
ATOM     20  N   UNL     1       4.610  -6.725   2.261  0.00  0.00    -0.297 N 
ATOM     21  H   UNL     1       4.169  -6.585   3.114  0.00  0.00    +0.154 HD
BRANCH  20  22
ATOM     22  C   UNL     1       5.673  -7.627   2.163  0.00  0.00    +0.052 A 
ATOM     23  C   UNL     1       6.619  -7.482   1.156  0.00  0.00    +0.044 A 
ATOM     24  C   UNL     1       7.669  -8.375   1.063  0.00  0.00    +0.043 A 
ATOM     25  C   UNL     1       7.779  -9.414   1.971  0.00  0.00    +0.021 A 
ATOM     26  C   UNL     1       6.840  -9.562   2.974  0.00  0.00    +0.023 A 
ATOM     27  C   UNL     1       5.790  -8.668   3.076  0.00  0.00    +0.062 A 
ATOM     28 CL   UNL     1       4.614  -8.851   4.341  0.00  0.00    -0.082 Cl
ATOM     29 CL   UNL     1       8.852  -8.194  -0.195  0.00  0.00    -0.083 Cl
ENDBRANCH  20  22
ENDBRANCH   5  20
TORSDOF 4
