REMARK  Name = ZINC39363271
REMARK  6 active torsions:
REMARK  status: ('A' for Active; 'I' for Inactive)
REMARK    1  A    between atoms: C_1  and  C_2
REMARK    2  A    between atoms: C_2  and  C_3
REMARK    3  A    between atoms: C_2  and  C_4
REMARK    4  A    between atoms: C_2  and  C_5
REMARK    5  A    between atoms: C_5  and  N_6
REMARK    6  A    between atoms: C_16  and  C_18
REMARK                            x       y       z     vdW  Elec       q    Type
REMARK                         _______ _______ _______ _____ _____    ______ ____
ROOT
ATOM      1  N   UNL     1       1.562   0.192  -1.589  0.00  0.00    +0.380 N 
ATOM      2  C   UNL     1       1.192   1.591  -1.832  0.00  0.00    -0.079 C 
ATOM      3  C   UNL     1       2.456   2.445  -1.958  0.00  0.00    -0.018 C 
ATOM      4  C   UNL     1       3.294   1.934  -3.135  0.00  0.00    +0.005 C 
ATOM      5  C   UNL     1       3.595   0.453  -2.928  0.00  0.00    -0.027 C 
ATOM      6  C   UNL     1       2.302  -0.335  -2.743  0.00  0.00    -0.070 C 
ATOM      7  C   UNL     1       4.382  -0.099  -4.133  0.00  0.00    +0.025 C 
ATOM      8  C   UNL     1       5.850  -0.039  -3.639  0.00  0.00    +0.108 C 
ATOM      9  N   UNL     1       5.742  -0.398  -2.205  0.00  0.00    -0.296 N 
ATOM     10  C   UNL     1       4.515   0.261  -1.714  0.00  0.00    +0.113 C 
ATOM     11  C   UNL     1       6.590  -1.168  -1.495  0.00  0.00    +0.262 C 
ATOM     12  O   UNL     1       7.610  -1.584  -2.010  0.00  0.00    -0.269 OA
ATOM     13  H   UNL     1       2.143   0.138  -0.765  0.00  0.00    -0.082 HD
ENDROOT
BRANCH  11  14
ATOM     14  C   UNL     1       6.282  -1.504  -0.100  0.00  0.00    +0.121 C 
ATOM     15  N   UNL     1       5.151  -1.131   0.413  0.00  0.00    -0.180 NA
ATOM     16  N   UNL     1       4.825  -1.431   1.740  0.00  0.00    -0.207 N 
ATOM     17  C   UNL     1       5.789  -1.762   2.621  0.00  0.00    +0.233 C 
ATOM     18  O   UNL     1       5.500  -2.017   3.771  0.00  0.00    -0.274 OA
ATOM     19  C   UNL     1       7.227  -1.813   2.173  0.00  0.00    +0.104 C 
ATOM     20  C   UNL     1       7.282  -2.282   0.714  0.00  0.00    +0.071 C 
ATOM     21  H   UNL     1       3.899  -1.402   2.027  0.00  0.00    +0.177 HD
ENDBRANCH  11  14
BRANCH   1  22
ATOM     22  C   UNL     1       0.346  -0.606  -1.382  0.00  0.00    -0.073 C 
BRANCH  22  24
ATOM     23  C   UNL     1       1.294  -1.389   0.793  0.00  0.00    +0.009 C 
ATOM     24  C   UNL     1       0.681  -1.836  -0.536  0.00  0.00    -0.052 C 
ATOM     25  C   UNL     1       1.681  -2.716  -1.288  0.00  0.00    +0.009 C 
ATOM     26  C   UNL     1      -0.597  -2.632  -0.266  0.00  0.00    +0.009 C 
ENDBRANCH  22  24
ENDBRANCH   1  22
TORSDOF 3
