REMARK  Name = ZINC39929109
REMARK  14 active torsions:
REMARK  status: ('A' for Active; 'I' for Inactive)
REMARK    1  A    between atoms: C_1  and  C_2
REMARK    2  A    between atoms: C_5  and  C_38
REMARK    3  A    between atoms: C_6  and  N_8
REMARK    4  A    between atoms: N_8  and  C_9
REMARK    5  A    between atoms: C_9  and  C_10
REMARK    6  A    between atoms: C_16  and  O_22
REMARK    7  A    between atoms: O_22  and  C_23
REMARK    8  A    between atoms: C_24  and  C_26
REMARK    9  A    between atoms: C_28  and  O_36
REMARK   10  A    between atoms: C_29  and  O_34
REMARK   11  A    between atoms: C_30  and  O_32
REMARK   12  A    between atoms: O_32  and  C_33
REMARK   13  A    between atoms: O_34  and  C_35
REMARK   14  A    between atoms: O_36  and  C_37
REMARK                            x       y       z     vdW  Elec       q    Type
REMARK                         _______ _______ _______ _____ _____    ______ ____
ROOT
ATOM      1  N   UNL     1       0.095  -3.142   2.247  0.00  0.00    -0.266 N 
ATOM      2  C   UNL     1       1.177  -2.984   3.035  0.00  0.00    +0.251 C 
ATOM      3  O   UNL     1       1.068  -3.069   4.243  0.00  0.00    -0.270 OA
ENDROOT
BRANCH   1   9
ATOM      4  C   UNL     1       1.400  -4.796  -2.194  0.00  0.00    +0.044 C 
ATOM      5  C   UNL     1       0.827  -3.720  -1.309  0.00  0.00    -0.049 A 
ATOM      6  C   UNL     1       0.402  -2.525  -1.861  0.00  0.00    +0.004 A 
ATOM      7  C   UNL     1      -0.124  -1.535  -1.052  0.00  0.00    +0.005 A 
ATOM      8  C   UNL     1      -0.227  -1.736   0.310  0.00  0.00    -0.029 A 
ATOM      9  C   UNL     1       0.198  -2.935   0.868  0.00  0.00    +0.040 A 
ATOM     10  C   UNL     1       0.721  -3.930   0.052  0.00  0.00    +0.027 A 
ATOM     11  C   UNL     1      -0.800  -0.656   1.191  0.00  0.00    +0.045 C 
ENDBRANCH   1   9
BRANCH   2  12
ATOM     12  C   UNL     1       2.495  -2.707   2.431  0.00  0.00    +0.044 A 
ATOM     13  C   UNL     1       3.623  -3.413   2.859  0.00  0.00    +0.062 A 
ATOM     14  C   UNL     1       4.856  -3.152   2.292  0.00  0.00    +0.166 A 
ATOM     15  C   UNL     1       4.976  -2.188   1.295  0.00  0.00    +0.204 A 
ATOM     16  C   UNL     1       3.854  -1.483   0.867  0.00  0.00    +0.166 A 
ATOM     17  C   UNL     1       2.617  -1.744   1.426  0.00  0.00    +0.062 A 
BRANCH  16  18
ATOM     18  O   UNL     1       3.974  -0.540  -0.107  0.00  0.00    -0.491 OA
ATOM     19  C   UNL     1       2.782   0.144  -0.497  0.00  0.00    +0.277 C 
ENDBRANCH  16  18
BRANCH  15  20
ATOM     20  O   UNL     1       6.189  -1.933   0.739  0.00  0.00    -0.488 OA
ATOM     21  C   UNL     1       6.549  -2.700  -0.412  0.00  0.00    +0.277 C 
ENDBRANCH  15  20
BRANCH  14  22
ATOM     22  O   UNL     1       5.954  -3.838   2.708  0.00  0.00    -0.491 OA
ATOM     23  C   UNL     1       5.743  -4.889   3.654  0.00  0.00    +0.277 C 
ENDBRANCH  14  22
ENDBRANCH   2  12
BRANCH   1  24
ATOM     24  C   UNL     1      -1.188  -3.531   2.836  0.00  0.00    +0.131 C 
BRANCH  24  25
ATOM     25  C   UNL     1      -1.370  -5.045   2.710  0.00  0.00    +0.116 C 
ATOM     26  C   UNL     1      -2.819  -5.366   3.014  0.00  0.00    -0.003 C 
ATOM     27  C   UNL     1      -3.067  -6.232   4.035  0.00  0.00    -0.007 A 
ATOM     28  C   UNL     1      -4.441  -6.594   4.391  0.00  0.00    +0.013 A 
ATOM     29  C   UNL     1      -4.649  -7.459   5.413  0.00  0.00    +0.046 A 
ATOM     30  C   UNL     1      -3.578  -8.010   6.131  0.00  0.00    +0.122 A 
ATOM     31  C   UNL     1      -2.265  -7.707   5.842  0.00  0.00    +0.069 A 
ATOM     32  C   UNL     1      -1.954  -6.822   4.801  0.00  0.00    +0.044 A 
ATOM     33  N   UNL     1      -0.679  -6.535   4.530  0.00  0.00    -0.284 N 
ATOM     34  C   UNL     1      -0.315  -5.711   3.565  0.00  0.00    +0.226 C 
ATOM     35  O   UNL     1       0.864  -5.488   3.364  0.00  0.00    -0.275 OA
ATOM     36  H   UNL     1       0.013  -6.952   5.068  0.00  0.00    +0.155 HD
BRANCH  30  37
ATOM     37  O   UNL     1      -3.842  -8.870   7.143  0.00  0.00    -0.495 OA
ATOM     38  C   UNL     1      -5.217  -9.156   7.409  0.00  0.00    +0.277 C 
ENDBRANCH  30  37
ENDBRANCH  24  25
ENDBRANCH   1  24
TORSDOF 8
