REMARK  Name = ZINC37519105
REMARK  4 active torsions:
REMARK  status: ('A' for Active; 'I' for Inactive)
REMARK    1  A    between atoms: C_3  and  C_18
REMARK    2  A    between atoms: C_5  and  S_7
REMARK    3  A    between atoms: S_7  and  N_10
REMARK    4  A    between atoms: N_10  and  C_11
REMARK                            x       y       z     vdW  Elec       q    Type
REMARK                         _______ _______ _______ _____ _____    ______ ____
ROOT
ATOM      1  S   UNL     1       1.232  -2.441  -0.022  0.00  0.00    +0.092 S 
ATOM      2  O   UNL     1      -0.013  -2.861  -0.562  0.00  0.00    -0.148 OA
ATOM      3  O   UNL     1       2.477  -2.827  -0.588  0.00  0.00    -0.148 OA
ENDROOT
BRANCH   1   8
ATOM      4  C   UNL     1      -0.017   1.378   0.010  0.00  0.00    +0.002 A 
ATOM      5  C   UNL     1       1.171   2.085   0.002  0.00  0.00    +0.012 A 
ATOM      6  C   UNL     1       2.377   1.411  -0.013  0.00  0.00    +0.057 A 
ATOM      7  C   UNL     1       2.396   0.028  -0.020  0.00  0.00    +0.041 A 
ATOM      8  C   UNL     1       1.209  -0.679  -0.012  0.00  0.00    +0.111 A 
ATOM      9  C   UNL     1       0.002  -0.004   0.002  0.00  0.00    +0.029 A 
BRANCH   6  10
ATOM     10  C   UNL     1       3.672   2.182  -0.022  0.00  0.00    +0.417 C 
ATOM     11  F   UNL     1       3.398   3.554  -0.013  0.00  0.00    -0.166 F 
ATOM     12  F   UNL     1       4.421   1.849   1.111  0.00  0.00    -0.166 F 
ATOM     13  F   UNL     1       4.399   1.859  -1.173  0.00  0.00    -0.166 F 
ENDBRANCH   6  10
ENDBRANCH   1   8
BRANCH   1  14
ATOM     14  N   UNL     1       1.256  -2.939   1.557  0.00  0.00    -0.096 NA
BRANCH  14  15
ATOM     15  C   UNL     1       1.278  -4.306   1.859  0.00  0.00    +0.092 A 
ATOM     16  C   UNL     1       1.291  -4.736   3.186  0.00  0.00    +0.031 A 
ATOM     17  C   UNL     1       1.313  -6.095   3.438  0.00  0.00    +0.045 A 
ATOM     18  C   UNL     1       1.320  -6.983   2.368  0.00  0.00    +0.116 A 
ATOM     19  N   UNL     1       1.307  -6.540   1.121  0.00  0.00    -0.239 NA
ATOM     20  C   UNL     1       1.280  -5.250   0.844  0.00  0.00    +0.139 A 
ATOM     21  N   UNL     1       1.341  -8.355   2.611  0.00  0.00    -0.343 N 
ATOM     22  H   UNL     1       1.351  -8.686   3.523  0.00  0.00    +0.144 HD
ATOM     23  H   UNL     1       1.346  -8.979   1.868  0.00  0.00    +0.144 HD
ENDBRANCH  14  15
ENDBRANCH   1  14
TORSDOF 4
