REMARK  Name = ZINC67245958
REMARK  7 active torsions:
REMARK  status: ('A' for Active; 'I' for Inactive)
REMARK    1  A    between atoms: C_1  and  C_2
REMARK    2  A    between atoms: C_5  and  N_9
REMARK    3  A    between atoms: C_7  and  C_8
REMARK    4  A    between atoms: C_10  and  C_12
REMARK    5  A    between atoms: C_13  and  S_17
REMARK    6  A    between atoms: S_17  and  N_20
REMARK    7  A    between atoms: N_23  and  C_26
REMARK                            x       y       z     vdW  Elec       q    Type
REMARK                         _______ _______ _______ _____ _____    ______ ____
ROOT
ATOM      1  C   UNL     1       1.214  -7.904  -1.766  0.00  0.00    +0.100 A 
ATOM      2  C   UNL     1       0.234  -7.032  -2.216  0.00  0.00    +0.125 A 
ATOM      3  C   UNL     1      -0.674  -6.616  -1.271  0.00  0.00    +0.037 A 
ATOM      4  C   UNL     1      -0.557  -7.072   0.001  0.00  0.00    +0.048 A 
ATOM      5  S   UNL     1       0.783  -8.084  -0.045  0.00  0.00    -0.090 S 
ENDROOT
BRANCH   1   7
ATOM      6  N   UNL     1       3.102  -9.438  -1.915  0.00  0.00    -0.281 N 
ATOM      7  C   UNL     1       2.313  -8.523  -2.512  0.00  0.00    +0.257 C 
ATOM      8  O   UNL     1       2.514  -8.209  -3.671  0.00  0.00    -0.269 OA
ATOM      9  H   UNL     1       2.902  -9.737  -1.015  0.00  0.00    +0.155 HD
BRANCH   6  14
ATOM     10  C   UNL     1       7.590 -11.543  -4.672  0.00  0.00    +0.044 C 
ATOM     11  C   UNL     1       6.398 -10.983  -3.939  0.00  0.00    -0.047 A 
ATOM     12  C   UNL     1       5.243 -10.675  -4.635  0.00  0.00    +0.005 A 
ATOM     13  C   UNL     1       4.149 -10.163  -3.967  0.00  0.00    +0.023 A 
ATOM     14  C   UNL     1       4.208  -9.957  -2.595  0.00  0.00    +0.034 A 
ATOM     15  C   UNL     1       5.369 -10.267  -1.899  0.00  0.00    +0.027 A 
ATOM     16  C   UNL     1       6.459 -10.784  -2.573  0.00  0.00    -0.046 A 
ATOM     17  C   UNL     1       7.717 -11.127  -1.817  0.00  0.00    +0.044 C 
ENDBRANCH   6  14
ENDBRANCH   1   7
BRANCH   2  18
ATOM     18  S   UNL     1       0.158  -6.491  -3.891  0.00  0.00    +0.062 S 
ATOM     19  O   UNL     1       1.117  -5.451  -4.025  0.00  0.00    -0.153 OA
ATOM     20  O   UNL     1       0.183  -7.660  -4.697  0.00  0.00    -0.153 OA
BRANCH  18  21
ATOM     21  N   UNL     1      -1.328  -5.795  -4.113  0.00  0.00    -0.174 NA
ATOM     22  C   UNL     1      -2.502  -6.621  -4.429  0.00  0.00    +0.128 C 
ATOM     23  C   UNL     1      -3.595  -6.335  -3.392  0.00  0.00    +0.122 C 
ATOM     24  N   UNL     1      -3.764  -4.880  -3.278  0.00  0.00    -0.327 N 
ATOM     25  C   UNL     1      -2.591  -4.053  -2.962  0.00  0.00    +0.122 C 
ATOM     26  C   UNL     1      -1.498  -4.340  -3.993  0.00  0.00    +0.128 C 
BRANCH  24  27
ATOM     27  C   UNL     1      -5.018  -4.292  -3.466  0.00  0.00    +0.030 A 
ATOM     28  C   UNL     1      -6.142  -5.091  -3.636  0.00  0.00    +0.024 A 
ATOM     29  C   UNL     1      -7.380  -4.508  -3.821  0.00  0.00    +0.022 A 
ATOM     30  C   UNL     1      -7.502  -3.129  -3.837  0.00  0.00    +0.041 A 
ATOM     31  C   UNL     1      -6.384  -2.331  -3.668  0.00  0.00    +0.022 A 
ATOM     32  C   UNL     1      -5.144  -2.909  -3.477  0.00  0.00    +0.024 A 
ATOM     33 CL   UNL     1      -9.060  -2.400  -4.071  0.00  0.00    -0.084 Cl
ENDBRANCH  24  27
ENDBRANCH  18  21
ENDBRANCH   2  18
TORSDOF 5
