REMARK  Name = ZINC01114494
REMARK  4 active torsions:
REMARK  status: ('A' for Active; 'I' for Inactive)
REMARK    1  A    between atoms: C_3  and  S_19
REMARK    2  A    between atoms: C_6  and  N_7
REMARK    3  A    between atoms: C_8  and  C_10
REMARK    4  A    between atoms: S_19  and  N_22
REMARK                            x       y       z     vdW  Elec       q    Type
REMARK                         _______ _______ _______ _____ _____    ______ ____
ROOT
ATOM      1  C   UNL     1      -0.292  -3.602  -0.359  0.00  0.00    +0.025 A 
ATOM      2  C   UNL     1      -1.422  -2.810  -0.283  0.00  0.00    +0.030 A 
ATOM      3  C   UNL     1      -1.768  -1.994  -1.344  0.00  0.00    +0.106 A 
ATOM      4  C   UNL     1      -0.988  -1.970  -2.486  0.00  0.00    +0.030 A 
ATOM      5  C   UNL     1       0.145  -2.756  -2.566  0.00  0.00    +0.025 A 
ATOM      6  C   UNL     1       0.496  -3.577  -1.502  0.00  0.00    +0.034 A 
ENDROOT
BRANCH   6   7
ATOM      7  N   UNL     1       1.640  -4.377  -1.581  0.00  0.00    -0.282 N 
ATOM      8  C   UNL     1       2.719  -3.944  -2.264  0.00  0.00    +0.248 C 
ATOM      9  O   UNL     1       2.734  -2.820  -2.729  0.00  0.00    -0.270 OA
ATOM     10  H   UNL     1       1.658  -5.243  -1.145  0.00  0.00    +0.155 HD
BRANCH   8  11
ATOM     11  C   UNL     1       3.882  -4.833  -2.447  0.00  0.00    +0.041 A 
ATOM     12  C   UNL     1       3.870  -6.122  -1.908  0.00  0.00    +0.017 A 
ATOM     13  C   UNL     1       4.954  -6.953  -2.085  0.00  0.00    +0.050 A 
ATOM     14  C   UNL     1       6.067  -6.510  -2.787  0.00  0.00    +0.166 A 
ATOM     15  C   UNL     1       6.088  -5.222  -3.323  0.00  0.00    +0.167 A 
ATOM     16  C   UNL     1       5.001  -4.386  -3.154  0.00  0.00    +0.062 A 
ATOM     17  O   UNL     1       7.282  -5.034  -3.958  0.00  0.00    -0.453 OA
ATOM     18  C   UNL     1       8.150  -6.068  -3.458  0.00  0.00    +0.466 C 
ATOM     19  O   UNL     1       7.246  -7.126  -3.089  0.00  0.00    -0.453 OA
ENDBRANCH   8  11
ENDBRANCH   6   7
BRANCH   3  20
ATOM     20  S   UNL     1      -3.209  -0.985  -1.244  0.00  0.00    +0.061 S 
ATOM     21  O   UNL     1      -4.069  -1.600  -0.294  0.00  0.00    -0.153 OA
ATOM     22  O   UNL     1      -3.615  -0.723  -2.580  0.00  0.00    -0.153 OA
BRANCH  20  23
ATOM     23  N   UNL     1      -2.747   0.467  -0.595  0.00  0.00    -0.177 NA
ATOM     24  C   UNL     1      -2.319   1.540  -1.444  0.00  0.00    +0.109 C 
ATOM     25  C   UNL     1      -0.810   1.573  -1.792  0.00  0.00    +0.017 C 
ATOM     26  C   UNL     1       0.034   1.230  -0.539  0.00  0.00    +0.001 C 
ATOM     27  C   UNL     1      -0.561   1.853   0.690  0.00  0.00    +0.001 C 
ATOM     28  C   UNL     1      -1.382   0.749   1.347  0.00  0.00    +0.017 C 
ATOM     29  C   UNL     1      -2.770   0.680   0.891  0.00  0.00    +0.109 C 
ENDBRANCH  20  23
ENDBRANCH   3  20
TORSDOF 4
