REMARK  Name = ZINC22985064
REMARK  4 active torsions:
REMARK  status: ('A' for Active; 'I' for Inactive)
REMARK    1  A    between atoms: C_1  and  C_2
REMARK    2  A    between atoms: N_13  and  C_16
REMARK    3  A    between atoms: C_16  and  C_17
REMARK    4  A    between atoms: N_22  and  C_23
REMARK                            x       y       z     vdW  Elec       q    Type
REMARK                         _______ _______ _______ _____ _____    ______ ____
ROOT
ATOM      1  C   UNL     1      -5.571  -0.717   0.436  0.00  0.00    +0.240 C 
ATOM      2  O   UNL     1      -5.161  -0.943  -0.682  0.00  0.00    -0.273 OA
ATOM      3  N   UNL     1      -6.850  -0.335   0.621  0.00  0.00    -0.239 N 
ATOM      4  C   UNL     1      -7.674  -0.204  -0.438  0.00  0.00    +0.306 C 
ATOM      5  O   UNL     1      -7.263  -0.431  -1.559  0.00  0.00    -0.252 OA
ATOM      6  N   UNL     1      -8.953   0.177  -0.254  0.00  0.00    -0.294 N 
ATOM      7  H   UNL     1      -7.222  -0.129   1.635  0.00  0.00    +0.159 HD
ATOM      8  H   UNL     1      -9.325   0.383   0.761  0.00  0.00    +0.151 HD
ENDROOT
BRANCH   6   9
ATOM      9  C   UNL     1      -9.849   0.319  -1.404  0.00  0.00    +0.037 C 
ATOM     10  C   UNL     1      -9.284   1.369  -2.364  0.00  0.00    +0.029 C 
ATOM     11  C   UNL     1     -10.220   1.516  -3.566  0.00  0.00    -0.008 C 
ATOM     12  C   UNL     1     -11.603   1.957  -3.084  0.00  0.00    +0.007 C 
ATOM     13  C   UNL     1     -12.168   0.907  -2.124  0.00  0.00    -0.008 C 
ATOM     14  C   UNL     1     -11.232   0.760  -0.923  0.00  0.00    +0.029 C 
ATOM     15  C   UNL     1     -12.284  -0.435  -2.849  0.00  0.00    +0.007 C 
ATOM     16  C   UNL     1     -10.900  -0.876  -3.330  0.00  0.00    -0.008 C 
ATOM     17  C   UNL     1     -10.335   0.174  -4.290  0.00  0.00    +0.007 C 
ATOM     18  C   UNL     1      -9.965  -1.024  -2.128  0.00  0.00    +0.029 C 
ENDBRANCH   6   9
BRANCH   1  19
ATOM     19  C   UNL     1      -4.650  -0.862   1.620  0.00  0.00    +0.222 C 
BRANCH  19  31
ATOM     20  C   UNL     1       3.546   2.093  -1.322  0.00  0.00    +0.008 C 
ATOM     21  C   UNL     1       2.194   1.398  -1.157  0.00  0.00    -0.009 C 
ATOM     22  C   UNL     1       1.421   2.037  -0.001  0.00  0.00    +0.008 C 
ATOM     23  C   UNL     1      -0.019   1.522   0.010  0.00  0.00    +0.037 C 
ATOM     24  C   UNL     1       0.002  -0.004   0.002  0.00  0.00    -0.023 A 
ATOM     25  C   UNL     1       1.113  -0.674  -0.386  0.00  0.00    -0.004 A 
ATOM     26  S   UNL     1       0.692  -2.393  -0.240  0.00  0.00    -0.073 S 
ATOM     27  C   UNL     1      -0.965  -2.210   0.338  0.00  0.00    +0.116 A 
ATOM     28  C   UNL     1      -1.139  -0.809   0.399  0.00  0.00    +0.076 A 
ATOM     29  C   UNL     1      -2.417  -0.330   0.843  0.00  0.00    +0.263 A 
ATOM     30  O   UNL     1      -2.669   0.859   0.931  0.00  0.00    -0.267 OA
ATOM     31  N   UNL     1      -3.325  -1.284   1.159  0.00  0.00    -0.290 N 
ATOM     32  C   UNL     1      -3.065  -2.611   1.068  0.00  0.00    +0.203 A 
ATOM     33  N   UNL     1      -1.908  -3.088   0.665  0.00  0.00    -0.230 NA
ATOM     34  C   UNL     1       2.414  -0.088  -0.839  0.00  0.00    +0.046 C 
ENDBRANCH  19  31
ENDBRANCH   1  19
TORSDOF 3
