REMARK  Name = ZINC49337673
REMARK  4 active torsions:
REMARK  status: ('A' for Active; 'I' for Inactive)
REMARK    1  A    between atoms: C_1  and  C_2
REMARK    2  A    between atoms: N_7  and  C_8
REMARK    3  A    between atoms: N_10  and  C_11
REMARK    4  A    between atoms: C_11  and  C_12
REMARK                            x       y       z     vdW  Elec       q    Type
REMARK                         _______ _______ _______ _____ _____    ______ ____
ROOT
ATOM      1  C   UNL     1       0.256  -4.858  -0.027  0.00  0.00    +0.326 C 
ATOM      2  O   UNL     1      -0.952  -4.691  -0.021  0.00  0.00    -0.251 OA
ATOM      3  N   UNL     1       0.763  -6.107  -0.036  0.00  0.00    -0.294 N 
ATOM      4  H   UNL     1       1.724  -6.240  -0.041  0.00  0.00    +0.151 HD
ENDROOT
BRANCH   1  11
ATOM      5  C   UNL     1      -0.018   1.503   0.010  0.00  0.00    +0.053 C 
ATOM      6  C   UNL     1       0.002  -0.004   0.002  0.00  0.00    +0.006 A 
ATOM      7  C   UNL     1      -1.025  -0.859   0.002  0.00  0.00    +0.095 A 
ATOM      8  N   UNL     1      -0.732  -2.188  -0.007  0.00  0.00    -0.342 N 
ATOM      9  H   UNL     1      -1.440  -2.851  -0.008  0.00  0.00    +0.167 HD
ATOM     10  C   UNL     1       0.575  -2.571  -0.014  0.00  0.00    +0.165 A 
ATOM     11  N   UNL     1       1.076  -3.804  -0.024  0.00  0.00    -0.139 NA
ATOM     12  S   UNL     1       1.403  -1.107  -0.018  0.00  0.00    -0.058 S 
ENDBRANCH   1  11
BRANCH   3  13
ATOM     13  C   UNL     1      -0.137  -7.263  -0.040  0.00  0.00    +0.142 C 
BRANCH  13  14
ATOM     14  C   UNL     1       0.675  -8.532  -0.051  0.00  0.00    -0.012 A 
ATOM     15  C   UNL     1       0.873  -9.216  -1.236  0.00  0.00    +0.008 A 
ATOM     16  C   UNL     1       1.618 -10.380  -1.246  0.00  0.00    +0.016 A 
ATOM     17  C   UNL     1       2.167 -10.861  -0.071  0.00  0.00    +0.019 A 
ATOM     18  C   UNL     1       1.970 -10.177   1.115  0.00  0.00    +0.035 A 
ATOM     19  C   UNL     1       1.228  -9.009   1.124  0.00  0.00    +0.047 A 
ATOM     20 CL   UNL     1       0.986  -8.147   2.611  0.00  0.00    -0.083 Cl
ATOM     21 BR   UNL     1       3.185 -12.454  -0.086  0.00  0.00    -0.050 Br
ENDBRANCH  13  14
ENDBRANCH   3  13
TORSDOF 3
