REMARK  Name = ZINC22055376
REMARK  15 active torsions:
REMARK  status: ('A' for Active; 'I' for Inactive)
REMARK    1  A    between atoms: C_1  and  C_2
REMARK    2  A    between atoms: C_5  and  C_30
REMARK    3  A    between atoms: C_10  and  C_29
REMARK    4  A    between atoms: C_13  and  N_28
REMARK    5  A    between atoms: C_14  and  C_17
REMARK    6  A    between atoms: N_19  and  CA_20
REMARK    7  A    between atoms: CA_20  and  C_22
REMARK    8  A    between atoms: CA_20  and  CB_24
REMARK    9  A    between atoms: CB_24  and  CG2_26
REMARK   10  A    between atoms: CB_24  and  OG1_27
REMARK   11  A    between atoms: N_32  and  CA_33
REMARK   12  A    between atoms: CA_33  and  C_35
REMARK   13  A    between atoms: CA_33  and  CB_37
REMARK   14  A    between atoms: CB_37  and  CG2_39
REMARK   15  A    between atoms: CB_37  and  OG1_40
REMARK                            x       y       z     vdW  Elec       q    Type
REMARK                         _______ _______ _______ _____ _____    ______ ____
ROOT
ATOM      1  C   UNK A   0      -2.596   3.838   0.046  0.00  0.00    +0.047 C 
ATOM      2  C   UNK A   0      -1.266   3.128   0.030  0.00  0.00    -0.006 A 
ATOM      3  C   UNK A   0      -1.226   1.750   0.017  0.00  0.00    +0.008 A 
ATOM      4  C   UNK A   0      -0.013   1.076   0.008  0.00  0.00    +0.015 A 
ATOM      5  C   UNK A   0       1.182   1.782   0.000  0.00  0.00    +0.066 A 
ATOM      6  C   UNK A   0       1.155   3.201   0.008  0.00  0.00    +0.119 A 
ATOM      7  C   UNK A   0      -0.087   3.867   0.023  0.00  0.00    +0.157 A 
ATOM      8  O   UNK A   0      -0.140   5.218   0.030  0.00  0.00    -0.451 OA
ATOM      9  C   UNK A   0       1.009   5.925   0.022  0.00  0.00    +0.161 A 
ATOM     10  C   UNK A   0       0.988   7.300   0.029  0.00  0.00    +0.042 A 
ATOM     11  C   UNK A   0       2.179   8.036   0.022  0.00  0.00    +0.207 A 
ATOM     12  O   UNK A   0       2.133   9.256   0.028  0.00  0.00    -0.286 OA
ATOM     13  C   UNK A   0       3.486   7.358   0.006  0.00  0.00    +0.087 A 
ATOM     14  C   UNK A   0       3.547   5.973  -0.001  0.00  0.00    +0.090 A 
ATOM     15  C   UNK A   0       2.292   5.207   0.007  0.00  0.00    +0.121 A 
ATOM     16  N   UNK A   0       2.305   3.888   0.000  0.00  0.00    -0.239 NA
ATOM     17  C   UNK A   0      -0.333   8.024   0.045  0.00  0.00    +0.052 C 
ENDROOT
BRANCH  14  18
ATOM     18  C   UNK A   0       4.845   5.281  -0.016  0.00  0.00    +0.249 C 
ATOM     19  O   UNK A   0       5.372   5.000  -1.076  0.00  0.00    -0.270 OA
ATOM     20  N   THR A   1       5.451   4.958   1.144  0.00  0.00    -0.299 N 
ATOM     21  H   THR A   1       4.974   5.212   2.102  0.00  0.00    +0.150 HD
BRANCH  20  22
ATOM     22  CA  THR A   1       6.744   4.270   1.128  0.00  0.00    +0.164 C 
BRANCH  22  23
ATOM     23  C   THR A   1       6.520   2.785   0.999  0.00  0.00    +0.248 C 
ATOM     24  O   THR A   1       5.397   2.347   0.927  0.00  0.00    -0.299 OA
ENDBRANCH  22  23
BRANCH  22  25
ATOM     25  CB  THR A   1       7.492   4.561   2.430  0.00  0.00    +0.139 C 
ATOM     26  CG2 THR A   1       7.610   6.075   2.623  0.00  0.00    +0.040 C 
BRANCH  25  27
ATOM     27  OG1 THR A   1       6.776   3.995   3.529  0.00  0.00    -0.390 OA
ATOM     28  HG1 THR A   1       7.163   4.103   4.553  0.00  0.00    +0.210 HD
ENDBRANCH  25  27
ENDBRANCH  22  25
ENDBRANCH  20  22
ENDBRANCH  14  18
BRANCH   5  29
ATOM     29  C   UNK A   0       2.471   1.063  -0.016  0.00  0.00    +0.247 C 
ATOM     30  O   UNK A   0       3.514   1.686  -0.022  0.00  0.00    -0.270 OA
ATOM     31  N   THR A   1       2.490  -0.285  -0.023  0.00  0.00    -0.299 N 
ATOM     32  H   THR A   1       1.546  -0.848  -0.017  0.00  0.00    +0.150 HD
BRANCH  31  33
ATOM     33  CA  THR A   1       3.769  -0.999  -0.039  0.00  0.00    +0.164 C 
BRANCH  33  34
ATOM     34  C   THR A   1       4.255  -1.128  -1.460  0.00  0.00    +0.248 C 
ATOM     35  O   THR A   1       3.600  -0.670  -2.366  0.00  0.00    -0.299 OA
ENDBRANCH  33  34
BRANCH  33  36
ATOM     36  CB  THR A   1       3.583  -2.392   0.565  0.00  0.00    +0.139 C 
ATOM     37  CG2 THR A   1       2.973  -2.265   1.962  0.00  0.00    +0.040 C 
BRANCH  36  38
ATOM     38  OG1 THR A   1       2.712  -3.159  -0.268  0.00  0.00    -0.390 OA
ATOM     39  HG1 THR A   1       2.459  -4.194   0.007  0.00  0.00    +0.210 HD
ENDBRANCH  36  38
ENDBRANCH  33  36
ENDBRANCH  31  33
ENDBRANCH   5  29
BRANCH  13  40
ATOM     40  N   UNK A   0       4.646   8.098  -0.000  0.00  0.00    -0.354 N 
ATOM     41  H   UNK A   0       5.623   7.591  -0.012  0.00  0.00    +0.142 HD
ATOM     42  H   UNK A   0       4.598   9.197   0.006  0.00  0.00    +0.142 HD
ENDBRANCH  13  40
TORSDOF 11
