REMARK  Name = ZINC35359532
REMARK  3 active torsions:
REMARK  status: ('A' for Active; 'I' for Inactive)
REMARK    1  A    between atoms: C_6  and  C_7
REMARK    2  A    between atoms: C_7  and  C_9
REMARK    3  A    between atoms: C_7  and  N_20
REMARK                            x       y       z     vdW  Elec       q    Type
REMARK                         _______ _______ _______ _____ _____    ______ ____
ROOT
ATOM      1  C   UNL     1      -1.595  -1.259  -1.388  0.00  0.00    -0.039 A 
ATOM      2  C   UNL     1      -1.306  -2.558  -1.768  0.00  0.00    +0.009 A 
ATOM      3  C   UNL     1      -1.593  -2.980  -3.046  0.00  0.00    -0.017 A 
ATOM      4  C   UNL     1      -2.172  -2.116  -3.968  0.00  0.00    +0.038 A 
ATOM      5  C   UNL     1      -2.459  -0.809  -3.580  0.00  0.00    +0.043 A 
ATOM      6  C   UNL     1      -2.176  -0.390  -2.295  0.00  0.00    +0.045 A 
ATOM      7 CL   UNL     1      -2.544   1.238  -1.817  0.00  0.00    -0.083 Cl
ATOM      8  N   UNL     1      -2.366  -2.769  -5.186  0.00  0.00    -0.285 N 
ATOM      9  C   UNL     1      -1.948  -4.046  -5.150  0.00  0.00    +0.222 C 
ATOM     10  O   UNL     1      -1.995  -4.845  -6.061  0.00  0.00    -0.275 OA
ATOM     11  C   UNL     1      -1.409  -4.300  -3.758  0.00  0.00    +0.133 C 
ATOM     12  H   UNL     1      -2.757  -2.350  -5.968  0.00  0.00    +0.155 HD
ENDROOT
BRANCH   1  13
ATOM     13  C   UNL     1      -1.282  -0.793   0.011  0.00  0.00    -0.012 C 
BRANCH  13  19
ATOM     14  C   UNL     1      -0.017   1.382   0.010  0.00  0.00    +0.022 A 
ATOM     15  C   UNL     1       1.181   2.072   0.002  0.00  0.00    +0.111 A 
ATOM     16  N   UNL     1       2.331   1.427  -0.013  0.00  0.00    -0.263 NA
ATOM     17  C   UNL     1       2.387   0.109  -0.021  0.00  0.00    +0.111 A 
ATOM     18  C   UNL     1       1.230  -0.647  -0.013  0.00  0.00    +0.022 A 
ATOM     19  C   UNL     1       0.002  -0.004   0.002  0.00  0.00    -0.055 A 
ENDBRANCH  13  19
BRANCH  13  20
ATOM     20  N   UNL     1      -1.135  -1.958   0.893  0.00  0.00    +0.385 N 
ATOM     21  H   UNL     1      -1.994  -2.486   0.899  0.00  0.00    -0.089 HD
ATOM     22  H   UNL     1      -0.384  -2.542   0.557  0.00  0.00    -0.089 HD
ATOM     23  H   UNL     1      -0.925  -1.646   1.830  0.00  0.00    -0.089 HD
ENDBRANCH  13  20
ENDBRANCH   1  13
TORSDOF 3
