REMARK  Name = ZINC63805062
REMARK  4 active torsions:
REMARK  status: ('A' for Active; 'I' for Inactive)
REMARK    1  A    between atoms: C_4  and  C_7
REMARK    2  A    between atoms: C_7  and  N_8
REMARK    3  A    between atoms: C_28  and  C_30
REMARK    4  A    between atoms: C_33  and  N_36
REMARK                            x       y       z     vdW  Elec       q    Type
REMARK                         _______ _______ _______ _____ _____    ______ ____
ROOT
ATOM      1  N   UNL     1       4.152  -0.952   1.338  0.00  0.00    -0.287 N 
ATOM      2  C   UNL     1       4.992   0.016   2.066  0.00  0.00    +0.204 C 
ATOM      3  C   UNL     1       6.115  -0.738   2.747  0.00  0.00    +0.234 C 
ATOM      4  O   UNL     1       7.257  -0.331   2.725  0.00  0.00    -0.274 OA
ATOM      5  N   UNL     1       5.778  -1.904   3.391  0.00  0.00    -0.279 N 
ATOM      6  C   UNL     1       4.366  -2.222   3.403  0.00  0.00    +0.167 C 
ATOM      7  C   UNL     1       3.800  -2.087   2.012  0.00  0.00    +0.237 C 
ATOM      8  O   UNL     1       3.081  -2.933   1.522  0.00  0.00    -0.274 OA
ATOM      9  C   UNL     1       3.925  -3.493   4.081  0.00  0.00    +0.065 C 
ATOM     10  C   UNL     1       5.127  -4.325   4.437  0.00  0.00    -0.034 C 
ATOM     11  C   UNL     1       5.357  -5.629   4.367  0.00  0.00    -0.001 A 
ATOM     12  C   UNL     1       4.503  -6.755   3.955  0.00  0.00    +0.010 A 
ATOM     13  C   UNL     1       5.073  -7.987   3.998  0.00  0.00    +0.001 A 
ATOM     14  C   UNL     1       6.392  -8.211   4.406  0.00  0.00    +0.002 A 
ATOM     15  C   UNL     1       7.247  -7.236   4.805  0.00  0.00    +0.026 A 
ATOM     16  C   UNL     1       6.761  -5.896   4.805  0.00  0.00    +0.043 A 
ATOM     17  N   UNL     1       7.350  -4.789   5.144  0.00  0.00    -0.375 N 
ATOM     18  C   UNL     1       6.397  -3.683   4.991  0.00  0.00    +0.131 C 
ATOM     19  C   UNL     1       6.871  -2.697   3.935  0.00  0.00    +0.133 C 
ATOM     20  H   UNL     1       8.268  -4.707   5.446  0.00  0.00    +0.160 HD
ENDROOT
BRANCH  19  21
ATOM     21  C   UNL     1       7.907  -1.771   4.517  0.00  0.00    -0.025 A 
ATOM     22  C   UNL     1       7.513  -0.654   5.229  0.00  0.00    +0.008 A 
ATOM     23  C   UNL     1       8.464   0.196   5.764  0.00  0.00    +0.033 A 
ATOM     24  C   UNL     1       9.809  -0.072   5.587  0.00  0.00    +0.126 A 
ATOM     25  C   UNL     1      10.202  -1.190   4.875  0.00  0.00    +0.033 A 
ATOM     26  C   UNL     1       9.252  -2.042   4.345  0.00  0.00    +0.008 A 
BRANCH  24  27
ATOM     27  N   UNL     1      10.826   0.838   6.158  0.00  0.00    +0.056 N 
ATOM     28  O   UNL     1      10.482   1.816   6.780  0.00  0.00    -0.126 OA
ATOM     29  O   UNL     1      12.002   0.603   6.003  0.00  0.00    -0.126 OA
ENDBRANCH  24  27
ENDBRANCH  19  21
BRANCH   1  30
ATOM     30  C   UNL     1       3.711  -0.707  -0.038  0.00  0.00    +0.143 C 
BRANCH  30  34
ATOM     31  C   UNL     1      -0.017   1.378   0.010  0.00  0.00    +0.000 A 
ATOM     32  C   UNL     1       1.171   2.086   0.002  0.00  0.00    +0.000 A 
ATOM     33  C   UNL     1       2.377   1.411  -0.013  0.00  0.00    +0.005 A 
ATOM     34  C   UNL     1       2.396   0.029  -0.020  0.00  0.00    -0.030 A 
ATOM     35  C   UNL     1       1.208  -0.679  -0.012  0.00  0.00    +0.005 A 
ATOM     36  C   UNL     1       0.002  -0.004   0.002  0.00  0.00    +0.000 A 
ENDBRANCH  30  34
ENDBRANCH   1  30
TORSDOF 4
