REMARK  Name = ZINC40761371
REMARK  8 active torsions:
REMARK  status: ('A' for Active; 'I' for Inactive)
REMARK    1  A    between atoms: C_3  and  C_6
REMARK    2  A    between atoms: C_6  and  N_7
REMARK    3  A    between atoms: C_9  and  N_28
REMARK    4  A    between atoms: C_10  and  N_14
REMARK    5  A    between atoms: N_14  and  N_15
REMARK    6  A    between atoms: C_16  and  C_18
REMARK    7  A    between atoms: C_18  and  O_19
REMARK    8  A    between atoms: O_19  and  C_20
REMARK                            x       y       z     vdW  Elec       q    Type
REMARK                         _______ _______ _______ _____ _____    ______ ____
ROOT
ATOM      1  N   UNL     1       4.101   0.607   1.347  0.00  0.00    -0.320 N 
ATOM      2  C   UNL     1       5.469   0.574   1.587  0.00  0.00    +0.145 A 
ATOM      3  C   UNL     1       5.959   0.550   2.894  0.00  0.00    +0.107 A 
ATOM      4  C   UNL     1       7.342   0.517   3.079  0.00  0.00    +0.161 A 
ATOM      5  N   UNL     1       8.135   0.509   2.011  0.00  0.00    -0.217 NA
ATOM      6  C   UNL     1       7.632   0.532   0.793  0.00  0.00    +0.225 A 
ATOM      7  N   UNL     1       6.333   0.558   0.575  0.00  0.00    -0.219 NA
ATOM      8  H   UNL     1       3.478   0.617   2.090  0.00  0.00    +0.148 HD
ENDROOT
BRANCH   3   9
ATOM      9  N   UNL     1       5.084   0.560   3.993  0.00  0.00    -0.353 N 
ATOM     10  H   UNL     1       4.125   0.583   3.849  0.00  0.00    +0.143 HD
ATOM     11  H   UNL     1       5.439   0.543   4.896  0.00  0.00    +0.143 HD
ENDBRANCH   3   9
BRANCH   4  12
ATOM     12  N   UNL     1       7.882   0.492   4.360  0.00  0.00    -0.247 N 
ATOM     13  H   UNL     1       7.297   0.499   5.133  0.00  0.00    +0.172 HD
BRANCH  12  14
ATOM     14  N   UNL     1       9.272   0.459   4.533  0.00  0.00    -0.232 N 
ATOM     15  C   UNL     1       9.796   0.436   5.775  0.00  0.00    +0.267 C 
ATOM     16  O   UNL     1       9.064   0.444   6.742  0.00  0.00    -0.271 OA
ATOM     17  H   UNL     1       9.857   0.453   3.760  0.00  0.00    +0.173 HD
BRANCH  15  18
ATOM     18  C   UNL     1      11.291   0.400   5.961  0.00  0.00    +0.326 C 
BRANCH  18  19
ATOM     19  O   UNL     1      11.596   0.380   7.357  0.00  0.00    -0.481 OA
BRANCH  19  20
ATOM     20  C   UNL     1      12.911   0.347   7.700  0.00  0.00    +0.140 A 
ATOM     21  C   UNL     1      13.887   0.340   6.714  0.00  0.00    +0.048 A 
ATOM     22  C   UNL     1      15.223   0.306   7.065  0.00  0.00    +0.023 A 
ATOM     23  C   UNL     1      15.588   0.279   8.399  0.00  0.00    +0.043 A 
ATOM     24  C   UNL     1      14.618   0.287   9.385  0.00  0.00    +0.043 A 
ATOM     25  C   UNL     1      13.280   0.326   9.039  0.00  0.00    +0.084 A 
ATOM     26 CL   UNL     1      12.062   0.343  10.275  0.00  0.00    -0.080 Cl
ATOM     27 CL   UNL     1      17.268   0.236   8.837  0.00  0.00    -0.083 Cl
ENDBRANCH  19  20
ENDBRANCH  18  19
ENDBRANCH  15  18
ENDBRANCH  12  14
ENDBRANCH   4  12
BRANCH   1  28
ATOM     28  C   UNL     1       3.599   0.625  -0.029  0.00  0.00    +0.177 C 
BRANCH  28  31
ATOM     29  C   UNL     1      -0.016   1.341   0.009  0.00  0.00    +0.041 A 
ATOM     30  C   UNL     1       1.331   1.769  -0.001  0.00  0.00    +0.046 A 
ATOM     31  C   UNL     1       2.092   0.660  -0.014  0.00  0.00    +0.122 A 
ATOM     32  O   UNL     1       1.282  -0.411  -0.012  0.00  0.00    -0.466 OA
ATOM     33  C   UNL     1       0.002  -0.004   0.002  0.00  0.00    +0.195 A 
ENDBRANCH  28  31
ENDBRANCH   1  28
TORSDOF 8
