REMARK  Name = ZINC43742903
REMARK  17 active torsions:
REMARK  status: ('A' for Active; 'I' for Inactive)
REMARK    1  A    between atoms: C_1  and  C_2
REMARK    2  A    between atoms: C_11  and  O_22
REMARK    3  A    between atoms: C_12  and  C_21
REMARK    4  A    between atoms: C_14  and  O_20
REMARK    5  A    between atoms: C_16  and  O_19
REMARK    6  A    between atoms: C_23  and  O_40
REMARK    7  A    between atoms: C_26  and  C_28
REMARK    8  A    between atoms: C_28  and  C_29
REMARK    9  A    between atoms: C_28  and  C_30
REMARK   10  A    between atoms: C_28  and  O_39
REMARK   11  A    between atoms: C_30  and  C_32
REMARK   12  A    between atoms: C_30  and  O_38
REMARK   13  A    between atoms: C_32  and  C_33
REMARK   14  A    between atoms: C_33  and  C_34
REMARK   15  A    between atoms: C_34  and  C_35
REMARK   16  A    between atoms: C_34  and  C_36
REMARK   17  A    between atoms: C_34  and  O_37
REMARK                            x       y       z     vdW  Elec       q    Type
REMARK                         _______ _______ _______ _____ _____    ______ ____
ROOT
ATOM      1  C   UNL     1       0.458   3.427   0.890  0.00  0.00    +0.015 C 
ATOM      2  C   UNL     1       0.783   1.932   0.836  0.00  0.00    +0.006 C 
ATOM      3  C   UNL     1       1.750   1.657  -0.299  0.00  0.00    +0.011 C 
ATOM      4  C   UNL     1       2.837   2.735  -0.233  0.00  0.00    +0.009 C 
ATOM      5  C   UNL     1       3.408   2.977   1.133  0.00  0.00    +0.027 C 
ATOM      6  C   UNL     1       2.685   2.387   2.311  0.00  0.00    -0.031 C 
ATOM      7  C   UNL     1       3.177   2.690   3.531  0.00  0.00    +0.051 C 
ATOM      8  C   UNL     1       4.380   3.552   3.502  0.00  0.00    +0.188 C 
ATOM      9  O   UNL     1       4.496   4.487   4.266  0.00  0.00    -0.290 OA
ATOM     10  C   UNL     1       5.454   3.235   2.499  0.00  0.00    +0.136 C 
ATOM     11  C   UNL     1       4.891   2.603   1.244  0.00  0.00    +0.013 C 
ATOM     12  C   UNL     1       5.018   1.097   1.166  0.00  0.00    +0.044 C 
ATOM     13  C   UNL     1       6.332   0.551   1.664  0.00  0.00    +0.144 C 
ATOM     14  C   UNL     1       6.712   1.075   3.031  0.00  0.00    +0.146 C 
ATOM     15  C   UNL     1       6.677   2.621   3.096  0.00  0.00    +0.077 C 
ATOM     16  C   UNL     1       5.630   3.202   0.046  0.00  0.00    +0.015 C 
ATOM     17  C   UNL     1       1.515   1.503   2.137  0.00  0.00    +0.093 C 
ATOM     18  C   UNL     1       0.384   1.568   3.163  0.00  0.00    +0.040 C 
ATOM     19  C   UNL     1      -0.811   0.937   2.394  0.00  0.00    +0.010 C 
ATOM     20  C   UNL     1      -0.505   1.122   0.885  0.00  0.00    +0.032 C 
ENDROOT
BRANCH  14  21
ATOM     21  O   UNL     1       8.036   0.639   3.341  0.00  0.00    -0.389 OA
ATOM     22  H   UNL     1       8.140  -0.322   3.360  0.00  0.00    +0.210 HD
ENDBRANCH  14  21
BRANCH  13  23
ATOM     23  O   UNL     1       7.359   0.908   0.736  0.00  0.00    -0.389 OA
ATOM     24  H   UNL     1       8.239   0.593   0.984  0.00  0.00    +0.210 HD
ENDBRANCH  13  23
BRANCH  10  25
ATOM     25  O   UNL     1       5.895   4.524   2.070  0.00  0.00    -0.380 OA
ATOM     26  H   UNL     1       6.248   5.076   2.781  0.00  0.00    +0.211 HD
ENDBRANCH  10  25
BRANCH  20  27
ATOM     27  C   UNL     1      -1.641   1.887   0.203  0.00  0.00    +0.092 C 
ATOM     28  C   UNL     1      -1.267   2.162  -1.255  0.00  0.00    +0.044 C 
BRANCH  27  29
ATOM     29  O   UNL     1      -2.837   1.106   0.249  0.00  0.00    -0.386 OA
ATOM     30  H   UNL     1      -3.134   0.894   1.145  0.00  0.00    +0.210 HD
ENDBRANCH  27  29
BRANCH  27  31
ATOM     31  C   UNL     1      -1.870   3.214   0.929  0.00  0.00    +0.146 C 
BRANCH  31  32
ATOM     32  O   UNL     1      -1.795   3.004   2.340  0.00  0.00    -0.389 OA
ATOM     33  H   UNL     1      -2.598   2.628   2.725  0.00  0.00    +0.210 HD
ENDBRANCH  31  32
BRANCH  31  34
ATOM     34  C   UNL     1      -3.252   3.761   0.568  0.00  0.00    +0.037 C 
BRANCH  34  35
ATOM     35  C   UNL     1      -3.432   5.146   1.194  0.00  0.00    +0.037 C 
BRANCH  35  36
ATOM     36  C   UNL     1      -4.814   5.693   0.833  0.00  0.00    +0.061 C 
ATOM     37  C   UNL     1      -4.947   7.126   1.352  0.00  0.00    +0.041 C 
ATOM     38  C   UNL     1      -4.985   5.684  -0.688  0.00  0.00    +0.041 C 
BRANCH  36  39
ATOM     39  O   UNL     1      -5.822   4.875   1.430  0.00  0.00    -0.389 OA
ATOM     40  H   UNL     1      -5.774   4.834   2.395  0.00  0.00    +0.210 HD
ENDBRANCH  36  39
ENDBRANCH  35  36
ENDBRANCH  34  35
ENDBRANCH  31  34
ENDBRANCH  27  31
ENDBRANCH  20  27
BRANCH  17  41
ATOM     41  O   UNL     1       1.965   0.153   2.012  0.00  0.00    -0.384 OA
ATOM     42  H   UNL     1       2.432  -0.180   2.791  0.00  0.00    +0.211 HD
ENDBRANCH  17  41
TORSDOF 12
