REMARK  Name = ZINC45480962
REMARK  8 active torsions:
REMARK  status: ('A' for Active; 'I' for Inactive)
REMARK    1  A    between atoms: C_1  and  C_2
REMARK    2  A    between atoms: C_2  and  C_4
REMARK    3  A    between atoms: C_2  and  S_18
REMARK    4  A    between atoms: N_6  and  C_7
REMARK    5  A    between atoms: C_12  and  C_13
REMARK    6  A    between atoms: S_18  and  C_19
REMARK    7  A    between atoms: C_22  and  C_25
REMARK    8  A    between atoms: N_23  and  C_24
REMARK                            x       y       z     vdW  Elec       q    Type
REMARK                         _______ _______ _______ _____ _____    ______ ____
ROOT
ATOM      1  C   UNL     1      -0.015   1.540   0.028  0.00  0.00    +0.029 C 
ATOM      2  C   UNL     1       0.003   0.010   0.007  0.00  0.00    +0.137 C 
ENDROOT
BRANCH   2   3
ATOM      3  C   UNL     1       0.731  -0.500   1.224  0.00  0.00    +0.230 C 
ATOM      4  O   UNL     1       0.105  -0.894   2.185  0.00  0.00    -0.274 OA
ATOM      5  N   UNL     1       2.079  -0.519   1.244  0.00  0.00    -0.284 N 
ATOM      6  H   UNL     1       2.579  -0.280   0.448  0.00  0.00    +0.155 HD
BRANCH   5   7
ATOM      7  C   UNL     1       2.756  -0.883   2.413  0.00  0.00    +0.045 A 
ATOM      8  C   UNL     1       2.143  -0.727   3.650  0.00  0.00    +0.025 A 
ATOM      9  C   UNL     1       2.813  -1.087   4.802  0.00  0.00    +0.022 A 
ATOM     10  C   UNL     1       4.096  -1.602   4.726  0.00  0.00    +0.042 A 
ATOM     11  C   UNL     1       4.709  -1.758   3.495  0.00  0.00    +0.034 A 
ATOM     12  C   UNL     1       4.040  -1.405   2.339  0.00  0.00    +0.077 A 
ATOM     13 CL   UNL     1       4.937  -2.052   6.176  0.00  0.00    -0.084 Cl
BRANCH  12  14
ATOM     14  C   UNL     1       4.707  -1.581   0.999  0.00  0.00    +0.419 C 
ATOM     15  F   UNL     1       5.985  -2.120   1.181  0.00  0.00    -0.166 F 
ATOM     16  F   UNL     1       3.943  -2.447   0.209  0.00  0.00    -0.166 F 
ATOM     17  F   UNL     1       4.810  -0.339   0.363  0.00  0.00    -0.166 F 
ENDBRANCH  12  14
ENDBRANCH   5   7
ENDBRANCH   2   3
BRANCH   2  18
ATOM     18  S   UNL     1      -1.701  -0.614   0.017  0.00  0.00    -0.074 S 
BRANCH  18  19
ATOM     19  C   UNL     1      -2.365  -0.062  -1.519  0.00  0.00    +0.192 A 
ATOM     20  N   UNL     1      -1.736   0.635  -2.437  0.00  0.00    -0.122 NA
ATOM     21  N   UNL     1      -2.522   0.863  -3.428  0.00  0.00    -0.130 NA
ATOM     22  C   UNL     1      -3.690   0.331  -3.203  0.00  0.00    +0.178 A 
ATOM     23  N   UNL     1      -3.631  -0.282  -1.982  0.00  0.00    -0.306 N 
ATOM     24  C   UNL     1      -4.703  -1.020  -1.310  0.00  0.00    +0.153 C 
BRANCH  22  25
ATOM     25  C   UNL     1      -4.884   0.377  -4.122  0.00  0.00    +0.278 C 
ATOM     26  C   UNL     1      -5.508   1.778  -4.089  0.00  0.00    +0.281 C 
ATOM     27  O   UNL     1      -6.628   1.791  -4.981  0.00  0.00    -0.484 OA
ATOM     28  C   UNL     1      -6.436   1.242  -6.211  0.00  0.00    +0.162 A 
ATOM     29  C   UNL     1      -7.327   1.533  -7.234  0.00  0.00    +0.049 A 
ATOM     30  C   UNL     1      -7.147   0.980  -8.488  0.00  0.00    +0.004 A 
ATOM     31  C   UNL     1      -6.079   0.135  -8.726  0.00  0.00    +0.004 A 
ATOM     32  C   UNL     1      -5.187  -0.159  -7.712  0.00  0.00    +0.049 A 
ATOM     33  C   UNL     1      -5.361   0.394  -6.452  0.00  0.00    +0.163 A 
ATOM     34  O   UNL     1      -4.470   0.102  -5.465  0.00  0.00    -0.474 OA
ENDBRANCH  22  25
ENDBRANCH  18  19
ENDBRANCH   2  18
TORSDOF 6
