REMARK  Name = ZINC12664860
REMARK  6 active torsions:
REMARK  status: ('A' for Active; 'I' for Inactive)
REMARK    1  A    between atoms: C_2  and  C_3
REMARK    2  A    between atoms: C_3  and  N_4
REMARK    3  A    between atoms: N_13  and  C_14
REMARK    4  A    between atoms: C_14  and  C_16
REMARK    5  A    between atoms: N_21  and  S_23
REMARK    6  A    between atoms: S_23  and  C_26
REMARK                            x       y       z     vdW  Elec       q    Type
REMARK                         _______ _______ _______ _____ _____    ______ ____
ROOT
ATOM      1  C   UNL     1      -5.848   2.182   0.070  0.00  0.00    +0.243 C 
ATOM      2  O   UNL     1      -5.506   1.015   0.061  0.00  0.00    -0.273 OA
ENDROOT
BRANCH   1  12
ATOM      3  N   UNL     1      -2.567   3.667   0.047  0.00  0.00    -0.310 N 
ATOM      4  C   UNL     1      -1.284   3.152   0.031  0.00  0.00    +0.059 A 
ATOM      5  C   UNL     1      -0.066   3.850   0.023  0.00  0.00    +0.028 A 
ATOM      6  C   UNL     1       1.131   3.174   0.008  0.00  0.00    +0.022 A 
ATOM      7  C   UNL     1       1.174   1.789   0.001  0.00  0.00    +0.042 A 
ATOM      8  C   UNL     1      -0.013   1.076   0.008  0.00  0.00    +0.037 A 
ATOM      9  C   UNL     1      -1.210   1.752   0.017  0.00  0.00    +0.040 A 
ATOM     10  S   UNL     1      -2.914   1.254   0.037  0.00  0.00    -0.052 S 
ATOM     11  C   UNL     1      -3.638   2.829   0.052  0.00  0.00    +0.167 A 
ATOM     12  N   UNL     1      -4.931   3.143   0.066  0.00  0.00    -0.156 NA
ATOM     13 CL   UNL     1       2.698   0.958  -0.018  0.00  0.00    -0.084 Cl
BRANCH   3  14
ATOM     14  C   UNL     1      -2.773   5.117   0.057  0.00  0.00    +0.212 C 
BRANCH  14  16
ATOM     15  C   UNL     1      -5.049   5.693  -1.165  0.00  0.00    +0.005 C 
ATOM     16  C   UNL     1      -4.039   5.438  -0.623  0.00  0.00    -0.084 C 
ENDBRANCH  14  16
ENDBRANCH   3  14
ENDBRANCH   1  12
BRANCH   1  17
ATOM     17  C   UNL     1      -7.313   2.537   0.085  0.00  0.00    +0.093 C 
ATOM     18  C   UNL     1      -7.651   3.364  -1.157  0.00  0.00    +0.015 C 
ATOM     19  C   UNL     1      -9.131   3.753  -1.126  0.00  0.00    +0.018 C 
ATOM     20  C   UNL     1      -9.989   2.484  -1.141  0.00  0.00    +0.109 C 
ATOM     21  N   UNL     1      -9.570   1.616  -0.032  0.00  0.00    -0.176 NA
ATOM     22  C   UNL     1      -8.150   1.254   0.085  0.00  0.00    +0.122 C 
BRANCH  21  23
ATOM     23  S   UNL     1     -10.675   1.057   1.067  0.00  0.00    +0.061 S 
ATOM     24  O   UNL     1      -9.954   0.758   2.253  0.00  0.00    -0.153 OA
ATOM     25  O   UNL     1     -11.765   1.970   1.046  0.00  0.00    -0.153 OA
BRANCH  23  26
ATOM     26  C   UNL     1     -11.291  -0.475   0.452  0.00  0.00    +0.106 A 
ATOM     27  C   UNL     1     -12.406  -0.494  -0.364  0.00  0.00    +0.030 A 
ATOM     28  C   UNL     1     -12.886  -1.696  -0.851  0.00  0.00    +0.022 A 
ATOM     29  C   UNL     1     -12.257  -2.880  -0.512  0.00  0.00    +0.041 A 
ATOM     30  C   UNL     1     -11.144  -2.861   0.310  0.00  0.00    +0.022 A 
ATOM     31  C   UNL     1     -10.662  -1.659   0.791  0.00  0.00    +0.030 A 
ATOM     32 CL   UNL     1     -12.863  -4.390  -1.117  0.00  0.00    -0.084 Cl
ENDBRANCH  23  26
ENDBRANCH  21  23
ENDBRANCH   1  17
TORSDOF 6
