REMARK  Name = ZINC05819020
REMARK  4 active torsions:
REMARK  status: ('A' for Active; 'I' for Inactive)
REMARK    1  A    between atoms: C_6  and  C_7
REMARK    2  A    between atoms: C_10  and  C_21
REMARK    3  A    between atoms: C_16  and  N_20
REMARK    4  A    between atoms: C_17  and  C_18
REMARK                            x       y       z     vdW  Elec       q    Type
REMARK                         _______ _______ _______ _____ _____    ______ ____
ROOT
ATOM      1  C   UNL     1      -1.293  -0.775   0.011  0.00  0.00    +0.102 C 
ATOM      2  C   UNL     1      -1.372  -1.649  -1.214  0.00  0.00    +0.058 A 
ATOM      3  C   UNL     1      -1.584  -1.290  -2.538  0.00  0.00    +0.173 A 
ATOM      4  N   UNL     1      -1.574  -2.383  -3.264  0.00  0.00    -0.167 NA
ATOM      5  N   UNL     1      -1.354  -3.478  -2.413  0.00  0.00    -0.246 N 
ATOM      6  H   UNL     1      -1.298  -4.408  -2.682  0.00  0.00    +0.192 HD
ATOM      7  C   UNL     1      -1.234  -3.008  -1.161  0.00  0.00    +0.223 A 
ATOM      8  O   UNL     1      -1.017  -3.677  -0.001  0.00  0.00    -0.423 OA
ATOM      9  C   UNL     1      -1.211  -3.006   1.152  0.00  0.00    +0.200 C 
ATOM     10  C   UNL     1      -1.348  -1.663   1.229  0.00  0.00    +0.098 C 
ENDROOT
BRANCH   1  16
ATOM     11  C   UNL     1      -0.017   1.378   0.010  0.00  0.00    +0.006 A 
ATOM     12  C   UNL     1       1.171   2.086   0.002  0.00  0.00    +0.020 A 
ATOM     13  C   UNL     1       2.378   1.410  -0.013  0.00  0.00    +0.041 A 
ATOM     14  C   UNL     1       2.396   0.027  -0.021  0.00  0.00    +0.020 A 
ATOM     15  C   UNL     1       1.208  -0.679  -0.013  0.00  0.00    +0.006 A 
ATOM     16  C   UNL     1       0.002  -0.004   0.002  0.00  0.00    -0.034 A 
ATOM     17 CL   UNL     1       3.870   2.298  -0.023  0.00  0.00    -0.084 Cl
ENDBRANCH   1  16
BRANCH   3  18
ATOM     18  C   UNL     1      -1.789   0.112  -3.053  0.00  0.00    +0.436 C 
ATOM     19  F   UNL     1      -0.551   0.672  -3.385  0.00  0.00    -0.164 F 
ATOM     20  F   UNL     1      -2.605   0.076  -4.189  0.00  0.00    -0.164 F 
ATOM     21  F   UNL     1      -2.401   0.887  -2.063  0.00  0.00    -0.164 F 
ENDBRANCH   3  18
BRANCH   9  22
ATOM     22  N   UNL     1      -1.272  -3.729   2.318  0.00  0.00    -0.328 N 
ATOM     23  H   UNL     1      -1.177  -4.694   2.296  0.00  0.00    +0.145 HD
ATOM     24  H   UNL     1      -1.410  -3.275   3.164  0.00  0.00    +0.145 HD
ENDBRANCH   9  22
BRANCH  10  25
ATOM     25  C   UNL     1      -1.554  -1.062   2.512  0.00  0.00    +0.101 C 
ATOM     26  N   UNL     1      -1.718  -0.584   3.530  0.00  0.00    -0.191 NA
ENDBRANCH  10  25
TORSDOF 4
