REMARK  Name = ZINC45511298
REMARK  9 active torsions:
REMARK  status: ('A' for Active; 'I' for Inactive)
REMARK    1  A    between atoms: C_1  and  C_2
REMARK    2  A    between atoms: C_7  and  N_8
REMARK    3  A    between atoms: C_9  and  C_11
REMARK    4  A    between atoms: C_11  and  C_13
REMARK    5  A    between atoms: C_11  and  N_14
REMARK    6  A    between atoms: N_17  and  C_20
REMARK    7  A    between atoms: C_20  and  C_21
REMARK    8  A    between atoms: N_23  and  C_24
REMARK    9  A    between atoms: N_23  and  C_25
REMARK                            x       y       z     vdW  Elec       q    Type
REMARK                         _______ _______ _______ _____ _____    ______ ____
ROOT
ATOM      1  C   UNL     1      -0.168   0.054   4.882  0.00  0.00    +0.017 C 
ATOM      2  C   UNL     1      -1.359   0.997   5.066  0.00  0.00    -0.004 C 
ENDROOT
BRANCH   1   3
ATOM      3  N   UNL     1      -0.121  -0.900   5.998  0.00  0.00    +0.389 N 
ATOM      4  C   UNL     1      -0.111  -0.165   7.270  0.00  0.00    -0.062 C 
ATOM      5  C   UNL     1      -0.081  -1.158   8.434  0.00  0.00    +0.066 C 
ATOM      6  N   UNL     1       1.119  -2.000   8.325  0.00  0.00    -0.298 NA
ATOM      7  C   UNL     1       1.135  -2.723   7.046  0.00  0.00    +0.066 C 
ATOM      8  C   UNL     1       1.095  -1.717   5.894  0.00  0.00    -0.062 C 
ATOM      9  H   UNL     1      -0.932  -1.498   5.963  0.00  0.00    -0.081 HD
BRANCH   6  10
ATOM     10  C   UNL     1       1.213  -2.930   9.457  0.00  0.00    +0.180 C 
BRANCH  10  11
ATOM     11  C   UNL     1       2.563  -3.599   9.447  0.00  0.00    +0.229 C 
ATOM     12  O   UNL     1       3.368  -3.327   8.581  0.00  0.00    -0.274 OA
ATOM     13  N   UNL     1       2.877  -4.500  10.399  0.00  0.00    -0.307 N 
ATOM     14  C   UNL     1       4.190  -5.150  10.389  0.00  0.00    +0.131 C 
ATOM     15  C   UNL     1       1.905  -4.828  11.445  0.00  0.00    +0.131 C 
ENDBRANCH  10  11
ENDBRANCH   6  10
ENDBRANCH   1   3
BRANCH   1  17
ATOM     16  N   UNL     1      -0.119  -0.065   2.412  0.00  0.00    -0.287 N 
ATOM     17  C   UNL     1      -0.319  -0.698   3.585  0.00  0.00    +0.203 C 
ATOM     18  O   UNL     1      -0.620  -1.873   3.597  0.00  0.00    -0.277 OA
ATOM     19  H   UNL     1       0.195   0.853   2.403  0.00  0.00    +0.155 HD
BRANCH  16  26
ATOM     20  C   UNL     1      -1.122   1.446   0.220  0.00  0.00    +0.045 C 
ATOM     21  C   UNL     1      -0.854  -0.033   0.112  0.00  0.00    -0.029 A 
ATOM     22  C   UNL     1      -1.090  -0.693  -1.079  0.00  0.00    +0.006 A 
ATOM     23  C   UNL     1      -0.844  -2.049  -1.180  0.00  0.00    +0.020 A 
ATOM     24  C   UNL     1      -0.360  -2.751  -0.089  0.00  0.00    +0.043 A 
ATOM     25  C   UNL     1      -0.122  -2.096   1.105  0.00  0.00    +0.043 A 
ATOM     26  C   UNL     1      -0.364  -0.732   1.206  0.00  0.00    +0.038 A 
ATOM     27 CL   UNL     1      -0.053  -4.454  -0.220  0.00  0.00    -0.083 Cl
ENDBRANCH  16  26
ENDBRANCH   1  17
TORSDOF 5
