REMARK  Name = ZINC06149316
REMARK  10 active torsions:
REMARK  status: ('A' for Active; 'I' for Inactive)
REMARK    1  A    between atoms: C_1  and  C_2
REMARK    2  A    between atoms: C_2  and  C_3
REMARK    3  A    between atoms: C_3  and  C_4
REMARK    4  A    between atoms: C_3  and  C_5
REMARK    5  A    between atoms: C_3  and  N_6
REMARK    6  A    between atoms: C_7  and  C_11
REMARK    7  A    between atoms: C_11  and  C_13
REMARK    8  A    between atoms: C_11  and  N_67
REMARK    9  A    between atoms: C_19  and  C_25
REMARK   10  A    between atoms: C_28  and  C_31
REMARK                            x       y       z     vdW  Elec       q    Type
REMARK                         _______ _______ _______ _____ _____    ______ ____
ROOT
ATOM      1  C   UNL     1       3.497   0.663  -0.393  0.00  0.00    +0.039 C 
ENDROOT
BRANCH   1   2
ATOM      2  C   UNL     1       3.800   1.098  -1.804  0.00  0.00    +0.011 A 
ATOM      3  C   UNL     1       4.369   0.225  -2.672  0.00  0.00    +0.017 A 
ATOM      4  C   UNL     1       4.647   0.677  -4.036  0.00  0.00    -0.001 A 
ATOM      5  C   UNL     1       5.229  -0.178  -4.978  0.00  0.00    +0.010 A 
ATOM      6  C   UNL     1       5.481   0.276  -6.241  0.00  0.00    +0.001 A 
ATOM      7  C   UNL     1       5.165   1.579  -6.599  0.00  0.00    +0.005 A 
ATOM      8  C   UNL     1       4.591   2.439  -5.689  0.00  0.00    -0.026 A 
ATOM      9  C   UNL     1       4.325   1.999  -4.396  0.00  0.00    +0.052 A 
ATOM     10  N   UNL     1       3.753   2.839  -3.464  0.00  0.00    -0.322 N 
ATOM     11  H   UNL     1       3.525   3.778  -3.721  0.00  0.00    +0.169 HD
ATOM     12  C   UNL     1       3.497   2.413  -2.215  0.00  0.00    +0.251 A 
ATOM     13  O   UNL     1       2.990   3.183  -1.417  0.00  0.00    -0.268 OA
ATOM     14  C   UNL     1       4.253   3.852  -6.091  0.00  0.00    +0.046 C 
ENDBRANCH   1   2
BRANCH   1  20
ATOM     15  C   UNL     1       5.603   1.579   0.381  0.00  0.00    -0.072 C 
ATOM     16  C   UNL     1       6.187   2.767   1.150  0.00  0.00    +0.017 C 
ATOM     17  C   UNL     1       5.630   2.790   2.546  0.00  0.00    -0.048 C 
ATOM     18  C   UNL     1       4.558   2.113   2.894  0.00  0.00    -0.041 C 
ATOM     19  C   UNL     1       3.790   1.247   1.938  0.00  0.00    -0.049 C 
ATOM     20  N   UNL     1       4.136   1.608   0.551  0.00  0.00    +0.392 N 
ATOM     21  H   UNL     1       3.795   2.557   0.356  0.00  0.00    -0.080 HD
BRANCH  17  22
ATOM     22  C   UNL     1       6.315   3.607   3.570  0.00  0.00    -0.022 A 
ATOM     23  C   UNL     1       6.362   4.996   3.440  0.00  0.00    +0.011 A 
ATOM     24  C   UNL     1       6.998   5.755   4.401  0.00  0.00    +0.039 A 
ATOM     25  C   UNL     1       7.598   5.139   5.487  0.00  0.00    +0.123 A 
ATOM     26  C   UNL     1       7.560   3.760   5.618  0.00  0.00    +0.039 A 
ATOM     27  C   UNL     1       6.922   2.993   4.666  0.00  0.00    +0.011 A 
ATOM     28  F   UNL     1       8.224   5.887   6.423  0.00  0.00    -0.205 F 
ENDBRANCH  17  22
ENDBRANCH   1  20
BRANCH   1  30
ATOM     29  N   UNL     1       1.206  -0.393  -0.012  0.00  0.00    -0.225 N 
ATOM     30  C   UNL     1       2.006   0.678  -0.173  0.00  0.00    +0.143 A 
ATOM     31  N   UNL     1       1.236   1.737  -0.100  0.00  0.00    -0.115 NA
ATOM     32  N   UNL     1       0.027   1.337   0.095  0.00  0.00    -0.023 NA
ATOM     33  N   UNL     1       0.005   0.051   0.149  0.00  0.00    -0.043 NA
BRANCH  29  34
ATOM     34  C   UNL     1       1.622  -1.798  -0.018  0.00  0.00    +0.061 C 
ATOM     35  C   UNL     1       2.323  -2.116  -1.340  0.00  0.00    +0.036 C 
ATOM     36  C   UNL     1       2.585  -2.050   1.144  0.00  0.00    +0.036 C 
BRANCH  34  38
ATOM     37  C   UNL     1       0.825  -4.161   0.130  0.00  0.00    +0.006 C 
ATOM     38  C   UNL     1       0.391  -2.694   0.136  0.00  0.00    +0.026 C 
ENDBRANCH  34  38
ENDBRANCH  29  34
ENDBRANCH   1  30
TORSDOF 6
