REMARK  Name = ZINC33362616
REMARK  7 active torsions:
REMARK  status: ('A' for Active; 'I' for Inactive)
REMARK    1  A    between atoms: C_1  and  C_2
REMARK    2  A    between atoms: C_5  and  C_8
REMARK    3  A    between atoms: C_8  and  N_9
REMARK    4  A    between atoms: C_13  and  C_14
REMARK    5  A    between atoms: C_15  and  N_26
REMARK    6  A    between atoms: C_20  and  C_25
REMARK    7  A    between atoms: N_29  and  C_32
REMARK                            x       y       z     vdW  Elec       q    Type
REMARK                         _______ _______ _______ _____ _____    ______ ____
ROOT
ATOM      1  C   UNL     1      -1.797   4.843   5.002  0.00  0.00    +0.081 A 
ATOM      2  C   UNL     1      -1.564   3.458   4.830  0.00  0.00    +0.136 A 
ATOM      3  N   UNL     1      -1.996   2.604   5.747  0.00  0.00    -0.214 NA
ATOM      4  C   UNL     1      -2.654   3.015   6.831  0.00  0.00    +0.142 A 
ATOM      5  C   UNL     1      -3.088   2.063   7.770  0.00  0.00    +0.047 A 
ATOM      6  C   UNL     1      -3.762   2.474   8.882  0.00  0.00    +0.008 A 
ATOM      7  C   UNL     1      -4.012   3.840   9.073  0.00  0.00    -0.034 A 
ATOM      8  C   UNL     1      -3.587   4.741   8.160  0.00  0.00    +0.099 A 
ATOM      9  N   UNL     1      -2.912   4.341   7.046  0.00  0.00    -0.267 N 
ATOM     10  C   UNL     1      -2.502   5.268   6.153  0.00  0.00    +0.267 A 
ATOM     11  O   UNL     1      -2.730   6.450   6.339  0.00  0.00    -0.267 OA
ATOM     12  C   UNL     1      -4.757   4.303  10.299  0.00  0.00    +0.045 C 
ENDROOT
BRANCH   1  17
ATOM     13  N   UNL     1       1.292   7.751   5.653  0.00  0.00    -0.251 N 
ATOM     14  C   UNL     1       0.398   6.781   5.569  0.00  0.00    +0.259 C 
ATOM     15  O   UNL     1       0.236   5.997   6.488  0.00  0.00    -0.269 OA
ATOM     16  C   UNL     1      -0.370   6.677   4.375  0.00  0.00    +0.077 C 
ATOM     17  C   UNL     1      -1.343   5.779   4.043  0.00  0.00    +0.037 C 
ATOM     18  S   UNL     1       0.291   8.039   3.425  0.00  0.00    -0.061 S 
ATOM     19  C   UNL     1       1.472   8.620   4.633  0.00  0.00    +0.121 C 
ATOM     20  S   UNL     1       2.560   9.937   4.524  0.00  0.00    -0.027 S 
BRANCH  13  21
ATOM     21  C   UNL     1       2.100   7.886   6.867  0.00  0.00    +0.150 C 
BRANCH  21  26
ATOM     22  C   UNL     1       6.936   4.770   6.321  0.00  0.00    +0.044 C 
ATOM     23  C   UNL     1       5.675   5.583   6.464  0.00  0.00    -0.050 A 
ATOM     24  C   UNL     1       5.653   6.903   6.053  0.00  0.00    +0.003 A 
ATOM     25  C   UNL     1       4.496   7.648   6.184  0.00  0.00    +0.005 A 
ATOM     26  C   UNL     1       3.361   7.073   6.725  0.00  0.00    -0.030 A 
ATOM     27  C   UNL     1       3.384   5.755   7.140  0.00  0.00    +0.005 A 
ATOM     28  C   UNL     1       4.540   5.008   7.004  0.00  0.00    +0.003 A 
ENDBRANCH  21  26
ENDBRANCH  13  21
ENDBRANCH   1  17
BRANCH   2  29
ATOM     29  N   UNL     1      -0.887   3.000   3.720  0.00  0.00    -0.318 N 
ATOM     30  C   UNL     1       0.540   2.812   4.015  0.00  0.00    +0.088 C 
ATOM     31  C   UNL     1       1.269   2.381   2.740  0.00  0.00    -0.060 C 
ATOM     32  N   UNL     1       0.670   1.138   2.232  0.00  0.00    +0.380 N 
ATOM     33  C   UNL     1      -0.758   1.327   1.938  0.00  0.00    -0.060 C 
ATOM     34  C   UNL     1      -1.486   1.758   3.213  0.00  0.00    +0.088 C 
ATOM     35  C   UNL     1       1.391   0.651   1.049  0.00  0.00    -0.096 C 
ATOM     36  H   UNL     1       0.756   0.374   3.018  0.00  0.00    -0.082 HD
ENDBRANCH   2  29
TORSDOF 4
