REMARK  Name = ZINC64061220
REMARK  4 active torsions:
REMARK  status: ('A' for Active; 'I' for Inactive)
REMARK    1  A    between atoms: C_1  and  C_2
REMARK    2  A    between atoms: C_3  and  C_7
REMARK    3  A    between atoms: C_22  and  C_24
REMARK    4  A    between atoms: C_28  and  C_30
REMARK                            x       y       z     vdW  Elec       q    Type
REMARK                         _______ _______ _______ _____ _____    ______ ____
ROOT
ATOM      1  C   UNL     1      -0.120  -0.716  -2.474  0.00  0.00    +0.284 C 
ATOM      2  O   UNL     1      -0.179   0.497  -2.563  0.00  0.00    -0.267 OA
ATOM      3  N   UNL     1      -0.011  -1.469  -3.587  0.00  0.00    -0.285 N 
ATOM      4  C   UNL     1      -0.111  -2.928  -3.487  0.00  0.00    +0.113 C 
ATOM      5  C   UNL     1      -1.256  -3.426  -4.388  0.00  0.00    +0.052 C 
ATOM      6  C   UNL     1      -1.109  -2.712  -5.709  0.00  0.00    -0.035 C 
ATOM      7  C   UNL     1      -1.059  -3.170  -6.954  0.00  0.00    -0.001 A 
ATOM      8  C   UNL     1      -1.238  -4.521  -7.508  0.00  0.00    +0.010 A 
ATOM      9  C   UNL     1      -1.098  -4.640  -8.855  0.00  0.00    +0.001 A 
ATOM     10  C   UNL     1      -0.800  -3.563  -9.695  0.00  0.00    +0.002 A 
ATOM     11  C   UNL     1      -0.627  -2.285  -9.273  0.00  0.00    +0.026 A 
ATOM     12  C   UNL     1      -0.759  -2.033  -7.876  0.00  0.00    +0.043 A 
ATOM     13  N   UNL     1      -0.669  -0.919  -7.210  0.00  0.00    -0.375 N 
ATOM     14  C   UNL     1      -0.960  -1.198  -5.804  0.00  0.00    +0.131 C 
ATOM     15  C   UNL     1       0.203  -0.817  -4.889  0.00  0.00    +0.133 C 
ATOM     16  H   UNL     1      -0.447  -0.052  -7.583  0.00  0.00    +0.160 HD
ENDROOT
BRANCH   1  19
ATOM     17  C   UNL     1      -0.755   0.708   0.241  0.00  0.00    +0.070 C 
ATOM     18  C   UNL     1      -0.443  -0.751   0.035  0.00  0.00    +0.089 A 
ATOM     19  C   UNL     1      -0.168  -1.357  -1.156  0.00  0.00    +0.212 A 
ATOM     20  O   UNL     1       0.052  -2.665  -0.885  0.00  0.00    -0.438 OA
ATOM     21  C   UNL     1      -0.088  -2.836   0.433  0.00  0.00    +0.309 A 
ATOM     22  N   UNL     1      -0.379  -1.689   0.986  0.00  0.00    -0.221 NA
ENDBRANCH   1  19
BRANCH  15  23
ATOM     23  C   UNL     1       1.499  -1.293  -5.491  0.00  0.00    -0.024 A 
ATOM     24  C   UNL     1       1.724  -2.646  -5.667  0.00  0.00    +0.005 A 
ATOM     25  C   UNL     1       2.914  -3.082  -6.220  0.00  0.00    +0.001 A 
ATOM     26  C   UNL     1       3.878  -2.166  -6.598  0.00  0.00    +0.012 A 
ATOM     27  C   UNL     1       3.652  -0.813  -6.423  0.00  0.00    +0.055 A 
ATOM     28  C   UNL     1       2.461  -0.377  -5.874  0.00  0.00    +0.018 A 
BRANCH  27  29
ATOM     29  C   UNL     1       4.703   0.185  -6.834  0.00  0.00    +0.417 C 
ATOM     30  F   UNL     1       5.808  -0.491  -7.362  0.00  0.00    -0.166 F 
ATOM     31  F   UNL     1       4.176   1.045  -7.803  0.00  0.00    -0.166 F 
ATOM     32  F   UNL     1       5.101   0.929  -5.718  0.00  0.00    -0.166 F 
ENDBRANCH  27  29
ENDBRANCH  15  23
TORSDOF 3
