REMARK  Name = ZINC13040034
REMARK  4 active torsions:
REMARK  status: ('A' for Active; 'I' for Inactive)
REMARK    1  A    between atoms: C_1  and  C_2
REMARK    2  A    between atoms: C_12  and  C_16
REMARK    3  A    between atoms: N_20  and  S_23
REMARK    4  A    between atoms: S_23  and  C_26
REMARK                            x       y       z     vdW  Elec       q    Type
REMARK                         _______ _______ _______ _____ _____    ______ ____
ROOT
ATOM      1  C   UNL     1       5.796   4.807   1.888  0.00  0.00    +0.088 C 
ATOM      2  C   UNL     1       5.297   3.776   0.908  0.00  0.00    +0.129 A 
ATOM      3  N   UNL     1       5.476   2.502   1.193  0.00  0.00    -0.217 NA
ATOM      4  C   UNL     1       5.080   1.501   0.409  0.00  0.00    +0.133 A 
ATOM      5  C   UNL     1       4.429   1.880  -0.800  0.00  0.00    +0.051 A 
ATOM      6  C   UNL     1       3.902   0.997  -1.827  0.00  0.00    -0.025 A 
ATOM      7  C   UNL     1       3.323   1.588  -2.897  0.00  0.00    -0.004 A 
ATOM      8  S   UNL     1       3.448   3.332  -2.592  0.00  0.00    -0.073 S 
ATOM      9  C   UNL     1       4.275   3.269  -1.035  0.00  0.00    +0.114 A 
ATOM     10  N   UNL     1       4.699   4.197  -0.200  0.00  0.00    -0.225 NA
ATOM     11  C   UNL     1       2.708   0.912  -4.084  0.00  0.00    +0.046 C 
ATOM     12  C   UNL     1       3.155  -0.556  -4.094  0.00  0.00    -0.009 C 
ATOM     13  C   UNL     1       2.962  -1.137  -2.690  0.00  0.00    +0.008 C 
ATOM     14  C   UNL     1       3.982  -0.525  -1.731  0.00  0.00    +0.037 C 
ATOM     15  C   UNL     1       2.312  -1.343  -5.099  0.00  0.00    +0.008 C 
ATOM     16  N   UNL     1       5.288   0.176   0.748  0.00  0.00    -0.312 N 
ATOM     17  C   UNL     1       4.618  -0.155   2.013  0.00  0.00    +0.123 C 
ATOM     18  C   UNL     1       4.718  -1.665   2.260  0.00  0.00    +0.128 C 
ATOM     19  N   UNL     1       6.133  -2.057   2.184  0.00  0.00    -0.174 NA
ATOM     20  C   UNL     1       6.910  -1.641   1.006  0.00  0.00    +0.128 C 
ATOM     21  C   UNL     1       6.723  -0.133   0.809  0.00  0.00    +0.123 C 
ENDROOT
BRANCH  19  22
ATOM     22  S   UNL     1       6.835  -2.945   3.394  0.00  0.00    +0.061 S 
ATOM     23  O   UNL     1       5.783  -3.639   4.050  0.00  0.00    -0.153 OA
ATOM     24  O   UNL     1       7.944  -3.617   2.813  0.00  0.00    -0.153 OA
BRANCH  22  25
ATOM     25  C   UNL     1       7.492  -1.804   4.564  0.00  0.00    +0.108 A 
ATOM     26  C   UNL     1       8.791  -1.350   4.431  0.00  0.00    +0.031 A 
ATOM     27  C   UNL     1       9.307  -0.450   5.345  0.00  0.00    +0.043 A 
ATOM     28  C   UNL     1       8.527  -0.011   6.400  0.00  0.00    +0.159 A 
ATOM     29  C   UNL     1       7.226  -0.471   6.537  0.00  0.00    +0.160 A 
ATOM     30  C   UNL     1       6.710  -1.367   5.617  0.00  0.00    +0.069 A 
ATOM     31  F   UNL     1       6.462  -0.044   7.566  0.00  0.00    -0.202 F 
ATOM     32  F   UNL     1       9.032   0.864   7.296  0.00  0.00    -0.202 F 
ENDBRANCH  22  25
ENDBRANCH  19  22
TORSDOF 2
