REMARK  Name = ZINC08964189
REMARK  9 active torsions:
REMARK  status: ('A' for Active; 'I' for Inactive)
REMARK    1  A    between atoms: C_1  and  C_2
REMARK    2  A    between atoms: C_5  and  N_9
REMARK    3  A    between atoms: C_6  and  C_8
REMARK    4  A    between atoms: C_10  and  C_12
REMARK    5  A    between atoms: N_14  and  C_15
REMARK    6  A    between atoms: C_15  and  C_16
REMARK    7  A    between atoms: C_16  and  C_18
REMARK    8  A    between atoms: C_16  and  N_63
REMARK    9  A    between atoms: N_26  and  C_27
REMARK                            x       y       z     vdW  Elec       q    Type
REMARK                         _______ _______ _______ _____ _____    ______ ____
ROOT
ATOM      1  C   UNL     1       1.390   1.132   0.093  0.00  0.00    +0.094 C 
ENDROOT
BRANCH   1   4
ATOM      2  C   UNL     1      -0.812   0.497  -0.734  0.00  0.00    +0.299 C 
ATOM      3  O   UNL     1      -1.231   1.573  -0.360  0.00  0.00    -0.265 OA
ATOM      4  N   UNL     1       0.484   0.178  -0.552  0.00  0.00    -0.309 N 
ATOM      5  H   UNL     1       0.819  -0.682  -0.850  0.00  0.00    +0.149 HD
BRANCH   2   7
ATOM      6  N   UNL     1      -3.031  -0.155  -1.579  0.00  0.00    -0.278 N 
ATOM      7  C   UNL     1      -1.734  -0.474  -1.396  0.00  0.00    +0.303 C 
ATOM      8  O   UNL     1      -1.316  -1.550  -1.770  0.00  0.00    -0.265 OA
ATOM      9  H   UNL     1      -3.353   0.727  -1.334  0.00  0.00    +0.155 HD
BRANCH   6  14
ATOM     10  C   UNL     1      -6.607  -3.969  -3.778  0.00  0.00    +0.044 C 
ATOM     11  C   UNL     1      -5.657  -2.955  -3.194  0.00  0.00    -0.050 A 
ATOM     12  C   UNL     1      -4.311  -3.008  -3.510  0.00  0.00    +0.005 A 
ATOM     13  C   UNL     1      -3.438  -2.082  -2.976  0.00  0.00    +0.024 A 
ATOM     14  C   UNL     1      -3.912  -1.095  -2.121  0.00  0.00    +0.037 A 
ATOM     15  C   UNL     1      -5.263  -1.047  -1.801  0.00  0.00    -0.029 A 
ATOM     16  C   UNL     1      -6.132  -1.975  -2.343  0.00  0.00    +0.008 A 
ATOM     17  C   UNL     1      -5.781   0.017  -0.869  0.00  0.00    +0.045 C 
ENDBRANCH   6  14
ENDBRANCH   2   7
ENDBRANCH   1   4
BRANCH   1  18
ATOM     18  C   UNL     1       2.741   0.462   0.346  0.00  0.00    -0.020 C 
BRANCH  18  19
ATOM     19  C   UNL     1       3.732   1.492   0.824  0.00  0.00    -0.059 A 
ATOM     20  C   UNL     1       3.661   1.973   2.119  0.00  0.00    +0.004 A 
ATOM     21  C   UNL     1       4.566   2.914   2.561  0.00  0.00    +0.023 A 
ATOM     22  C   UNL     1       5.553   3.396   1.702  0.00  0.00    +0.033 A 
ATOM     23  C   UNL     1       5.615   2.908   0.403  0.00  0.00    -0.025 A 
ATOM     24  C   UNL     1       4.709   1.963  -0.033  0.00  0.00    +0.007 A 
ATOM     25  C   UNL     1       6.776   3.587  -0.296  0.00  0.00    +0.056 C 
ATOM     26  C   UNL     1       7.584   4.183   0.879  0.00  0.00    +0.109 C 
ATOM     27  N   UNL     1       6.554   4.349   1.928  0.00  0.00    -0.332 N 
ATOM     28  C   UNL     1       7.137   4.193   3.267  0.00  0.00    +0.129 C 
ENDBRANCH  18  19
BRANCH  18  33
ATOM     29  C   UNL     1       1.825  -1.740   0.838  0.00  0.00    -0.078 C 
ATOM     30  C   UNL     1       2.209  -2.889   1.804  0.00  0.00    -0.020 C 
ATOM     31  C   UNL     1       3.702  -2.611   2.096  0.00  0.00    -0.020 C 
ATOM     32  C   UNL     1       3.902  -1.117   1.783  0.00  0.00    -0.078 C 
ATOM     33  N   UNL     1       2.591  -0.606   1.380  0.00  0.00    +0.385 N 
ATOM     34  H   UNL     1       2.104  -0.217   2.196  0.00  0.00    -0.081 HD
ENDBRANCH  18  33
ENDBRANCH   1  18
TORSDOF 6
