REMARK  Name = ZINC04686185
REMARK  10 active torsions:
REMARK  status: ('A' for Active; 'I' for Inactive)
REMARK    1  A    between atoms: C_1  and  C_2
REMARK    2  A    between atoms: C_2  and  C_3
REMARK    3  A    between atoms: C_3  and  C_5
REMARK    4  A    between atoms: C_3  and  N_6
REMARK    5  A    between atoms: C_7  and  C_9
REMARK    6  A    between atoms: C_9  and  S_10
REMARK    7  A    between atoms: S_10  and  C_11
REMARK    8  A    between atoms: C_15  and  C_19
REMARK    9  A    between atoms: N_22  and  C_23
REMARK   10  A    between atoms: C_28  and  C_29
REMARK                            x       y       z     vdW  Elec       q    Type
REMARK                         _______ _______ _______ _____ _____    ______ ____
ROOT
ATOM      1  C   UNL     1      -2.528   7.606   2.990  0.00  0.00    +0.177 A 
ATOM      2  N   UNL     1      -1.477   8.008   2.319  0.00  0.00    -0.201 NA
ATOM      3  C   UNL     1      -1.147   9.304   2.209  0.00  0.00    +0.187 A 
ATOM      4  C   UNL     1      -1.944  10.277   2.827  0.00  0.00    +0.082 A 
ATOM      5  C   UNL     1      -1.369  11.529   2.549  0.00  0.00    +0.046 A 
ATOM      6  N   UNL     1      -0.305  11.340   1.818  0.00  0.00    -0.279 N 
ATOM      7  N   UNL     1      -0.136   9.969   1.587  0.00  0.00    -0.153 NA
ATOM      8  H   UNL     1       0.296  12.200   1.488  0.00  0.00    +0.189 HD
ATOM      9  C   UNL     1      -1.893  12.863   3.015  0.00  0.00    +0.066 C 
ATOM     10  C   UNL     1      -3.124   9.834   3.582  0.00  0.00    +0.124 A 
ATOM     11  N   UNL     1      -3.911  10.692   4.183  0.00  0.00    -0.384 N 
ATOM     12  N   UNL     1      -3.375   8.471   3.627  0.00  0.00    -0.274 N 
ATOM     13  H   UNL     1      -4.789  10.336   4.742  0.00  0.00    +0.157 HD
ATOM     14  H   UNL     1      -3.693  11.769   4.129  0.00  0.00    +0.157 HD
ENDROOT
BRANCH  12  15
ATOM     15  C   UNL     1      -4.487   7.983   4.324  0.00  0.00    +0.055 A 
ATOM     16  C   UNL     1      -4.376   7.655   5.669  0.00  0.00    +0.046 A 
ATOM     17  C   UNL     1      -5.475   7.174   6.355  0.00  0.00    +0.043 A 
ATOM     18  C   UNL     1      -6.686   7.018   5.701  0.00  0.00    +0.020 A 
ATOM     19  C   UNL     1      -6.798   7.343   4.363  0.00  0.00    +0.007 A 
ATOM     20  C   UNL     1      -5.704   7.830   3.674  0.00  0.00    -0.026 A 
ATOM     21  C   UNL     1      -5.830   8.191   2.216  0.00  0.00    +0.046 C 
ATOM     22 CL   UNL     1      -5.338   6.763   8.036  0.00  0.00    -0.083 Cl
ENDBRANCH  12  15
BRANCH   1  23
ATOM     23  S   UNL     1      -2.868   5.878   3.070  0.00  0.00    -0.078 S 
BRANCH  23  24
ATOM     24  C   UNL     1      -1.488   5.240   2.089  0.00  0.00    +0.173 C 
BRANCH  24  26
ATOM     25  N   UNL     1      -0.646   3.040   1.334  0.00  0.00    -0.312 N 
ATOM     26  C   UNL     1      -1.575   3.737   2.018  0.00  0.00    +0.224 C 
ATOM     27  O   UNL     1      -2.481   3.155   2.576  0.00  0.00    -0.275 OA
ATOM     28  H   UNL     1       0.176   3.568   0.828  0.00  0.00    +0.149 HD
BRANCH  25  29
ATOM     29  C   UNL     1      -0.730   1.579   1.265  0.00  0.00    +0.070 C 
ATOM     30  C   UNL     1      -0.065   0.971   2.501  0.00  0.00    +0.028 C 
BRANCH  29  32
ATOM     31  C   UNL     1      -0.755   1.593  -1.233  0.00  0.00    +0.005 C 
ATOM     32  C   UNL     1      -0.015   1.086   0.006  0.00  0.00    +0.018 C 
ENDBRANCH  29  32
ENDBRANCH  25  29
ENDBRANCH  24  26
ENDBRANCH  23  24
ENDBRANCH   1  23
TORSDOF 6
