REMARK  Name = ZINC33276934
REMARK  6 active torsions:
REMARK  status: ('A' for Active; 'I' for Inactive)
REMARK    1  A    between atoms: C_1  and  N_2
REMARK    2  A    between atoms: C_5  and  N_25
REMARK    3  A    between atoms: C_6  and  S_15
REMARK    4  A    between atoms: N_9  and  C_14
REMARK    5  A    between atoms: S_15  and  C_18
REMARK    6  A    between atoms: C_26  and  C_28
REMARK                            x       y       z     vdW  Elec       q    Type
REMARK                         _______ _______ _______ _____ _____    ______ ____
ROOT
ATOM      1  C   UNL     1       3.185   4.633  -0.197  0.00  0.00    +0.153 C 
ATOM      2  N   UNL     1       2.833   3.212  -0.143  0.00  0.00    -0.305 N 
ATOM      3  C   UNL     1       1.499   2.831  -0.032  0.00  0.00    +0.070 A 
ATOM      4  C   UNL     1       0.508   3.804   0.027  0.00  0.00    +0.053 A 
ATOM      5  C   UNL     1      -0.822   3.432   0.138  0.00  0.00    +0.061 A 
ATOM      6  C   UNL     1      -1.169   2.085   0.184  0.00  0.00    +0.117 A 
ATOM      7  C   UNL     1      -0.190   1.116   0.132  0.00  0.00    +0.057 A 
ATOM      8  C   UNL     1       1.148   1.480   0.020  0.00  0.00    +0.070 A 
ATOM      9  N   UNL     1       2.128   0.492  -0.037  0.00  0.00    -0.305 N 
ATOM     10  C   UNL     1       3.428   0.834  -0.145  0.00  0.00    +0.316 A 
ATOM     11  O   UNL     1       4.286  -0.024  -0.196  0.00  0.00    -0.262 OA
ATOM     12  C   UNL     1       3.802   2.276  -0.201  0.00  0.00    +0.316 A 
ATOM     13  O   UNL     1       4.967   2.605  -0.298  0.00  0.00    -0.262 OA
ATOM     14  C   UNL     1       1.746  -0.921   0.019  0.00  0.00    +0.153 C 
ENDROOT
BRANCH   5  15
ATOM     15  N   UNL     1      -1.819   4.412   0.197  0.00  0.00    -0.280 N 
ATOM     16  C   UNL     1      -1.581   5.577   0.830  0.00  0.00    +0.248 C 
ATOM     17  O   UNL     1      -0.479   5.805   1.291  0.00  0.00    -0.270 OA
ATOM     18  H   UNL     1      -2.797   4.231  -0.274  0.00  0.00    +0.155 HD
BRANCH  16  19
ATOM     19  C   UNL     1      -2.660   6.578   0.965  0.00  0.00    +0.037 A 
ATOM     20  C   UNL     1      -3.942   6.295   0.491  0.00  0.00    +0.014 A 
ATOM     21  C   UNL     1      -4.946   7.231   0.625  0.00  0.00    +0.021 A 
ATOM     22  C   UNL     1      -4.682   8.454   1.219  0.00  0.00    +0.041 A 
ATOM     23  C   UNL     1      -3.410   8.743   1.687  0.00  0.00    +0.021 A 
ATOM     24  C   UNL     1      -2.400   7.813   1.563  0.00  0.00    +0.014 A 
ATOM     25 CL   UNL     1      -5.949   9.630   1.378  0.00  0.00    -0.084 Cl
ENDBRANCH  16  19
ENDBRANCH   5  15
BRANCH   6  26
ATOM     26  S   UNL     1      -2.862   1.617   0.317  0.00  0.00    +0.027 S 
ATOM     27  O   UNL     1      -3.571   2.379  -0.650  0.00  0.00    -0.164 OA
ATOM     28  O   UNL     1      -2.891   0.197   0.338  0.00  0.00    -0.164 OA
BRANCH  26  29
ATOM     29  C   UNL     1      -3.429   2.156   1.896  0.00  0.00    +0.094 A 
ATOM     30  C   UNL     1      -3.209   1.371   3.013  0.00  0.00    +0.030 A 
ATOM     31  C   UNL     1      -3.648   1.795   4.253  0.00  0.00    +0.040 A 
ATOM     32  C   UNL     1      -4.319   3.000   4.375  0.00  0.00    +0.124 A 
ATOM     33  C   UNL     1      -4.543   3.782   3.254  0.00  0.00    +0.040 A 
ATOM     34  C   UNL     1      -4.098   3.359   2.016  0.00  0.00    +0.030 A 
ATOM     35  F   UNL     1      -4.753   3.413   5.585  0.00  0.00    -0.205 F 
ENDBRANCH  26  29
ENDBRANCH   6  26
TORSDOF 4
