REMARK  Name = ZINC54420670
REMARK  4 active torsions:
REMARK  status: ('A' for Active; 'I' for Inactive)
REMARK    1  A    between atoms: C_1  and  C_2
REMARK    2  A    between atoms: C_10  and  C_11
REMARK    3  A    between atoms: N_13  and  N_14
REMARK    4  A    between atoms: N_20  and  C_23
REMARK                            x       y       z     vdW  Elec       q    Type
REMARK                         _______ _______ _______ _____ _____    ______ ____
ROOT
ATOM      1  N   UNL     1       0.064  -0.864   4.803  0.00  0.00    -0.218 N 
ATOM      2  C   UNL     1       0.186  -1.771   5.793  0.00  0.00    +0.319 C 
ATOM      3  O   UNL     1       0.191  -1.407   6.953  0.00  0.00    -0.251 OA
ATOM      4  N   UNL     1       0.302  -3.081   5.497  0.00  0.00    -0.281 N 
ATOM      5  C   UNL     1       0.423  -3.524   4.101  0.00  0.00    +0.128 C 
ATOM      6  C   UNL     1       1.695  -4.370   3.964  0.00  0.00    +0.124 C 
ATOM      7  N   UNL     1       1.704  -5.381   5.031  0.00  0.00    -0.327 N 
ATOM      8  C   UNL     1       1.582  -4.938   6.427  0.00  0.00    +0.124 C 
ATOM      9  C   UNL     1       0.317  -4.091   6.564  0.00  0.00    +0.128 C 
ATOM     10  H   UNL     1      -0.017  -1.159   3.883  0.00  0.00    +0.174 HD
ENDROOT
BRANCH   7  11
ATOM     11  C   UNL     1       1.824  -6.739   4.724  0.00  0.00    +0.030 A 
ATOM     12  C   UNL     1       1.941  -7.675   5.743  0.00  0.00    +0.026 A 
ATOM     13  C   UNL     1       2.060  -9.017   5.438  0.00  0.00    +0.040 A 
ATOM     14  C   UNL     1       2.063  -9.429   4.116  0.00  0.00    +0.124 A 
ATOM     15  C   UNL     1       1.946  -8.498   3.098  0.00  0.00    +0.040 A 
ATOM     16  C   UNL     1       1.822  -7.155   3.399  0.00  0.00    +0.026 A 
ATOM     17  F   UNL     1       2.179 -10.742   3.819  0.00  0.00    -0.205 F 
ENDBRANCH   7  11
BRANCH   1  20
ATOM     18  C   UNL     1       0.033   1.412   4.109  0.00  0.00    +0.296 C 
ATOM     19  O   UNL     1       0.024   1.044   2.949  0.00  0.00    -0.265 OA
ATOM     20  N   UNL     1       0.053   0.504   5.104  0.00  0.00    -0.227 N 
ATOM     21  H   UNL     1       0.060   0.797   6.028  0.00  0.00    +0.173 HD
BRANCH  18  31
ATOM     22  C   UNL     1      -0.014   3.704   2.007  0.00  0.00    +0.048 C 
ATOM     23  C   UNL     1       0.001   3.849   3.507  0.00  0.00    +0.008 A 
ATOM     24  C   UNL     1      -0.009   5.097   4.270  0.00  0.00    +0.024 A 
ATOM     25  C   UNL     1      -0.035   6.450   3.924  0.00  0.00    +0.012 A 
ATOM     26  C   UNL     1      -0.038   7.401   4.905  0.00  0.00    +0.001 A 
ATOM     27  C   UNL     1      -0.017   7.030   6.243  0.00  0.00    +0.004 A 
ATOM     28  C   UNL     1       0.008   5.701   6.606  0.00  0.00    +0.047 A 
ATOM     29  C   UNL     1       0.012   4.716   5.625  0.00  0.00    +0.136 A 
ATOM     30  O   UNL     1       0.034   3.370   5.668  0.00  0.00    -0.450 OA
ATOM     31  C   UNL     1       0.022   2.848   4.424  0.00  0.00    +0.195 A 
ENDBRANCH  18  31
ENDBRANCH   1  20
TORSDOF 3
