REMARK  Name = ZINC00720794
REMARK  9 active torsions:
REMARK  status: ('A' for Active; 'I' for Inactive)
REMARK    1  A    between atoms: C_1  and  O_2
REMARK    2  A    between atoms: O_2  and  C_3
REMARK    3  A    between atoms: C_5  and  C_19
REMARK    4  A    between atoms: C_8  and  O_9
REMARK    5  A    between atoms: O_9  and  C_10
REMARK    6  A    between atoms: C_10  and  C_11
REMARK    7  A    between atoms: C_22  and  C_33
REMARK    8  A    between atoms: C_28  and  N_32
REMARK    9  A    between atoms: C_29  and  C_30
REMARK                            x       y       z     vdW  Elec       q    Type
REMARK                         _______ _______ _______ _____ _____    ______ ____
ROOT
ATOM      1  C   UNL     1       2.403   0.379  -4.230  0.00  0.00    +0.102 C 
ATOM      2  C   UNL     1       3.872   0.066  -4.342  0.00  0.00    +0.054 A 
ATOM      3  C   UNL     1       4.918   0.407  -3.479  0.00  0.00    +0.102 A 
ATOM      4  N   UNL     1       6.036  -0.082  -3.982  0.00  0.00    -0.171 NA
ATOM      5  N   UNL     1       5.728  -0.747  -5.179  0.00  0.00    -0.246 N 
ATOM      6  H   UNL     1       6.360  -1.201  -5.758  0.00  0.00    +0.192 HD
ATOM      7  C   UNL     1       4.398  -0.644  -5.383  0.00  0.00    +0.223 A 
ATOM      8  O   UNL     1       3.639  -1.123  -6.400  0.00  0.00    -0.423 OA
ATOM      9  C   UNL     1       2.380  -0.652  -6.515  0.00  0.00    +0.200 C 
ATOM     10  C   UNL     1       1.749   0.053  -5.550  0.00  0.00    +0.098 C 
ENDROOT
BRANCH   1  13
ATOM     11  C   UNL     1       0.606  -0.608  -1.056  0.00  0.00    +0.162 A 
ATOM     12  C   UNL     1       1.173   0.159  -2.062  0.00  0.00    +0.054 A 
ATOM     13  C   UNL     1       1.787  -0.456  -3.137  0.00  0.00    -0.031 A 
ATOM     14  C   UNL     1       1.837  -1.836  -3.212  0.00  0.00    +0.008 A 
ATOM     15  C   UNL     1       1.273  -2.606  -2.212  0.00  0.00    +0.050 A 
ATOM     16  C   UNL     1       0.662  -1.996  -1.129  0.00  0.00    +0.162 A 
BRANCH  11  18
ATOM     17  C   UNL     1      -0.017   1.425   0.010  0.00  0.00    +0.277 C 
ATOM     18  O   UNL     1       0.002  -0.004   0.002  0.00  0.00    -0.491 OA
ENDBRANCH  11  18
BRANCH  16  19
ATOM     19  O   UNL     1       0.112  -2.753  -0.142  0.00  0.00    -0.484 OA
BRANCH  19  20
ATOM     20  C   UNL     1       0.206  -4.171  -0.283  0.00  0.00    +0.269 C 
BRANCH  20  21
ATOM     21  C   UNL     1      -0.453  -4.838   0.897  0.00  0.00    +0.043 A 
ATOM     22  C   UNL     1       0.286  -5.129   2.031  0.00  0.00    +0.131 A 
ATOM     23  C   UNL     1      -0.320  -5.742   3.114  0.00  0.00    +0.039 A 
ATOM     24  C   UNL     1      -1.664  -6.064   3.062  0.00  0.00    +0.004 A 
ATOM     25  C   UNL     1      -2.402  -5.773   1.931  0.00  0.00    +0.020 A 
ATOM     26  C   UNL     1      -1.798  -5.156   0.849  0.00  0.00    +0.050 A 
ATOM     27 CL   UNL     1      -2.728  -4.785  -0.569  0.00  0.00    -0.083 Cl
ATOM     28  F   UNL     1       1.600  -4.815   2.080  0.00  0.00    -0.205 F 
ENDBRANCH  20  21
ENDBRANCH  19  20
ENDBRANCH  16  19
ENDBRANCH   1  13
BRANCH   3  29
ATOM     29  C   UNL     1       4.793   1.182  -2.220  0.00  0.00    +0.021 A 
ATOM     30  C   UNL     1       5.611   0.893  -1.124  0.00  0.00    +0.013 A 
ATOM     31  C   UNL     1       5.456   1.645   0.028  0.00  0.00    +0.020 A 
ATOM     32  C   UNL     1       4.505   2.648   0.057  0.00  0.00    +0.111 A 
ATOM     33  N   UNL     1       3.746   2.898  -0.993  0.00  0.00    -0.263 NA
ATOM     34  C   UNL     1       3.862   2.213  -2.112  0.00  0.00    +0.120 A 
ENDBRANCH   3  29
BRANCH   9  35
ATOM     35  N   UNL     1       1.700  -0.903  -7.681  0.00  0.00    -0.328 N 
ATOM     36  H   UNL     1       2.127  -1.406  -8.393  0.00  0.00    +0.145 HD
ATOM     37  H   UNL     1       0.793  -0.578  -7.793  0.00  0.00    +0.145 HD
ENDBRANCH   9  35
BRANCH  10  38
ATOM     38  C   UNL     1       0.411   0.506  -5.787  0.00  0.00    +0.101 C 
ATOM     39  N   UNL     1      -0.650   0.865  -5.975  0.00  0.00    -0.191 NA
ENDBRANCH  10  38
TORSDOF 8
