REMARK  Name = ZINC38733296
REMARK  5 active torsions:
REMARK  status: ('A' for Active; 'I' for Inactive)
REMARK    1  A    between atoms: C_4  and  O_7
REMARK    2  A    between atoms: O_7  and  C_8
REMARK    3  A    between atoms: C_12  and  N_14
REMARK    4  A    between atoms: C_15  and  C_17
REMARK    5  A    between atoms: C_23  and  C_25
REMARK                            x       y       z     vdW  Elec       q    Type
REMARK                         _______ _______ _______ _____ _____    ______ ____
ROOT
ATOM      1  C   UNL     1       7.459  -6.817   0.244  0.00  0.00    +0.091 C 
ATOM      2  C   UNL     1       8.240  -6.519   1.526  0.00  0.00    +0.040 C 
ATOM      3  C   UNL     1       9.425  -7.432   1.634  0.00  0.00    -0.030 C 
ATOM      4  C   UNL     1       9.562  -8.526   0.955  0.00  0.00    -0.030 C 
ATOM      5  C   UNL     1       8.560  -9.027  -0.043  0.00  0.00    +0.040 C 
ATOM      6  C   UNL     1       7.214  -8.329   0.161  0.00  0.00    +0.091 C 
ENDROOT
BRANCH   6   7
ATOM      7  C   UNL     1       6.586  -8.812   1.443  0.00  0.00    +0.220 C 
ATOM      8  O   UNL     1       7.128  -8.590   2.505  0.00  0.00    -0.275 OA
ATOM      9  N   UNL     1       5.422  -9.490   1.409  0.00  0.00    -0.298 N 
ATOM     10  C   UNL     1       4.823  -9.884   0.126  0.00  0.00    +0.126 C 
ATOM     11  C   UNL     1       4.591 -11.400   0.139  0.00  0.00    +0.125 C 
ATOM     12  N   UNL     1       3.899 -11.759   1.384  0.00  0.00    -0.314 N 
ATOM     13  C   UNL     1       4.498 -11.365   2.667  0.00  0.00    +0.125 C 
ATOM     14  C   UNL     1       4.732  -9.854   2.655  0.00  0.00    +0.126 C 
ATOM     15  C   UNL     1       2.698 -12.459   1.350  0.00  0.00    +0.099 A 
ATOM     16  C   UNL     1       2.207 -12.925   0.134  0.00  0.00    +0.042 A 
ATOM     17  C   UNL     1       1.011 -13.619   0.114  0.00  0.00    +0.005 A 
ATOM     18  C   UNL     1       0.344 -13.826   1.315  0.00  0.00    +0.018 A 
ATOM     19  C   UNL     1       0.890 -13.336   2.484  0.00  0.00    +0.084 A 
ATOM     20  N   UNL     1       2.036 -12.681   2.474  0.00  0.00    -0.350 N 
ATOM     21  H   UNL     1       2.399 -12.351   3.311  0.00  0.00    +0.166 HD
ENDBRANCH   6   7
BRANCH   1  23
ATOM     22  N   UNL     1       6.112  -4.745   0.355  0.00  0.00    -0.285 N 
ATOM     23  C   UNL     1       6.139  -6.090   0.274  0.00  0.00    +0.221 C 
ATOM     24  O   UNL     1       5.101  -6.716   0.225  0.00  0.00    -0.275 OA
ATOM     25  H   UNL     1       6.937  -4.250   0.478  0.00  0.00    +0.155 HD
BRANCH  22  30
ATOM     26  C   UNL     1       3.540  -2.144   0.761  0.00  0.00    +0.130 A 
ATOM     27  C   UNL     1       2.478  -2.720   0.077  0.00  0.00    +0.046 A 
ATOM     28  C   UNL     1       2.624  -3.961  -0.511  0.00  0.00    +0.005 A 
ATOM     29  C   UNL     1       3.827  -4.634  -0.420  0.00  0.00    +0.023 A 
ATOM     30  C   UNL     1       4.894  -4.064   0.263  0.00  0.00    +0.037 A 
ATOM     31  C   UNL     1       4.751  -2.814   0.850  0.00  0.00    +0.069 A 
BRANCH  26  32
ATOM     32  O   UNL     1       3.395  -0.923   1.339  0.00  0.00    -0.456 OA
BRANCH  32  36
ATOM     33  C   UNL     1       1.243  -0.684   4.850  0.00  0.00    +0.000 A 
ATOM     34  C   UNL     1       1.329  -1.887   4.174  0.00  0.00    +0.004 A 
ATOM     35  C   UNL     1       2.049  -1.970   2.998  0.00  0.00    +0.046 A 
ATOM     36  C   UNL     1       2.686  -0.844   2.495  0.00  0.00    +0.128 A 
ATOM     37  C   UNL     1       2.597   0.362   3.175  0.00  0.00    +0.046 A 
ATOM     38  C   UNL     1       1.876   0.439   4.351  0.00  0.00    +0.004 A 
ENDBRANCH  32  36
ENDBRANCH  26  32
ENDBRANCH  22  30
ENDBRANCH   1  23
TORSDOF 5
