REMARK  Name = ZINC62825549
REMARK  6 active torsions:
REMARK  status: ('A' for Active; 'I' for Inactive)
REMARK    1  A    between atoms: C_5  and  N_10
REMARK    2  A    between atoms: C_6  and  C_7
REMARK    3  A    between atoms: N_13  and  C_14
REMARK    4  A    between atoms: C_14  and  C_15
REMARK    5  A    between atoms: C_15  and  S_16
REMARK    6  A    between atoms: S_16  and  N_19
REMARK                            x       y       z     vdW  Elec       q    Type
REMARK                         _______ _______ _______ _____ _____    ______ ____
ROOT
ATOM      1  N   UNL     1       1.245  -2.074  -0.048  0.00  0.00    -0.268 N 
ATOM      2  C   UNL     1       2.408  -2.732   0.125  0.00  0.00    +0.304 C 
ATOM      3  O   UNL     1       3.422  -2.115   0.391  0.00  0.00    -0.253 OA
ATOM      4  N   UNL     1       2.448  -4.074   0.005  0.00  0.00    -0.298 N 
ATOM      5  H   UNL     1       0.427  -2.569  -0.212  0.00  0.00    +0.156 HD
ATOM      6  H   UNL     1       1.639  -4.566  -0.207  0.00  0.00    +0.150 HD
ENDROOT
BRANCH   1  11
ATOM      7  C   UNL     1       0.190   1.372   0.776  0.00  0.00    +0.032 A 
ATOM      8  C   UNL     1       1.162   2.094   0.117  0.00  0.00    +0.020 A 
ATOM      9  C   UNL     1       2.158   1.441  -0.594  0.00  0.00    +0.032 A 
ATOM     10  C   UNL     1       2.188   0.062  -0.650  0.00  0.00    +0.041 A 
ATOM     11  C   UNL     1       1.217  -0.683   0.008  0.00  0.00    +0.063 A 
ATOM     12  C   UNL     1       0.207  -0.026   0.729  0.00  0.00    +0.086 A 
ATOM     13 BR   UNL     1       3.552  -0.814  -1.623  0.00  0.00    -0.048 Br
ATOM     14 BR   UNL     1       1.137   3.983   0.182  0.00  0.00    -0.050 Br
BRANCH  12  15
ATOM     15  C   UNL     1      -0.827  -0.803   1.430  0.00  0.00    +0.388 C 
ATOM     16  O   UNL     1      -1.764  -0.229   1.968  0.00  0.00    -0.241 OA
ATOM     17  O   UNL     1      -0.750  -2.023   1.476  0.00  0.00    -0.241 OA
ENDBRANCH  12  15
ENDBRANCH   1  11
BRANCH   4  18
ATOM     18  C   UNL     1       3.712  -4.789   0.193  0.00  0.00    +0.130 C 
BRANCH  18  19
ATOM     19  C   UNL     1       3.483  -6.290   0.002  0.00  0.00    +0.203 C 
BRANCH  19  20
ATOM     20  S   UNL     1       5.049  -7.175   0.236  0.00  0.00    +0.028 S 
ATOM     21  O   UNL     1       5.951  -6.860  -0.816  0.00  0.00    -0.158 OA
ATOM     22  O   UNL     1       5.460  -7.092   1.593  0.00  0.00    -0.158 OA
BRANCH  20  23
ATOM     23  N   UNL     1       4.673  -8.772   0.006  0.00  0.00    -0.208 NA
ATOM     24  H   UNL     1       3.762  -9.030  -0.204  0.00  0.00    +0.144 HD
ATOM     25  H   UNL     1       5.364  -9.448   0.082  0.00  0.00    +0.144 HD
ENDBRANCH  20  23
ENDBRANCH  19  20
ENDBRANCH  18  19
ENDBRANCH   4  18
TORSDOF 6
