REMARK  Name = ZINC12691420
REMARK  3 active torsions:
REMARK  status: ('A' for Active; 'I' for Inactive)
REMARK    1  A    between atoms: C_6  and  C_7
REMARK    2  A    between atoms: C_13  and  C_16
REMARK    3  A    between atoms: C_22  and  C_24
REMARK                            x       y       z     vdW  Elec       q    Type
REMARK                         _______ _______ _______ _____ _____    ______ ____
ROOT
ATOM      1  C   UNL     1      -2.691  -0.398  -1.852  0.00  0.00    +0.221 C 
ATOM      2  O   UNL     1      -2.863   0.661  -2.417  0.00  0.00    -0.275 OA
ATOM      3  N   UNL     1      -2.592  -0.436  -0.508  0.00  0.00    -0.294 N 
ATOM      4  C   UNL     1      -2.385  -1.649   0.303  0.00  0.00    +0.108 C 
ATOM      5  C   UNL     1      -2.950  -1.293   1.701  0.00  0.00    +0.021 C 
ATOM      6  C   UNL     1      -2.537   0.199   1.835  0.00  0.00    +0.029 C 
ATOM      7  C   UNL     1      -2.674   0.724   0.390  0.00  0.00    +0.106 C 
ENDROOT
BRANCH   7   8
ATOM      8  C   UNL     1      -1.555   1.687   0.087  0.00  0.00    -0.023 A 
ATOM      9  C   UNL     1      -0.294   1.207  -0.213  0.00  0.00    +0.009 A 
ATOM     10  C   UNL     1       0.734   2.087  -0.496  0.00  0.00    +0.050 A 
ATOM     11  C   UNL     1       0.503   3.455  -0.476  0.00  0.00    +0.162 A 
ATOM     12  C   UNL     1      -0.764   3.937  -0.171  0.00  0.00    +0.162 A 
ATOM     13  C   UNL     1      -1.790   3.049   0.114  0.00  0.00    +0.055 A 
ATOM     14  O   UNL     1      -1.014   5.275  -0.149  0.00  0.00    -0.485 OA
ATOM     15  C   UNL     1       0.124   6.140  -0.072  0.00  0.00    +0.270 C 
ATOM     16  C   UNL     1       1.167   5.654  -1.087  0.00  0.00    +0.270 C 
ATOM     17  O   UNL     1       1.525   4.309  -0.754  0.00  0.00    -0.485 OA
ENDBRANCH   7   8
BRANCH   1  24
ATOM     18  C   UNL     1      -0.782  -4.701  -2.781  0.00  0.00    +0.247 C 
ATOM     19  O   UNL     1      -0.546  -4.824  -1.595  0.00  0.00    -0.270 OA
ATOM     20  N   UNL     1      -1.090  -3.490  -3.285  0.00  0.00    -0.297 N 
ATOM     21  C   UNL     1      -1.297  -3.310  -4.729  0.00  0.00    +0.108 C 
ATOM     22  C   UNL     1      -2.659  -2.647  -4.953  0.00  0.00    +0.020 C 
ATOM     23  C   UNL     1      -2.731  -1.351  -4.142  0.00  0.00    +0.016 C 
ATOM     24  C   UNL     1      -2.588  -1.671  -2.652  0.00  0.00    +0.092 C 
ATOM     25  C   UNL     1      -1.225  -2.323  -2.402  0.00  0.00    +0.120 C 
BRANCH  18  31
ATOM     26  C   UNL     1      -1.424  -7.044  -3.330  0.00  0.00    +0.014 A 
ATOM     27  C   UNL     1      -1.378  -8.139  -4.167  0.00  0.00    +0.021 A 
ATOM     28  C   UNL     1      -0.637  -8.091  -5.336  0.00  0.00    +0.041 A 
ATOM     29  C   UNL     1       0.056  -6.941  -5.676  0.00  0.00    +0.021 A 
ATOM     30  C   UNL     1       0.013  -5.837  -4.850  0.00  0.00    +0.014 A 
ATOM     31  C   UNL     1      -0.732  -5.880  -3.670  0.00  0.00    +0.037 A 
ATOM     32 CL   UNL     1      -0.578  -9.476  -6.381  0.00  0.00    -0.084 Cl
ENDBRANCH  18  31
ENDBRANCH   1  24
TORSDOF 3
