REMARK  Name = ZINC14124092
REMARK  6 active torsions:
REMARK  status: ('A' for Active; 'I' for Inactive)
REMARK    1  A    between atoms: C_1  and  C_2
REMARK    2  A    between atoms: C_2  and  C_4
REMARK    3  A    between atoms: C_2  and  N_16
REMARK    4  A    between atoms: N_6  and  C_7
REMARK    5  A    between atoms: C_10  and  C_13
REMARK    6  A    between atoms: C_18  and  C_21
REMARK                            x       y       z     vdW  Elec       q    Type
REMARK                         _______ _______ _______ _____ _____    ______ ____
ROOT
ATOM      1  C   UNL     1       2.400  -2.740  -0.137  0.00  0.00    +0.243 C 
ATOM      2  O   UNL     1       3.445  -2.125  -0.144  0.00  0.00    -0.273 OA
ATOM      3  N   UNL     1       1.231  -2.079  -0.021  0.00  0.00    -0.284 N 
ATOM      4  H   UNL     1       0.400  -2.574   0.062  0.00  0.00    +0.155 HD
ENDROOT
BRANCH   3   5
ATOM      5  C   UNL     1       1.215  -0.685  -0.019  0.00  0.00    +0.033 A 
ATOM      6  C   UNL     1       2.141   0.021  -0.780  0.00  0.00    +0.024 A 
ATOM      7  C   UNL     1       2.128   1.398  -0.781  0.00  0.00    +0.015 A 
ATOM      8  C   UNL     1       1.183   2.086  -0.015  0.00  0.00    +0.037 A 
ATOM      9  C   UNL     1       0.255   1.374   0.749  0.00  0.00    +0.015 A 
ATOM     10  C   UNL     1       0.273  -0.002   0.745  0.00  0.00    +0.024 A 
BRANCH   8  11
ATOM     11  C   UNL     1       1.167   3.562  -0.013  0.00  0.00    +0.242 C 
ATOM     12  O   UNL     1       1.976   4.180  -0.677  0.00  0.00    -0.270 OA
ATOM     13  N   UNL     1       0.255   4.224   0.726  0.00  0.00    -0.325 N 
ATOM     14  H   UNL     1      -0.391   3.731   1.256  0.00  0.00    +0.145 HD
ATOM     15  H   UNL     1       0.244   5.194   0.728  0.00  0.00    +0.145 HD
ENDBRANCH   8  11
ENDBRANCH   3   5
BRANCH   1  17
ATOM     16  C   UNL     1       1.757  -4.857   0.982  0.00  0.00    +0.044 C 
ATOM     17  C   UNL     1       2.408  -4.242  -0.259  0.00  0.00    +0.213 C 
BRANCH  17  18
ATOM     18  N   UNL     1       3.789  -4.715  -0.372  0.00  0.00    -0.151 N 
ATOM     19  N   UNL     1       4.271  -5.378  -1.366  0.00  0.00    -0.130 NA
ATOM     20  C   UNL     1       5.541  -5.625  -1.109  0.00  0.00    +0.206 A 
ATOM     21  N   UNL     1       5.803  -5.079   0.086  0.00  0.00    -0.108 NA
ATOM     22  N   UNL     1       4.714  -4.529   0.504  0.00  0.00    -0.045 NA
BRANCH  20  23
ATOM     23  C   UNL     1       6.493  -6.363  -1.976  0.00  0.00    +0.037 A 
ATOM     24  C   UNL     1       6.070  -6.882  -3.197  0.00  0.00    +0.013 A 
ATOM     25  C   UNL     1       6.961  -7.563  -4.002  0.00  0.00    +0.001 A 
ATOM     26  C   UNL     1       8.270  -7.741  -3.592  0.00  0.00    +0.001 A 
ATOM     27  C   UNL     1       8.695  -7.234  -2.378  0.00  0.00    +0.016 A 
ATOM     28  C   UNL     1       7.813  -6.546  -1.567  0.00  0.00    +0.029 A 
ATOM     29 BR   UNL     1       8.396  -5.853   0.093  0.00  0.00    -0.050 Br
ENDBRANCH  20  23
ENDBRANCH  17  18
ENDBRANCH   1  17
TORSDOF 5
