REMARK  Name = ZINC05346025
REMARK  2 active torsions:
REMARK  status: ('A' for Active; 'I' for Inactive)
REMARK    1  A    between atoms: C_4  and  N_24
REMARK    2  A    between atoms: C_5  and  C_7
REMARK                            x       y       z     vdW  Elec       q    Type
REMARK                         _______ _______ _______ _____ _____    ______ ____
ROOT
ATOM      1  C   UNL     1       2.565   3.680   0.039  0.00  0.00    +0.184 A 
ATOM      2  N   UNL     1       3.727   3.025   0.136  0.00  0.00    -0.206 NA
ATOM      3  C   UNL     1       4.721   3.889   0.115  0.00  0.00    +0.168 A 
ATOM      4  C   UNL     1       6.189   3.747   0.186  0.00  0.00    +0.055 A 
ATOM      5  C   UNL     1       6.987   2.526   0.310  0.00  0.00    -0.024 A 
ATOM      6  C   UNL     1       8.329   2.680   0.355  0.00  0.00    -0.004 A 
ATOM      7  S   UNL     1       8.598   4.429   0.226  0.00  0.00    -0.073 S 
ATOM      8  C   UNL     1       6.905   4.952   0.124  0.00  0.00    +0.114 A 
ATOM      9  N   UNL     1       6.300   6.129   0.014  0.00  0.00    -0.228 NA
ATOM     10  C   UNL     1       5.001   6.236  -0.045  0.00  0.00    +0.226 A 
ATOM     11  N   UNL     1       4.193   5.143   0.002  0.00  0.00    -0.201 N 
ATOM     12  N   UNL     1       2.801   4.975  -0.050  0.00  0.00    -0.143 NA
ATOM     13  C   UNL     1       9.372   1.615   0.490  0.00  0.00    +0.043 C 
ATOM     14  C   UNL     1       9.093   0.500  -0.526  0.00  0.00    +0.005 C 
ATOM     15  C   UNL     1       8.173  -0.526   0.128  0.00  0.00    +0.001 C 
ATOM     16  C   UNL     1       7.225   0.169   1.103  0.00  0.00    +0.005 C 
ATOM     17  C   UNL     1       6.325   1.153   0.367  0.00  0.00    +0.037 C 
ENDROOT
BRANCH   1  22
ATOM     18  C   UNL     1      -0.149   1.080  -0.010  0.00  0.00    +0.001 A 
ATOM     19  C   UNL     1      -1.287   1.870  -0.001  0.00  0.00    +0.002 A 
ATOM     20  C   UNL     1      -1.180   3.246   0.030  0.00  0.00    +0.023 A 
ATOM     21  C   UNL     1       0.072   3.846   0.042  0.00  0.00    +0.035 A 
ATOM     22  C   UNL     1       1.223   3.050   0.027  0.00  0.00    +0.041 A 
ATOM     23  C   UNL     1       1.102   1.662   0.001  0.00  0.00    +0.013 A 
BRANCH  21  24
ATOM     24  N   UNL     1       0.182   5.236   0.068  0.00  0.00    -0.357 N 
ATOM     25  H   UNL     1       1.054   5.654  -0.004  0.00  0.00    +0.142 HD
ATOM     26  H   UNL     1      -0.613   5.784   0.158  0.00  0.00    +0.142 HD
ENDBRANCH  21  24
ENDBRANCH   1  22
TORSDOF 2
