REMARK  Name = ZINC09165701
REMARK  5 active torsions:
REMARK  status: ('A' for Active; 'I' for Inactive)
REMARK    1  A    between atoms: C_4  and  C_7
REMARK    2  A    between atoms: C_7  and  C_9
REMARK    3  A    between atoms: C_17  and  C_21
REMARK    4  A    between atoms: C_21  and  C_23
REMARK    5  A    between atoms: N_32  and  C_35
REMARK                            x       y       z     vdW  Elec       q    Type
REMARK                         _______ _______ _______ _____ _____    ______ ____
ROOT
ATOM      1  C   UNL     1       3.756   0.616  -4.484  0.00  0.00    +0.021 C 
ATOM      2  C   UNL     1       3.306   0.035  -3.349  0.00  0.00    +0.006 C 
ATOM      3  C   UNL     1       2.039   0.560  -2.722  0.00  0.00    +0.093 C 
ATOM      4  C   UNL     1       2.100   0.476  -1.191  0.00  0.00    +0.113 C 
ATOM      5  C   UNL     1       1.445   1.812  -0.723  0.00  0.00    +0.116 C 
ATOM      6  C   UNL     1       1.685   2.781  -1.890  0.00  0.00    +0.141 C 
ATOM      7  C   UNL     1       2.118   2.425  -4.390  0.00  0.00    +0.054 C 
ATOM      8  C   UNL     1       3.026   1.735  -5.111  0.00  0.00    +0.025 C 
ATOM      9  C   UNL     1      -0.018   1.432  -0.643  0.00  0.00    +0.232 C 
ATOM     10  O   UNL     1      -0.954   2.202  -0.664  0.00  0.00    -0.274 OA
ATOM     11  N   UNL     1      -0.101   0.095  -0.550  0.00  0.00    -0.210 N 
ATOM     12  C   UNL     1       1.068  -0.540  -0.727  0.00  0.00    +0.232 C 
ATOM     13  O   UNL     1       1.268  -1.723  -0.546  0.00  0.00    -0.274 OA
ATOM     14  N   UNL     1       1.591   1.884  -3.074  0.00  0.00    -0.384 NA
ATOM     15  H   UNL     1       0.583   1.779  -3.239  0.00  0.00    +0.127 HD
ENDROOT
BRANCH  11  16
ATOM     16  C   UNL     1      -1.303  -0.578  -0.291  0.00  0.00    +0.044 A 
ATOM     17  C   UNL     1      -1.936  -0.425   0.935  0.00  0.00    +0.024 A 
ATOM     18  C   UNL     1      -3.122  -1.086   1.185  0.00  0.00    +0.002 A 
ATOM     19  C   UNL     1      -3.675  -1.908   0.220  0.00  0.00    +0.000 A 
ATOM     20  C   UNL     1      -3.044  -2.066  -1.000  0.00  0.00    +0.002 A 
ATOM     21  C   UNL     1      -1.860  -1.404  -1.258  0.00  0.00    +0.024 A 
ENDBRANCH  11  16
BRANCH   1  22
ATOM     22  C   UNL     1       5.001   0.123  -5.107  0.00  0.00    +0.193 C 
ATOM     23  O   UNL     1       5.043  -0.998  -5.576  0.00  0.00    -0.287 OA
BRANCH  22  27
ATOM     24  C   UNL     1       8.433   2.620  -5.260  0.00  0.00    +0.000 A 
ATOM     25  C   UNL     1       8.446   1.392  -5.897  0.00  0.00    +0.001 A 
ATOM     26  C   UNL     1       7.335   0.576  -5.852  0.00  0.00    +0.012 A 
ATOM     27  C   UNL     1       6.195   0.991  -5.160  0.00  0.00    +0.022 A 
ATOM     28  C   UNL     1       6.187   2.235  -4.523  0.00  0.00    +0.012 A 
ATOM     29  C   UNL     1       7.307   3.038  -4.572  0.00  0.00    +0.001 A 
ENDBRANCH  22  27
ENDBRANCH   1  22
BRANCH   6  30
ATOM     30  C   UNL     1       0.467   3.645  -2.094  0.00  0.00    +0.183 C 
ATOM     31  O   UNL     1      -0.327   3.377  -2.971  0.00  0.00    -0.290 OA
BRANCH  30  32
ATOM     32  C   UNL     1       0.242   4.814  -1.231  0.00  0.00    +0.019 A 
ATOM     33  C   UNL     1       1.153   5.124  -0.215  0.00  0.00    +0.013 A 
ATOM     34  C   UNL     1       0.938   6.224   0.586  0.00  0.00    +0.020 A 
ATOM     35  C   UNL     1      -0.183   7.017   0.395  0.00  0.00    +0.041 A 
ATOM     36  C   UNL     1      -1.092   6.713  -0.606  0.00  0.00    +0.020 A 
ATOM     37  C   UNL     1      -0.887   5.619  -1.418  0.00  0.00    +0.013 A 
ATOM     38 CL   UNL     1      -0.449   8.396   1.415  0.00  0.00    -0.084 Cl
ENDBRANCH  30  32
ENDBRANCH   6  30
TORSDOF 5
