REMARK  Name = ZINC46561209
REMARK  9 active torsions:
REMARK  status: ('A' for Active; 'I' for Inactive)
REMARK    1  A    between atoms: C_1  and  C_2
REMARK    2  A    between atoms: C_5  and  C_8
REMARK    3  A    between atoms: C_8  and  N_9
REMARK    4  A    between atoms: C_14  and  C_19
REMARK    5  A    between atoms: C_16  and  C_18
REMARK    6  A    between atoms: N_21  and  C_22
REMARK    7  A    between atoms: N_21  and  C_23
REMARK    8  A    between atoms: C_23  and  C_24
REMARK    9  A    between atoms: N_26  and  C_27
REMARK                            x       y       z     vdW  Elec       q    Type
REMARK                         _______ _______ _______ _____ _____    ______ ____
ROOT
ATOM      1  N   UNL     1       5.025  -1.292   1.133  0.00  0.00    -0.242 N 
ATOM      2  C   UNL     1       5.093  -2.030  -0.020  0.00  0.00    +0.159 A 
ATOM      3  C   UNL     1       6.015  -3.067   0.226  0.00  0.00    +0.051 A 
ATOM      4  C   UNL     1       6.475  -2.909   1.551  0.00  0.00    +0.145 A 
ATOM      5  N   UNL     1       5.894  -1.865   2.070  0.00  0.00    -0.177 NA
ATOM      6  C   UNL     1       6.289  -3.996  -0.802  0.00  0.00    +0.051 A 
ATOM      7  C   UNL     1       5.628  -3.836  -2.018  0.00  0.00    +0.037 A 
ATOM      8  C   UNL     1       4.736  -2.785  -2.173  0.00  0.00    +0.041 A 
ATOM      9  N   UNL     1       4.497  -1.933  -1.200  0.00  0.00    -0.233 NA
ATOM     10  C   UNL     1       4.024  -2.615  -3.490  0.00  0.00    +0.065 C 
ENDROOT
BRANCH   6  11
ATOM     11  C   UNL     1       7.248  -5.103  -0.595  0.00  0.00    +0.248 C 
ATOM     12  O   UNL     1       8.339  -4.879  -0.109  0.00  0.00    -0.270 OA
ATOM     13  N   UNL     1       6.911  -6.360  -0.945  0.00  0.00    -0.292 N 
ATOM     14  C   UNL     1       5.632  -6.618  -1.611  0.00  0.00    +0.133 C 
BRANCH  13  15
ATOM     15  C   UNL     1       7.824  -7.470  -0.658  0.00  0.00    +0.203 C 
BRANCH  15  16
ATOM     16  C   UNL     1       7.516  -8.035   0.704  0.00  0.00    +0.235 C 
ATOM     17  O   UNL     1       6.622  -7.559   1.370  0.00  0.00    -0.274 OA
ATOM     18  N   UNL     1       8.234  -9.071   1.182  0.00  0.00    -0.282 N 
ATOM     19  H   UNL     1       8.895  -9.504   0.619  0.00  0.00    +0.155 HD
BRANCH  18  20
ATOM     20  C   UNL     1       8.028  -9.521   2.491  0.00  0.00    +0.070 A 
ATOM     21  C   UNL     1       6.745  -9.832   2.927  0.00  0.00    +0.064 A 
ATOM     22  C   UNL     1       6.545 -10.276   4.220  0.00  0.00    +0.022 A 
ATOM     23  C   UNL     1       7.619 -10.411   5.081  0.00  0.00    +0.003 A 
ATOM     24  C   UNL     1       8.896 -10.102   4.651  0.00  0.00    +0.022 A 
ATOM     25  C   UNL     1       9.105  -9.664   3.357  0.00  0.00    +0.064 A 
ATOM     26 CL   UNL     1      10.710  -9.284   2.816  0.00  0.00    -0.082 Cl
ATOM     27 CL   UNL     1       5.396  -9.662   1.847  0.00  0.00    -0.082 Cl
ENDBRANCH  18  20
ENDBRANCH  15  16
ENDBRANCH  13  15
ENDBRANCH   6  11
BRANCH   1  28
ATOM     28  C   UNL     1       4.191  -0.107   1.347  0.00  0.00    +0.181 C 
BRANCH  28  33
ATOM     29  C   UNL     1       7.135   4.624  -0.183  0.00  0.00    +0.044 C 
ATOM     30  C   UNL     1       6.367   3.390   0.216  0.00  0.00    -0.050 A 
ATOM     31  C   UNL     1       5.592   2.727  -0.716  0.00  0.00    +0.004 A 
ATOM     32  C   UNL     1       4.888   1.595  -0.350  0.00  0.00    +0.006 A 
ATOM     33  C   UNL     1       4.960   1.126   0.948  0.00  0.00    -0.026 A 
ATOM     34  C   UNL     1       5.736   1.789   1.881  0.00  0.00    +0.006 A 
ATOM     35  C   UNL     1       6.443   2.918   1.514  0.00  0.00    +0.004 A 
ENDBRANCH  28  33
ENDBRANCH   1  28
TORSDOF 6
