REMARK  Name = ZINC28057379
REMARK  2 active torsions:
REMARK  status: ('A' for Active; 'I' for Inactive)
REMARK    1  A    between atoms: C_5  and  C_7
REMARK    2  A    between atoms: C_18  and  C_20
REMARK                            x       y       z     vdW  Elec       q    Type
REMARK                         _______ _______ _______ _____ _____    ______ ____
ROOT
ATOM      1  C   UNL     1       4.902   3.904  -0.362  0.00  0.00    +0.177 C 
ATOM      2  C   UNL     1       3.541   3.252  -0.339  0.00  0.00    +0.026 C 
ATOM      3  C   UNL     1       2.437   3.916   0.009  0.00  0.00    +0.050 C 
ATOM      4  C   UNL     1       1.146   3.187   0.010  0.00  0.00    +0.038 A 
ATOM      5  C   UNL     1      -0.069   3.859   0.023  0.00  0.00    +0.013 A 
ATOM      6  C   UNL     1      -1.247   3.137   0.030  0.00  0.00    +0.001 A 
ATOM      7  C   UNL     1      -1.218   1.754   0.017  0.00  0.00    +0.004 A 
ATOM      8  C   UNL     1      -0.013   1.076   0.008  0.00  0.00    +0.046 A 
ATOM      9  C   UNL     1       1.174   1.786   0.000  0.00  0.00    +0.131 A 
ATOM     10  O   UNL     1       2.377   1.158  -0.018  0.00  0.00    -0.479 OA
ATOM     11  C   UNL     1       3.431   1.797  -0.737  0.00  0.00    +0.241 C 
ATOM     12  N   UNL     1       2.461   5.266   0.378  0.00  0.00    -0.282 N 
ATOM     13  C   UNL     1       3.698   5.828   0.647  0.00  0.00    +0.240 A 
ATOM     14  N   UNL     1       4.852   5.194   0.311  0.00  0.00    -0.201 N 
ATOM     15  N   UNL     1       5.877   6.034   0.741  0.00  0.00    -0.042 NA
ATOM     16  N   UNL     1       5.308   7.067   1.274  0.00  0.00    -0.021 NA
ATOM     17  N   UNL     1       4.025   6.951   1.219  0.00  0.00    -0.092 NA
ATOM     18  H   UNL     1       1.522   5.835   0.444  0.00  0.00    +0.155 HD
ENDROOT
BRANCH   1  23
ATOM     19  C   UNL     1       4.974   5.065  -3.954  0.00  0.00    +0.001 A 
ATOM     20  C   UNL     1       6.133   4.468  -4.415  0.00  0.00    +0.003 A 
ATOM     21  C   UNL     1       6.894   3.688  -3.566  0.00  0.00    +0.039 A 
ATOM     22  C   UNL     1       6.496   3.504  -2.252  0.00  0.00    +0.129 A 
ATOM     23  C   UNL     1       5.336   4.102  -1.792  0.00  0.00    +0.017 A 
ATOM     24  C   UNL     1       4.573   4.878  -2.644  0.00  0.00    +0.009 A 
ATOM     25  F   UNL     1       7.240   2.742  -1.421  0.00  0.00    -0.205 F 
ENDBRANCH   1  23
BRANCH  11  26
ATOM     26  C   UNL     1       3.150   1.707  -2.215  0.00  0.00    +0.034 A 
ATOM     27  C   UNL     1       4.009   1.454  -3.233  0.00  0.00    +0.015 A 
ATOM     28  C   UNL     1       3.522   1.415  -4.526  0.00  0.00    +0.008 A 
ATOM     29  C   UNL     1       2.202   1.640  -4.739  0.00  0.00    +0.045 A 
ATOM     30  S   UNL     1       1.602   1.912  -3.080  0.00  0.00    -0.098 S 
ENDBRANCH  11  26
TORSDOF 2
