REMARK  Name = ZINC04724133
REMARK  3 active torsions:
REMARK  status: ('A' for Active; 'I' for Inactive)
REMARK    1  A    between atoms: C_6  and  N_7
REMARK    2  A    between atoms: C_16  and  C_22
REMARK    3  A    between atoms: C_22  and  O_23
REMARK                            x       y       z     vdW  Elec       q    Type
REMARK                         _______ _______ _______ _____ _____    ______ ____
ROOT
ATOM      1  N   UNL     1       1.735  -1.525  -2.837  0.00  0.00    -0.210 N 
ATOM      2  C   UNL     1       2.607  -0.544  -2.396  0.00  0.00    +0.233 C 
ATOM      3  O   UNL     1       3.584  -0.097  -2.958  0.00  0.00    -0.274 OA
ATOM      4  C   UNL     1       2.076  -0.186  -1.114  0.00  0.00    +0.123 C 
ATOM      5  C   UNL     1       2.130   0.666   0.085  0.00  0.00    +0.155 C 
ATOM      6  C   UNL     1       1.253   1.913   0.000  0.00  0.00    +0.004 C 
ATOM      7  C   UNL     1      -0.019   1.551   0.011  0.00  0.00    +0.009 C 
ATOM      8  C   UNL     1       0.002  -0.004   0.002  0.00  0.00    +0.123 C 
ATOM      9  C   UNL     1       0.527  -0.218  -1.425  0.00  0.00    +0.128 C 
ATOM     10  C   UNL     1       0.552  -1.522  -2.136  0.00  0.00    +0.233 C 
ATOM     11  O   UNL     1      -0.288  -2.395  -2.106  0.00  0.00    -0.274 OA
ATOM     12  O   UNL     1       1.176  -0.172   0.883  0.00  0.00    -0.358 OA
ENDROOT
BRANCH   1  18
ATOM     13  C   UNL     1       1.092  -3.375  -4.253  0.00  0.00    +0.025 A 
ATOM     14  C   UNL     1       1.378  -4.250  -5.283  0.00  0.00    +0.016 A 
ATOM     15  C   UNL     1       2.597  -4.179  -5.934  0.00  0.00    +0.013 A 
ATOM     16  C   UNL     1       3.530  -3.229  -5.559  0.00  0.00    +0.016 A 
ATOM     17  C   UNL     1       3.248  -2.349  -4.533  0.00  0.00    +0.025 A 
ATOM     18  C   UNL     1       2.025  -2.417  -3.878  0.00  0.00    +0.044 A 
ATOM     19  I   UNL     1       3.030  -5.513  -7.490  0.00  0.00    -0.044 I 
ENDBRANCH   1  18
BRANCH   8  20
ATOM     20  C   UNL     1      -1.287  -0.735   0.383  0.00  0.00    +0.195 C 
BRANCH  20  21
ATOM     21  O   UNL     1      -1.748  -0.259   1.649  0.00  0.00    -0.392 OA
ATOM     22  H   UNL     1      -2.563  -0.679   1.954  0.00  0.00    +0.210 HD
ENDBRANCH  20  21
ENDBRANCH   8  20
TORSDOF 3
