REMARK  Name = ZINC28958890
REMARK  9 active torsions:
REMARK  status: ('A' for Active; 'I' for Inactive)
REMARK    1  A    between atoms: C_1  and  C_2
REMARK    2  A    between atoms: C_2  and  C_3
REMARK    3  A    between atoms: C_3  and  N_4
REMARK    4  A    between atoms: N_4  and  C_5
REMARK    5  A    between atoms: N_4  and  C_13
REMARK    6  A    between atoms: C_5  and  C_6
REMARK    7  A    between atoms: C_6  and  C_7
REMARK    8  A    between atoms: C_13  and  C_14
REMARK    9  A    between atoms: N_16  and  C_17
REMARK                            x       y       z     vdW  Elec       q    Type
REMARK                         _______ _______ _______ _____ _____    ______ ____
ROOT
ATOM      1  N   UNL     1       1.533   1.347   0.595  0.00  0.00    +0.386 N 
ATOM      2  H   UNL     1       1.058   0.668  -0.128  0.00  0.00    -0.081 HD
ENDROOT
BRANCH   1   3
ATOM      3  C   UNL     1       1.255   0.837   1.944  0.00  0.00    -0.078 C 
BRANCH   3   5
ATOM      4  C   UNL     1      -0.501  -0.121   3.441  0.00  0.00    +0.002 C 
ATOM      5  C   UNL     1      -0.204   0.387   2.029  0.00  0.00    -0.022 C 
ENDBRANCH   3   5
ENDBRANCH   1   3
BRANCH   1   6
ATOM      6  C   UNL     1       2.977   1.357   0.323  0.00  0.00    -0.069 C 
BRANCH   6   7
ATOM      7  C   UNL     1       3.498  -0.080   0.283  0.00  0.00    +0.078 C 
BRANCH   7   8
ATOM      8  C   UNL     1       4.979  -0.070   0.004  0.00  0.00    +0.219 C 
ATOM      9  O   UNL     1       5.560   0.984  -0.148  0.00  0.00    -0.275 OA
ATOM     10  N   UNL     1       5.658  -1.231  -0.076  0.00  0.00    -0.240 N 
ATOM     11  C   UNL     1       6.983  -1.222  -0.326  0.00  0.00    +0.303 C 
ATOM     12  O   UNL     1       7.565  -0.166  -0.478  0.00  0.00    -0.253 OA
ATOM     13  N   UNL     1       7.662  -2.383  -0.406  0.00  0.00    -0.313 N 
ATOM     14  H   UNL     1       5.131  -2.187   0.061  0.00  0.00    +0.159 HD
ATOM     15  H   UNL     1       8.743  -2.376  -0.610  0.00  0.00    +0.146 HD
ATOM     16  H   UNL     1       7.135  -3.339  -0.269  0.00  0.00    +0.146 HD
ENDBRANCH   7   8
ENDBRANCH   6   7
ENDBRANCH   1   6
BRANCH   1  17
ATOM     17  C   UNL     1       0.953   2.683   0.407  0.00  0.00    +0.019 C 
BRANCH  17  18
ATOM     18  C   UNL     1       0.772   2.950  -1.065  0.00  0.00    +0.201 C 
ATOM     19  O   UNL     1       1.119   2.121  -1.879  0.00  0.00    -0.278 OA
ATOM     20  N   UNL     1       0.230   4.114  -1.477  0.00  0.00    -0.286 N 
ATOM     21  H   UNL     1      -0.000   4.903  -0.746  0.00  0.00    +0.155 HD
BRANCH  20  22
ATOM     22  C   UNL     1      -0.040   4.317  -2.836  0.00  0.00    +0.052 A 
ATOM     23  C   UNL     1      -0.155   3.231  -3.693  0.00  0.00    +0.026 A 
ATOM     24  C   UNL     1      -0.422   3.434  -5.032  0.00  0.00    +0.022 A 
ATOM     25  C   UNL     1      -0.575   4.720  -5.522  0.00  0.00    +0.042 A 
ATOM     26  C   UNL     1      -0.461   5.805  -4.671  0.00  0.00    +0.041 A 
ATOM     27  C   UNL     1      -0.200   5.607  -3.328  0.00  0.00    +0.064 A 
ATOM     28 CL   UNL     1      -0.064   6.968  -2.259  0.00  0.00    -0.082 Cl
ATOM     29 CL   UNL     1      -0.910   4.971  -7.207  0.00  0.00    -0.083 Cl
ENDBRANCH  20  22
ENDBRANCH  17  18
ENDBRANCH   1  17
TORSDOF 8
