REMARK  Name = ZINC02963654
REMARK  6 active torsions:
REMARK  status: ('A' for Active; 'I' for Inactive)
REMARK    1  A    between atoms: C_1  and  C_2
REMARK    2  A    between atoms: C_6  and  N_9
REMARK    3  A    between atoms: C_7  and  C_8
REMARK    4  A    between atoms: C_16  and  C_26
REMARK    5  A    between atoms: C_23  and  O_24
REMARK    6  A    between atoms: O_24  and  C_25
REMARK                            x       y       z     vdW  Elec       q    Type
REMARK                         _______ _______ _______ _____ _____    ______ ____
ROOT
ATOM      1  N   UNL     1      -0.782   3.038   1.254  0.00  0.00    -0.244 N 
ATOM      2  C   UNL     1      -1.835   3.722   1.710  0.00  0.00    +0.141 C 
ATOM      3  S   UNL     1      -1.847   5.427   1.557  0.00  0.00    -0.018 S 
ATOM      4  N   UNL     1      -2.887   3.116   2.287  0.00  0.00    -0.319 N 
ATOM      5  C   UNL     1      -2.865   1.660   2.499  0.00  0.00    +0.111 C 
ATOM      6  C   UNL     1      -2.161   1.025   1.289  0.00  0.00    +0.096 C 
ATOM      7  C   UNL     1      -0.729   1.579   1.267  0.00  0.00    +0.183 C 
ATOM      8  O   UNL     1      -0.038   1.106   2.420  0.00  0.00    -0.464 OA
ATOM      9  C   UNL     1      -0.670   1.146   3.622  0.00  0.00    +0.170 A 
ATOM     10  C   UNL     1      -2.026   1.395   3.729  0.00  0.00    +0.018 A 
ATOM     11  C   UNL     1      -2.634   1.415   4.972  0.00  0.00    +0.009 A 
ATOM     12  C   UNL     1      -1.889   1.193   6.115  0.00  0.00    +0.004 A 
ATOM     13  C   UNL     1      -0.532   0.949   6.019  0.00  0.00    +0.049 A 
ATOM     14  C   UNL     1       0.080   0.924   4.778  0.00  0.00    +0.162 A 
ATOM     15  C   UNL     1      -0.013   1.086   0.008  0.00  0.00    +0.079 C 
ATOM     16  H   UNL     1      -3.658   3.637   2.562  0.00  0.00    +0.148 HD
ENDROOT
BRANCH   1  22
ATOM     17  C   UNL     1       3.546   5.255   1.978  0.00  0.00    +0.044 C 
ATOM     18  C   UNL     1       2.418   4.839   1.069  0.00  0.00    -0.046 A 
ATOM     19  C   UNL     1       2.459   5.163  -0.275  0.00  0.00    +0.004 A 
ATOM     20  C   UNL     1       1.426   4.784  -1.112  0.00  0.00    +0.002 A 
ATOM     21  C   UNL     1       0.353   4.074  -0.610  0.00  0.00    +0.024 A 
ATOM     22  C   UNL     1       0.306   3.752   0.740  0.00  0.00    +0.042 A 
ATOM     23  C   UNL     1       1.345   4.135   1.579  0.00  0.00    -0.026 A 
ATOM     24  C   UNL     1       1.302   3.782   3.043  0.00  0.00    +0.046 C 
ENDBRANCH   1  22
BRANCH  14  25
ATOM     25  O   UNL     1       1.416   0.683   4.684  0.00  0.00    -0.491 OA
ATOM     26  C   UNL     1       2.123   0.465   5.907  0.00  0.00    +0.277 C 
ENDBRANCH  14  25
TORSDOF 2
