REMARK  Name = ZINC25383446
REMARK  11 active torsions:
REMARK  status: ('A' for Active; 'I' for Inactive)
REMARK    1  A    between atoms: C_1  and  C_2
REMARK    2  A    between atoms: C_5  and  S_24
REMARK    3  A    between atoms: C_7  and  C_8
REMARK    4  A    between atoms: N_10  and  C_11
REMARK    5  A    between atoms: C_11  and  C_12
REMARK    6  A    between atoms: C_12  and  C_14
REMARK    7  A    between atoms: C_12  and  N_19
REMARK    8  A    between atoms: S_24  and  N_27
REMARK    9  A    between atoms: N_27  and  C_28
REMARK   10  A    between atoms: C_28  and  C_29
REMARK   11  A    between atoms: C_28  and  C_30
REMARK                            x       y       z     vdW  Elec       q    Type
REMARK                         _______ _______ _______ _____ _____    ______ ____
ROOT
ATOM      1  C   UNL     1      -3.062   2.374  -5.082  0.00  0.00    +0.244 C 
ATOM      2  O   UNL     1      -3.152   3.122  -6.035  0.00  0.00    -0.270 OA
ATOM      3  N   UNL     1      -3.763   1.222  -5.061  0.00  0.00    -0.313 N 
ATOM      4  H   UNL     1      -3.681   0.545  -4.198  0.00  0.00    +0.149 HD
ENDROOT
BRANCH   1  11
ATOM      5  C   UNL     1      -1.357   4.704  -5.261  0.00  0.00    +0.044 C 
ATOM      6  C   UNL     1      -1.357   3.847  -4.021  0.00  0.00    -0.038 A 
ATOM      7  C   UNL     1      -0.539   4.170  -2.958  0.00  0.00    +0.006 A 
ATOM      8  C   UNL     1      -0.541   3.388  -1.817  0.00  0.00    +0.029 A 
ATOM      9  C   UNL     1      -1.355   2.271  -1.738  0.00  0.00    +0.106 A 
ATOM     10  C   UNL     1      -2.177   1.937  -2.795  0.00  0.00    +0.041 A 
ATOM     11  C   UNL     1      -2.183   2.726  -3.946  0.00  0.00    +0.041 A 
BRANCH   9  12
ATOM     12  S   UNL     1      -1.345   1.277  -0.283  0.00  0.00    +0.059 S 
ATOM     13  O   UNL     1      -2.598   0.607  -0.241  0.00  0.00    -0.153 OA
ATOM     14  O   UNL     1      -0.892   2.111   0.774  0.00  0.00    -0.153 OA
BRANCH  12  15
ATOM     15  N   UNL     1      -0.190   0.110  -0.495  0.00  0.00    -0.187 NA
ATOM     16  H   UNL     1      -0.502  -0.922  -0.712  0.00  0.00    +0.148 HD
BRANCH  15  17
ATOM     17  C   UNL     1       1.221   0.488  -0.610  0.00  0.00    +0.070 C 
ATOM     18  C   UNL     1       2.091  -0.587   0.043  0.00  0.00    +0.025 C 
ATOM     19  C   UNL     1       1.595   0.618  -2.088  0.00  0.00    +0.025 C 
ENDBRANCH  15  17
ENDBRANCH  12  15
ENDBRANCH   9  12
ENDBRANCH   1  11
BRANCH   3  20
ATOM     20  C   UNL     1      -4.633   0.874  -6.186  0.00  0.00    +0.094 C 
BRANCH  20  21
ATOM     21  C   UNL     1      -5.405  -0.406  -5.857  0.00  0.00    -0.013 C 
BRANCH  21  22
ATOM     22  N   UNL     1      -6.180  -0.827  -7.032  0.00  0.00    +0.386 N 
ATOM     23  C   UNL     1      -5.289  -1.086  -8.192  0.00  0.00    -0.078 C 
ATOM     24  C   UNL     1      -6.154  -1.986  -9.109  0.00  0.00    -0.020 C 
ATOM     25  C   UNL     1      -6.912  -2.880  -8.100  0.00  0.00    -0.020 C 
ATOM     26  C   UNL     1      -6.886  -2.100  -6.772  0.00  0.00    -0.078 C 
ATOM     27  H   UNL     1      -6.886  -0.008  -7.233  0.00  0.00    -0.081 HD
ENDBRANCH  21  22
BRANCH  21  28
ATOM     28  C   UNL     1      -6.341  -0.145  -4.705  0.00  0.00    -0.022 A 
ATOM     29  C   UNL     1      -6.184  -0.448  -3.393  0.00  0.00    +0.009 A 
ATOM     30  C   UNL     1      -7.186  -0.109  -2.502  0.00  0.00    +0.008 A 
ATOM     31  C   UNL     1      -8.295   0.516  -2.968  0.00  0.00    +0.045 A 
ATOM     32  S   UNL     1      -7.939   0.649  -4.712  0.00  0.00    -0.103 S 
ENDBRANCH  21  28
ENDBRANCH  20  21
ENDBRANCH   3  20
TORSDOF 8
