REMARK  Name = ZINC44184656
REMARK  16 active torsions:
REMARK  status: ('A' for Active; 'I' for Inactive)
REMARK    1  A    between atoms: C_1  and  C_2
REMARK    2  A    between atoms: C_13  and  C_22
REMARK    3  A    between atoms: C_15  and  O_21
REMARK    4  A    between atoms: C_17  and  O_20
REMARK    5  A    between atoms: C_23  and  O_40
REMARK    6  A    between atoms: C_26  and  C_28
REMARK    7  A    between atoms: C_28  and  C_29
REMARK    8  A    between atoms: C_28  and  C_30
REMARK    9  A    between atoms: C_28  and  O_39
REMARK   10  A    between atoms: C_30  and  C_32
REMARK   11  A    between atoms: C_30  and  O_38
REMARK   12  A    between atoms: C_32  and  C_33
REMARK   13  A    between atoms: C_33  and  C_34
REMARK   14  A    between atoms: C_34  and  C_35
REMARK   15  A    between atoms: C_34  and  C_36
REMARK   16  A    between atoms: C_34  and  O_37
REMARK                            x       y       z     vdW  Elec       q    Type
REMARK                         _______ _______ _______ _____ _____    ______ ____
ROOT
ATOM      1  C   UNL     1      -1.503   1.936  -0.165  0.00  0.00    +0.015 C 
ATOM      2  C   UNL     1      -0.916   0.529  -0.027  0.00  0.00    +0.006 C 
ATOM      3  C   UNL     1       0.014   0.254  -1.186  0.00  0.00    +0.011 C 
ATOM      4  C   UNL     1       0.970   1.453  -1.298  0.00  0.00    +0.009 C 
ATOM      5  C   UNL     1       1.761   1.681  -0.011  0.00  0.00    +0.025 C 
ATOM      6  C   UNL     1       0.882   1.619   1.210  0.00  0.00    -0.031 C 
ATOM      7  C   UNL     1       0.932   2.498   2.204  0.00  0.00    +0.049 C 
ATOM      8  C   UNL     1       1.892   3.607   2.156  0.00  0.00    +0.160 C 
ATOM      9  O   UNL     1       1.741   4.608   2.825  0.00  0.00    -0.292 OA
ATOM     10  C   UNL     1       3.079   3.439   1.232  0.00  0.00    +0.069 C 
ATOM     11  C   UNL     1       2.544   2.978  -0.119  0.00  0.00    -0.013 C 
ATOM     12  C   UNL     1       3.723   2.795  -1.080  0.00  0.00    +0.041 C 
ATOM     13  C   UNL     1       4.678   1.741  -0.515  0.00  0.00    +0.144 C 
ATOM     14  C   UNL     1       5.197   2.200   0.849  0.00  0.00    +0.144 C 
ATOM     15  C   UNL     1       4.035   2.400   1.820  0.00  0.00    +0.046 C 
ATOM     16  C   UNL     1       1.628   4.061  -0.692  0.00  0.00    +0.012 C 
ATOM     17  C   UNL     1      -0.068   0.447   1.273  0.00  0.00    +0.093 C 
ATOM     18  C   UNL     1      -1.160   0.493   2.344  0.00  0.00    +0.040 C 
ATOM     19  C   UNL     1      -2.253  -0.448   1.762  0.00  0.00    +0.010 C 
ATOM     20  C   UNL     1      -2.038  -0.466   0.226  0.00  0.00    +0.032 C 
ENDROOT
BRANCH  14  21
ATOM     21  O   UNL     1       6.087   1.214   1.376  0.00  0.00    -0.389 OA
ATOM     22  H   UNL     1       6.859   1.042   0.820  0.00  0.00    +0.210 HD
ENDBRANCH  14  21
BRANCH  13  23
ATOM     23  O   UNL     1       5.779   1.568  -1.410  0.00  0.00    -0.389 OA
ATOM     24  H   UNL     1       6.426   0.914  -1.114  0.00  0.00    +0.210 HD
ENDBRANCH  13  23
BRANCH  20  25
ATOM     25  C   UNL     1      -1.623  -1.864  -0.236  0.00  0.00    +0.092 C 
ATOM     26  C   UNL     1      -1.286  -1.829  -1.728  0.00  0.00    +0.044 C 
BRANCH  25  27
ATOM     27  O   UNL     1      -0.475  -2.288   0.501  0.00  0.00    -0.386 OA
ATOM     28  H   UNL     1      -0.616  -2.333   1.457  0.00  0.00    +0.210 HD
ENDBRANCH  25  27
BRANCH  25  29
ATOM     29  C   UNL     1      -2.774  -2.843   0.004  0.00  0.00    +0.146 C 
BRANCH  29  30
ATOM     30  O   UNL     1      -3.052  -2.918   1.404  0.00  0.00    -0.389 OA
ATOM     31  H   UNL     1      -2.304  -3.220   1.938  0.00  0.00    +0.210 HD
ENDBRANCH  29  30
BRANCH  29  32
ATOM     32  C   UNL     1      -2.381  -4.229  -0.512  0.00  0.00    +0.037 C 
BRANCH  32  33
ATOM     33  C   UNL     1      -3.575  -5.177  -0.387  0.00  0.00    +0.037 C 
BRANCH  33  34
ATOM     34  C   UNL     1      -3.182  -6.563  -0.903  0.00  0.00    +0.061 C 
ATOM     35  C   UNL     1      -4.408  -7.477  -0.894  0.00  0.00    +0.041 C 
ATOM     36  C   UNL     1      -2.647  -6.442  -2.331  0.00  0.00    +0.041 C 
BRANCH  34  37
ATOM     37  O   UNL     1      -2.169  -7.116  -0.060  0.00  0.00    -0.389 OA
ATOM     38  H   UNL     1      -2.439  -7.221   0.862  0.00  0.00    +0.210 HD
ENDBRANCH  34  37
ENDBRANCH  33  34
ENDBRANCH  32  33
ENDBRANCH  29  32
ENDBRANCH  25  29
ENDBRANCH  20  25
BRANCH  17  39
ATOM     39  O   UNL     1       0.660  -0.781   1.331  0.00  0.00    -0.384 OA
ATOM     40  H   UNL     1       1.205  -0.878   2.124  0.00  0.00    +0.211 HD
ENDBRANCH  17  39
TORSDOF 11
