REMARK  Name = ZINC32964347
REMARK  8 active torsions:
REMARK  status: ('A' for Active; 'I' for Inactive)
REMARK    1  A    between atoms: C_1  and  C_2
REMARK    2  A    between atoms: C_6  and  O_8
REMARK    3  A    between atoms: O_8  and  C_9
REMARK    4  A    between atoms: C_9  and  C_10
REMARK    5  A    between atoms: C_16  and  C_17
REMARK    6  A    between atoms: N_21  and  C_22
REMARK    7  A    between atoms: C_25  and  C_29
REMARK    8  A    between atoms: C_26  and  C_28
REMARK                            x       y       z     vdW  Elec       q    Type
REMARK                         _______ _______ _______ _____ _____    ______ ____
ROOT
ATOM      1  C   UNL     1      -2.090  -3.586   4.505  0.00  0.00    +0.137 C 
ATOM      2  N   UNL     1      -1.619  -3.200   5.656  0.00  0.00    -0.166 NA
ATOM      3  N   UNL     1      -1.236  -4.114   6.615  0.00  0.00    -0.152 N 
ATOM      4  C   UNL     1      -0.800  -3.807   7.921  0.00  0.00    +0.153 C 
ATOM      5  N   UNL     1      -1.089  -2.686   8.530  0.00  0.00    -0.283 NA
ATOM      6  C   UNL     1       0.022  -4.883   8.537  0.00  0.00    +0.082 C 
ATOM      7  C   UNL     1       1.054  -4.599   9.417  0.00  0.00    +0.042 C 
ATOM      8  C   UNL     1      -0.321  -6.273   8.161  0.00  0.00    +0.273 C 
ATOM      9  O   UNL     1      -0.057  -7.208   8.901  0.00  0.00    -0.268 OA
ATOM     10  N   UNL     1      -0.933  -6.478   6.977  0.00  0.00    -0.152 NA
ATOM     11  C   UNL     1      -1.316  -5.446   6.269  0.00  0.00    +0.181 C 
ATOM     12  S   UNL     1      -2.042  -5.367   4.653  0.00  0.00    -0.035 S 
ATOM     13  H   UNL     1      -1.690  -2.049   8.113  0.00  0.00    +0.188 HD
ENDROOT
BRANCH   7  14
ATOM     14  C   UNL     1       1.439  -3.264   9.643  0.00  0.00    +0.047 A 
ATOM     15  C   UNL     1       1.381  -2.586  10.853  0.00  0.00    +0.027 A 
ATOM     16  C   UNL     1       1.857  -1.295  10.622  0.00  0.00    +0.020 A 
ATOM     17  C   UNL     1       2.192  -1.199   9.310  0.00  0.00    +0.092 A 
ATOM     18  N   UNL     1       1.949  -2.390   8.704  0.00  0.00    -0.316 N 
BRANCH  18  19
ATOM     19  C   UNL     1       2.175  -2.681   7.353  0.00  0.00    +0.047 A 
ATOM     20  C   UNL     1       2.966  -3.766   6.997  0.00  0.00    +0.026 A 
ATOM     21  C   UNL     1       3.186  -4.050   5.664  0.00  0.00    +0.005 A 
ATOM     22  C   UNL     1       2.620  -3.256   4.683  0.00  0.00    -0.047 A 
ATOM     23  C   UNL     1       1.832  -2.175   5.034  0.00  0.00    -0.046 A 
ATOM     24  C   UNL     1       1.603  -1.889   6.366  0.00  0.00    +0.029 A 
ATOM     25  C   UNL     1       1.218  -1.313   3.962  0.00  0.00    +0.044 C 
ATOM     26  C   UNL     1       2.863  -3.569   3.229  0.00  0.00    +0.044 C 
ENDBRANCH  18  19
ENDBRANCH   7  14
BRANCH   1  27
ATOM     27  C   UNL     1      -2.562  -2.745   3.346  0.00  0.00    +0.293 C 
BRANCH  27  28
ATOM     28  O   UNL     1      -2.519  -1.364   3.711  0.00  0.00    -0.485 OA
BRANCH  28  34
ATOM     29  C   UNL     1      -3.285   3.278   2.414  0.00  0.00    +0.044 C 
ATOM     30  C   UNL     1      -3.302   1.804   2.103  0.00  0.00    -0.047 A 
ATOM     31  C   UNL     1      -3.721   1.365   0.861  0.00  0.00    +0.003 A 
ATOM     32  C   UNL     1      -3.738   0.013   0.572  0.00  0.00    +0.004 A 
ATOM     33  C   UNL     1      -3.336  -0.903   1.525  0.00  0.00    +0.045 A 
ATOM     34  C   UNL     1      -2.915  -0.465   2.772  0.00  0.00    +0.121 A 
ATOM     35  C   UNL     1      -2.893   0.892   3.057  0.00  0.00    +0.049 A 
ENDBRANCH  28  34
ENDBRANCH  27  28
ENDBRANCH   1  27
TORSDOF 5
