REMARK  Name = ZINC16712101
REMARK  7 active torsions:
REMARK  status: ('A' for Active; 'I' for Inactive)
REMARK    1  A    between atoms: C_1  and  C_2
REMARK    2  A    between atoms: C_5  and  N_8
REMARK    3  A    between atoms: C_18  and  S_19
REMARK    4  A    between atoms: S_19  and  C_20
REMARK    5  A    between atoms: C_20  and  C_21
REMARK    6  A    between atoms: N_23  and  N_24
REMARK    7  A    between atoms: C_25  and  C_26
REMARK                            x       y       z     vdW  Elec       q    Type
REMARK                         _______ _______ _______ _____ _____    ______ ____
ROOT
ATOM      1  N   UNL     1      -0.481   9.895  -0.918  0.00  0.00    -0.255 N 
ATOM      2  C   UNL     1      -1.651  10.366  -0.427  0.00  0.00    +0.267 A 
ATOM      3  O   UNL     1      -1.774  11.531  -0.097  0.00  0.00    -0.267 OA
ATOM      4  C   UNL     1      -2.767   9.419  -0.307  0.00  0.00    +0.065 A 
ATOM      5  C   UNL     1      -4.012   9.806   0.187  0.00  0.00    +0.015 A 
ATOM      6  C   UNL     1      -5.018   8.884   0.278  0.00  0.00    +0.001 A 
ATOM      7  C   UNL     1      -4.812   7.568  -0.116  0.00  0.00    +0.002 A 
ATOM      8  C   UNL     1      -3.602   7.161  -0.604  0.00  0.00    +0.028 A 
ATOM      9  C   UNL     1      -2.554   8.080  -0.709  0.00  0.00    +0.079 A 
ATOM     10  N   UNL     1      -1.341   7.721  -1.191  0.00  0.00    -0.223 NA
ATOM     11  C   UNL     1      -0.359   8.583  -1.284  0.00  0.00    +0.177 A 
ENDROOT
BRANCH   1  16
ATOM     12  C   UNL     1       3.954  13.394  -1.460  0.00  0.00    +0.044 C 
ATOM     13  C   UNL     1       2.776  12.464  -1.317  0.00  0.00    -0.050 A 
ATOM     14  C   UNL     1       1.802  12.429  -2.297  0.00  0.00    +0.005 A 
ATOM     15  C   UNL     1       0.721  11.579  -2.168  0.00  0.00    +0.026 A 
ATOM     16  C   UNL     1       0.614  10.759  -1.052  0.00  0.00    +0.052 A 
ATOM     17  C   UNL     1       1.591  10.801  -0.067  0.00  0.00    +0.026 A 
ATOM     18  C   UNL     1       2.672  11.649  -0.204  0.00  0.00    +0.005 A 
ENDBRANCH   1  16
BRANCH  11  19
ATOM     19  S   UNL     1       1.189   8.028  -1.918  0.00  0.00    -0.078 S 
BRANCH  19  20
ATOM     20  C   UNL     1       0.796   6.288  -2.226  0.00  0.00    +0.174 C 
BRANCH  20  21
ATOM     21  C   UNL     1       2.009   5.591  -2.787  0.00  0.00    +0.242 C 
ATOM     22  O   UNL     1       3.037   6.210  -2.962  0.00  0.00    -0.273 OA
ATOM     23  N   UNL     1       1.950   4.280  -3.095  0.00  0.00    -0.206 N 
ATOM     24  H   UNL     1       1.152   3.769  -2.890  0.00  0.00    +0.177 HD
BRANCH  23  25
ATOM     25  N   UNL     1       3.043   3.657  -3.712  0.00  0.00    -0.188 NA
ATOM     26  C   UNL     1       2.968   2.407  -4.054  0.00  0.00    +0.142 C 
BRANCH  26  27
ATOM     27  C   UNL     1       1.693   1.680  -3.917  0.00  0.00    +0.048 A 
ATOM     28  C   UNL     1       0.525   2.195  -4.489  0.00  0.00    +0.133 A 
ATOM     29  C   UNL     1      -0.666   1.507  -4.356  0.00  0.00    +0.039 A 
ATOM     30  C   UNL     1      -0.705   0.313  -3.659  0.00  0.00    +0.004 A 
ATOM     31  C   UNL     1       0.447  -0.203  -3.091  0.00  0.00    +0.021 A 
ATOM     32  C   UNL     1       1.645   0.473  -3.215  0.00  0.00    +0.052 A 
ATOM     33 CL   UNL     1       3.087  -0.176  -2.500  0.00  0.00    -0.083 Cl
ATOM     34  F   UNL     1       0.561   3.362  -5.170  0.00  0.00    -0.205 F 
ENDBRANCH  26  27
ENDBRANCH  23  25
ENDBRANCH  20  21
ENDBRANCH  19  20
ENDBRANCH  11  19
TORSDOF 6
