REMARK  Name = ZINC40259471
REMARK  3 active torsions:
REMARK  status: ('A' for Active; 'I' for Inactive)
REMARK    1  A    between atoms: C_2  and  C_9
REMARK    2  A    between atoms: C_9  and  C_11
REMARK    3  A    between atoms: C_9  and  O_22
REMARK                            x       y       z     vdW  Elec       q    Type
REMARK                         _______ _______ _______ _____ _____    ______ ____
ROOT
ATOM      1  C   UNL     1       1.149   3.594   0.010  0.00  0.00    +0.176 C 
ENDROOT
BRANCH   1   2
ATOM      2  C   UNL     1       1.402   4.093   1.409  0.00  0.00    +0.003 A 
ATOM      3  C   UNL     1       2.682   4.442   1.797  0.00  0.00    +0.057 A 
ATOM      4  C   UNL     1       2.918   4.903   3.083  0.00  0.00    +0.162 A 
ATOM      5  C   UNL     1       1.863   5.013   3.982  0.00  0.00    +0.163 A 
ATOM      6  C   UNL     1       0.582   4.659   3.589  0.00  0.00    +0.065 A 
ATOM      7  C   UNL     1       0.352   4.205   2.302  0.00  0.00    +0.028 A 
ATOM      8 BR   UNL     1      -1.398   3.731   1.766  0.00  0.00    -0.050 Br
ATOM      9  O   UNL     1       2.071   5.470   5.247  0.00  0.00    -0.485 OA
ATOM     10  C   UNL     1       3.422   5.461   5.721  0.00  0.00    +0.270 C 
ATOM     11  C   UNL     1       4.320   6.050   4.623  0.00  0.00    +0.270 C 
ATOM     12  O   UNL     1       4.184   5.240   3.451  0.00  0.00    -0.485 OA
ENDBRANCH   1   2
BRANCH   1  14
ATOM     13  C   UNL     1      -0.017   1.379   0.010  0.00  0.00    +0.026 A 
ATOM     14  C   UNL     1       1.171   2.087   0.002  0.00  0.00    -0.012 A 
ATOM     15  C   UNL     1       2.377   1.413  -0.013  0.00  0.00    +0.026 A 
ATOM     16  C   UNL     1       2.397   0.030  -0.021  0.00  0.00    +0.043 A 
ATOM     17  C   UNL     1       1.209  -0.679  -0.013  0.00  0.00    +0.040 A 
ATOM     18  C   UNL     1       0.002  -0.004   0.002  0.00  0.00    +0.043 A 
ATOM     19 CL   UNL     1      -1.489  -0.893   0.012  0.00  0.00    -0.083 Cl
ATOM     20 CL   UNL     1       3.913  -0.817  -0.040  0.00  0.00    -0.083 Cl
ENDBRANCH   1  14
BRANCH   1  21
ATOM     21  O   UNL     1       2.167   4.089  -0.863  0.00  0.00    -0.382 OA
ATOM     22  H   UNL     1       3.062   3.815  -0.620  0.00  0.00    +0.211 HD
ENDBRANCH   1  21
TORSDOF 3
