REMARK  Name = ZINC40590494
REMARK  9 active torsions:
REMARK  status: ('A' for Active; 'I' for Inactive)
REMARK    1  A    between atoms: C_1  and  C_2
REMARK    2  A    between atoms: C_7  and  N_8
REMARK    3  A    between atoms: C_10  and  N_26
REMARK    4  A    between atoms: C_11  and  N_15
REMARK    5  A    between atoms: N_15  and  C_16
REMARK    6  A    between atoms: C_18  and  C_24
REMARK    7  A    between atoms: C_18  and  C_25
REMARK    8  A    between atoms: C_20  and  C_22
REMARK    9  A    between atoms: C_20  and  C_23
REMARK                            x       y       z     vdW  Elec       q    Type
REMARK                         _______ _______ _______ _____ _____    ______ ____
ROOT
ATOM      1  N   UNL     1       0.790  -0.337   2.978  0.00  0.00    -0.297 N 
ATOM      2  C   UNL     1       0.510  -1.022   4.151  0.00  0.00    +0.159 A 
ATOM      3  C   UNL     1       0.308  -0.331   5.342  0.00  0.00    +0.205 A 
ATOM      4  C   UNL     1       0.030  -1.064   6.491  0.00  0.00    +0.155 A 
ATOM      5  N   UNL     1      -0.032  -2.392   6.411  0.00  0.00    -0.218 NA
ATOM      6  C   UNL     1       0.165  -3.010   5.264  0.00  0.00    +0.225 A 
ATOM      7  N   UNL     1       0.425  -2.351   4.153  0.00  0.00    -0.218 NA
ATOM      8  H   UNL     1       0.759   0.632   2.963  0.00  0.00    +0.154 HD
ENDROOT
BRANCH   1  15
ATOM      9  C   UNL     1       0.168   0.846   0.466  0.00  0.00    +0.046 C 
ATOM     10  C   UNL     1       0.832  -0.503   0.570  0.00  0.00    -0.028 A 
ATOM     11  C   UNL     1       1.162  -1.200  -0.576  0.00  0.00    +0.025 A 
ATOM     12  C   UNL     1       1.772  -2.439  -0.482  0.00  0.00    +0.041 A 
ATOM     13  C   UNL     1       2.053  -2.983   0.759  0.00  0.00    +0.022 A 
ATOM     14  C   UNL     1       1.725  -2.290   1.908  0.00  0.00    +0.025 A 
ATOM     15  C   UNL     1       1.118  -1.044   1.817  0.00  0.00    +0.035 A 
ATOM     16 CL   UNL     1       2.185  -3.313  -1.924  0.00  0.00    -0.084 Cl
ENDBRANCH   1  15
BRANCH   3  17
ATOM     17  N   UNL     1       0.387   1.147   5.385  0.00  0.00    +0.063 N 
ATOM     18  O   UNL     1      -0.604   1.811   5.193  0.00  0.00    -0.126 OA
ATOM     19  O   UNL     1       1.444   1.689   5.611  0.00  0.00    -0.126 OA
ENDBRANCH   3  17
BRANCH   4  20
ATOM     20  N   UNL     1      -0.178  -0.422   7.702  0.00  0.00    -0.324 N 
ATOM     21  H   UNL     1      -0.131   0.545   7.752  0.00  0.00    +0.148 HD
BRANCH  20  22
ATOM     22  C   UNL     1      -0.471  -1.207   8.908  0.00  0.00    +0.069 C 
ATOM     23  C   UNL     1      -1.978  -1.460   8.989  0.00  0.00    +0.009 C 
ATOM     24  C   UNL     1      -2.300  -2.267  10.247  0.00  0.00    -0.072 C 
ATOM     25  N   UNL     1      -1.774  -1.639  11.450  0.00  0.00    +0.386 N 
ATOM     26  C   UNL     1      -0.400  -1.166  11.420  0.00  0.00    -0.072 C 
ATOM     27  C   UNL     1      -0.052  -0.409  10.142  0.00  0.00    +0.009 C 
ATOM     28  C   UNL     1       0.597  -2.308  11.638  0.00  0.00    -0.010 C 
ATOM     29  C   UNL     1      -0.221  -0.181  12.600  0.00  0.00    -0.010 C 
ATOM     30  C   UNL     1      -1.815  -3.707  10.090  0.00  0.00    -0.010 C 
ATOM     31  C   UNL     1      -3.840  -2.313  10.379  0.00  0.00    -0.010 C 
ATOM     32  H   UNL     1      -2.380  -0.851  11.692  0.00  0.00    -0.084 HD
ATOM     33  H   UNL     1      -1.871  -2.299  12.226  0.00  0.00    -0.084 HD
ENDBRANCH  20  22
ENDBRANCH   4  20
TORSDOF 4
