REMARK  Name = ZINC40682560
REMARK  9 active torsions:
REMARK  status: ('A' for Active; 'I' for Inactive)
REMARK    1  A    between atoms: C_1  and  C_2
REMARK    2  A    between atoms: C_2  and  C_30
REMARK    3  A    between atoms: C_4  and  N_10
REMARK    4  A    between atoms: C_6  and  C_8
REMARK    5  A    between atoms: C_6  and  C_9
REMARK    6  A    between atoms: C_12  and  N_29
REMARK    7  A    between atoms: C_13  and  N_17
REMARK    8  A    between atoms: N_17  and  C_18
REMARK    9  A    between atoms: C_20  and  C_25
REMARK                            x       y       z     vdW  Elec       q    Type
REMARK                         _______ _______ _______ _____ _____    ______ ____
ROOT
ATOM      1  N   UNL     1       1.681  -2.345  -2.483  0.00  0.00    -0.325 N 
ATOM      2  C   UNL     1       1.576  -3.650  -2.950  0.00  0.00    +0.145 A 
ATOM      3  C   UNL     1       2.208  -4.032  -4.135  0.00  0.00    +0.105 A 
ATOM      4  C   UNL     1       2.070  -5.355  -4.558  0.00  0.00    +0.149 A 
ATOM      5  N   UNL     1       1.347  -6.196  -3.822  0.00  0.00    -0.219 NA
ATOM      6  C   UNL     1       0.767  -5.794  -2.709  0.00  0.00    +0.225 A 
ATOM      7  N   UNL     1       0.876  -4.555  -2.272  0.00  0.00    -0.219 NA
ATOM      8  H   UNL     1       2.193  -1.690  -2.984  0.00  0.00    +0.148 HD
ENDROOT
BRANCH   1  12
ATOM      9  C   UNL     1       0.081   1.531   0.070  0.00  0.00    -0.010 C 
ATOM     10  C   UNL     1       0.082  -0.015   0.050  0.00  0.00    -0.072 C 
ATOM     11  C   UNL     1       0.744  -0.453  -1.253  0.00  0.00    +0.009 C 
ATOM     12  C   UNL     1       1.016  -1.957  -1.233  0.00  0.00    +0.069 C 
ATOM     13  C   UNL     1       1.944  -2.257  -0.055  0.00  0.00    +0.009 C 
ATOM     14  C   UNL     1       1.291  -1.834   1.256  0.00  0.00    -0.072 C 
ATOM     15  N   UNL     1       0.787  -0.472   1.234  0.00  0.00    +0.386 N 
ATOM     16  C   UNL     1       2.372  -1.918   2.359  0.00  0.00    -0.010 C 
ATOM     17  C   UNL     1       0.189  -2.830   1.632  0.00  0.00    -0.010 C 
ATOM     18  C   UNL     1      -1.382  -0.465   0.064  0.00  0.00    -0.010 C 
ATOM     19  H   UNL     1       1.573   0.163   1.404  0.00  0.00    -0.084 HD
ATOM     20  H   UNL     1       0.171  -0.344   2.043  0.00  0.00    -0.084 HD
ENDBRANCH   1  12
BRANCH   3  21
ATOM     21  N   UNL     1       2.961  -3.111  -4.881  0.00  0.00    -0.353 N 
ATOM     22  H   UNL     1       3.047  -2.194  -4.574  0.00  0.00    +0.143 HD
ATOM     23  H   UNL     1       3.395  -3.390  -5.702  0.00  0.00    +0.143 HD
ENDBRANCH   3  21
BRANCH   4  24
ATOM     24  N   UNL     1       2.679  -5.788  -5.731  0.00  0.00    -0.297 N 
ATOM     25  H   UNL     1       3.131  -5.151  -6.307  0.00  0.00    +0.154 HD
BRANCH  24  26
ATOM     26  C   UNL     1       2.640  -7.141  -6.080  0.00  0.00    +0.052 A 
ATOM     27  C   UNL     1       2.478  -8.109  -5.098  0.00  0.00    +0.037 A 
ATOM     28  C   UNL     1       2.439  -9.445  -5.447  0.00  0.00    +0.057 A 
ATOM     29  C   UNL     1       2.562  -9.820  -6.772  0.00  0.00    +0.014 A 
ATOM     30  C   UNL     1       2.724  -8.859  -7.753  0.00  0.00    +0.022 A 
ATOM     31  C   UNL     1       2.757  -7.520  -7.413  0.00  0.00    +0.062 A 
ATOM     32 CL   UNL     1       2.953  -6.314  -8.646  0.00  0.00    -0.082 Cl
BRANCH  28  33
ATOM     33  C   UNL     1       2.263 -10.496  -4.381  0.00  0.00    +0.417 C 
ATOM     34  F   UNL     1       0.899 -10.746  -4.193  0.00  0.00    -0.166 F 
ATOM     35  F   UNL     1       2.903 -11.675  -4.778  0.00  0.00    -0.166 F 
ATOM     36  F   UNL     1       2.823 -10.043  -3.182  0.00  0.00    -0.166 F 
ENDBRANCH  28  33
ENDBRANCH  24  26
ENDBRANCH   4  24
TORSDOF 5
