REMARK  Name = ZINC40333799
REMARK  4 active torsions:
REMARK  status: ('A' for Active; 'I' for Inactive)
REMARK    1  A    between atoms: C_3  and  C_7
REMARK    2  A    between atoms: N_12  and  S_13
REMARK    3  A    between atoms: S_13  and  C_16
REMARK    4  A    between atoms: C_18  and  N_23
REMARK                            x       y       z     vdW  Elec       q    Type
REMARK                         _______ _______ _______ _____ _____    ______ ____
ROOT
ATOM      1  S   UNL     1       3.857  -0.923   2.231  0.00  0.00    +0.064 S 
ATOM      2  O   UNL     1       2.603  -0.444   2.697  0.00  0.00    -0.153 OA
ATOM      3  O   UNL     1       4.192  -2.304   2.232  0.00  0.00    -0.153 OA
ENDROOT
BRANCH   1   4
ATOM      4  C   UNL     1       5.094  -0.104   3.181  0.00  0.00    +0.142 A 
ATOM      5  C   UNL     1       4.728   0.797   4.162  0.00  0.00    +0.054 A 
ATOM      6  C   UNL     1       5.703   1.442   4.910  0.00  0.00    +0.027 A 
ATOM      7  C   UNL     1       7.046   1.179   4.671  0.00  0.00    +0.025 A 
ATOM      8  C   UNL     1       7.408   0.277   3.690  0.00  0.00    +0.042 A 
ATOM      9  C   UNL     1       6.433  -0.369   2.949  0.00  0.00    +0.150 A 
ATOM     10  F   UNL     1       6.789  -1.256   1.993  0.00  0.00    -0.203 F 
BRANCH   6  11
ATOM     11  N   UNL     1       5.334   2.355   5.903  0.00  0.00    -0.358 N 
ATOM     12  H   UNL     1       4.396   2.539   6.069  0.00  0.00    +0.142 HD
ATOM     13  H   UNL     1       6.016   2.806   6.425  0.00  0.00    +0.142 HD
ENDBRANCH   6  11
ENDBRANCH   1   4
BRANCH   1  18
ATOM     14  C   UNL     1       3.425   0.829   0.114  0.00  0.00    +0.126 C 
ATOM     15  C   UNL     1       3.858   0.921  -1.365  0.00  0.00    +0.028 C 
ATOM     16  C   UNL     1       5.130   0.034  -1.410  0.00  0.00    +0.019 C 
ATOM     17  C   UNL     1       4.764  -1.085  -0.403  0.00  0.00    +0.110 C 
ATOM     18  N   UNL     1       4.013  -0.399   0.668  0.00  0.00    -0.168 NA
BRANCH  14  21
ATOM     19  C   UNL     1      -0.224   1.316   0.382  0.00  0.00    +0.019 A 
ATOM     20  C   UNL     1       1.092   1.819   0.337  0.00  0.00    +0.024 A 
ATOM     21  C   UNL     1       1.922   0.764   0.204  0.00  0.00    +0.035 A 
ATOM     22  N   UNL     1       1.167  -0.371   0.166  0.00  0.00    -0.363 N 
ATOM     23  H   UNL     1       1.509  -1.274   0.076  0.00  0.00    +0.165 HD
ATOM     24  C   UNL     1      -0.147  -0.026   0.275  0.00  0.00    +0.083 A 
ENDBRANCH  14  21
ENDBRANCH   1  18
TORSDOF 4
