REMARK  Name = ZINC35490672
REMARK  6 active torsions:
REMARK  status: ('A' for Active; 'I' for Inactive)
REMARK    1  A    between atoms: C_1  and  C_2
REMARK    2  A    between atoms: C_2  and  C_3
REMARK    3  A    between atoms: C_9  and  C_24
REMARK    4  A    between atoms: C_26  and  O_32
REMARK    5  A    between atoms: C_27  and  O_31
REMARK    6  A    between atoms: O_32  and  C_33
REMARK                            x       y       z     vdW  Elec       q    Type
REMARK                         _______ _______ _______ _____ _____    ______ ____
ROOT
ATOM      1  C   UNL     1       0.707  -0.490  -1.238  0.00  0.00    +0.103 A 
ATOM      2  N   UNL     1       1.983  -0.760  -1.437  0.00  0.00    -0.145 NA
ATOM      3  N   UNL     1       2.418  -1.164  -2.549  0.00  0.00    -0.125 NA
ATOM      4  C   UNL     1       1.617  -1.343  -3.591  0.00  0.00    +0.191 A 
ATOM      5  S   UNL     1       0.051  -0.874  -2.859  0.00  0.00    -0.035 S 
ATOM      6  N   UNL     1       1.908  -1.775  -4.878  0.00  0.00    -0.230 N 
ATOM      7  C   UNL     1       3.238  -2.152  -5.384  0.00  0.00    +0.152 C 
ATOM      8  C   UNL     1       3.036  -2.539  -6.812  0.00  0.00    +0.072 A 
ATOM      9  C   UNL     1       3.984  -2.993  -7.834  0.00  0.00    +0.199 A 
ATOM     10  O   UNL     1       5.139  -3.294  -7.586  0.00  0.00    -0.287 OA
ATOM     11  C   UNL     1       3.404  -3.053  -9.199  0.00  0.00    +0.064 A 
ATOM     12  C   UNL     1       4.223  -3.272 -10.306  0.00  0.00    +0.015 A 
ATOM     13  C   UNL     1       3.675  -3.319 -11.557  0.00  0.00    +0.001 A 
ATOM     14  C   UNL     1       2.308  -3.148 -11.727  0.00  0.00    +0.004 A 
ATOM     15  C   UNL     1       1.484  -2.932 -10.646  0.00  0.00    +0.047 A 
ATOM     16  C   UNL     1       2.019  -2.883  -9.358  0.00  0.00    +0.139 A 
ATOM     17  O   UNL     1       1.190  -2.679  -8.309  0.00  0.00    -0.450 OA
ATOM     18  C   UNL     1       1.706  -2.401  -7.096  0.00  0.00    +0.199 A 
ATOM     19  C   UNL     1       1.021  -1.928  -5.882  0.00  0.00    +0.289 C 
ATOM     20  O   UNL     1      -0.171  -1.706  -5.797  0.00  0.00    -0.266 OA
ENDROOT
BRANCH   7  21
ATOM     21  C   UNL     1       3.781  -3.318  -4.599  0.00  0.00    -0.017 A 
ATOM     22  C   UNL     1       5.125  -3.366  -4.275  0.00  0.00    +0.055 A 
ATOM     23  C   UNL     1       5.626  -4.437  -3.553  0.00  0.00    +0.163 A 
ATOM     24  C   UNL     1       4.775  -5.464  -3.156  0.00  0.00    +0.173 A 
ATOM     25  C   UNL     1       3.429  -5.411  -3.485  0.00  0.00    +0.063 A 
ATOM     26  C   UNL     1       2.935  -4.335  -4.201  0.00  0.00    +0.025 A 
ATOM     27 BR   UNL     1       2.269  -6.804  -2.948  0.00  0.00    -0.046 Br
BRANCH  24  28
ATOM     28  O   UNL     1       5.263  -6.518  -2.449  0.00  0.00    -0.503 OA
ATOM     29  H   UNL     1       5.237  -6.394  -1.490  0.00  0.00    +0.292 HD
ENDBRANCH  24  28
BRANCH  23  30
ATOM     30  O   UNL     1       6.947  -4.486  -3.234  0.00  0.00    -0.491 OA
ATOM     31  C   UNL     1       7.761  -3.397  -3.675  0.00  0.00    +0.277 C 
ENDBRANCH  23  30
ENDBRANCH   7  21
BRANCH   1  33
ATOM     32  C   UNL     1      -0.019   1.526   0.010  0.00  0.00    +0.011 C 
ATOM     33  C   UNL     1       0.002  -0.004   0.002  0.00  0.00    +0.061 C 
ENDBRANCH   1  33
TORSDOF 4
