REMARK  Name = ZINC39676422
REMARK  5 active torsions:
REMARK  status: ('A' for Active; 'I' for Inactive)
REMARK    1  A    between atoms: C_6  and  C_11
REMARK    2  A    between atoms: C_11  and  C_12
REMARK    3  A    between atoms: C_12  and  N_13
REMARK    4  A    between atoms: C_14  and  C_16
REMARK    5  A    between atoms: C_27  and  C_29
REMARK                            x       y       z     vdW  Elec       q    Type
REMARK                         _______ _______ _______ _____ _____    ______ ____
ROOT
ATOM      1  C   UNL     1      -9.038   0.162  -2.510  0.00  0.00    +0.100 C 
ATOM      2  C   UNL     1      -9.796  -1.116  -2.085  0.00  0.00    +0.121 C 
ATOM      3  N   UNL     1     -11.021  -1.119  -2.919  0.00  0.00    -0.300 N 
ATOM      4  C   UNL     1     -10.564  -0.644  -4.247  0.00  0.00    +0.115 C 
ATOM      5  C   UNL     1      -9.544   0.468  -3.930  0.00  0.00    -0.004 C 
ATOM      6  C   UNL     1      -8.388   0.422  -4.924  0.00  0.00    -0.010 C 
ATOM      7  C   UNL     1      -8.905   0.787  -6.319  0.00  0.00    -0.082 C 
ATOM      8  N   UNL     1      -9.498   2.130  -6.287  0.00  0.00    +0.379 N 
ATOM      9  C   UNL     1     -10.666   2.141  -5.399  0.00  0.00    -0.082 C 
ATOM     10  C   UNL     1     -10.224   1.833  -3.966  0.00  0.00    -0.010 C 
ATOM     11  C   UNL     1     -12.269  -1.474  -2.554  0.00  0.00    +0.219 C 
ATOM     12  O   UNL     1     -13.174  -1.423  -3.358  0.00  0.00    -0.275 OA
ATOM     13  H   UNL     1      -8.814   2.790  -5.949  0.00  0.00    -0.086 HD
ATOM     14  H   UNL     1      -9.783   2.392  -7.219  0.00  0.00    -0.086 HD
ENDROOT
BRANCH   1  16
ATOM     15  N   UNL     1      -6.695   0.924  -2.296  0.00  0.00    -0.315 N 
ATOM     16  C   UNL     1      -7.553  -0.090  -2.526  0.00  0.00    +0.218 C 
ATOM     17  O   UNL     1      -7.129  -1.205  -2.744  0.00  0.00    -0.275 OA
ATOM     18  H   UNL     1      -7.034   1.816  -2.121  0.00  0.00    +0.149 HD
BRANCH  15  19
ATOM     19  C   UNL     1      -5.250   0.679  -2.311  0.00  0.00    +0.109 C 
BRANCH  19  20
ATOM     20  C   UNL     1      -4.509   1.986  -2.024  0.00  0.00    +0.056 C 
BRANCH  20  26
ATOM     21  C   UNL     1      -0.035   1.574  -4.989  0.00  0.00    +0.022 A 
ATOM     22  C   UNL     1       0.198   1.375  -3.646  0.00  0.00    +0.027 A 
ATOM     23  C   UNL     1      -0.858   1.448  -2.744  0.00  0.00    +0.047 A 
ATOM     24  N   UNL     1      -0.949   1.301  -1.377  0.00  0.00    -0.360 N 
ATOM     25  C   UNL     1      -2.246   1.475  -0.976  0.00  0.00    +0.087 A 
ATOM     26  C   UNL     1      -3.023   1.735  -2.040  0.00  0.00    -0.021 A 
ATOM     27  C   UNL     1      -2.153   1.726  -3.218  0.00  0.00    +0.004 A 
ATOM     28  C   UNL     1      -2.367   1.925  -4.584  0.00  0.00    +0.030 A 
ATOM     29  C   UNL     1      -1.314   1.854  -5.453  0.00  0.00    +0.042 A 
ATOM     30 CL   UNL     1      -1.580   2.101  -7.150  0.00  0.00    -0.084 Cl
ATOM     31  H   UNL     1      -0.205   1.103  -0.787  0.00  0.00    +0.165 HD
ENDBRANCH  20  26
ENDBRANCH  19  20
ENDBRANCH  15  19
ENDBRANCH   1  16
BRANCH  11  32
ATOM     32  C   UNL     1     -12.538  -1.935  -1.144  0.00  0.00    +0.075 C 
ATOM     33  C   UNL     1     -12.207  -3.417  -0.907  0.00  0.00    +0.013 C 
ATOM     34  C   UNL     1     -13.486  -3.485  -0.054  0.00  0.00    +0.001 C 
ATOM     35  C   UNL     1     -14.009  -2.303  -0.887  0.00  0.00    +0.013 C 
ENDBRANCH  11  32
TORSDOF 5
