REMARK  Name = ZINC22057979
REMARK  11 active torsions:
REMARK  status: ('A' for Active; 'I' for Inactive)
REMARK    1  A    between atoms: C_1  and  C_2
REMARK    2  A    between atoms: C_2  and  C_3
REMARK    3  A    between atoms: C_2  and  C_4
REMARK    4  A    between atoms: C_4  and  C_6
REMARK    5  A    between atoms: C_4  and  N_14
REMARK    6  A    between atoms: C_9  and  O_12
REMARK    7  A    between atoms: O_12  and  C_13
REMARK    8  A    between atoms: C_15  and  C_17
REMARK    9  A    between atoms: C_17  and  N_18
REMARK   10  A    between atoms: N_21  and  C_24
REMARK   11  A    between atoms: C_24  and  C_25
REMARK                            x       y       z     vdW  Elec       q    Type
REMARK                         _______ _______ _______ _____ _____    ______ ____
ROOT
ATOM      1  C   UNL     1      -1.445   3.591  -2.413  0.00  0.00    +0.019 C 
ENDROOT
BRANCH   1   2
ATOM      2  N   UNL     1      -0.575   3.138  -1.319  0.00  0.00    +0.387 N 
ATOM      3  C   UNL     1       0.719   3.833  -1.353  0.00  0.00    -0.063 C 
ATOM      4  C   UNL     1       1.563   3.393  -0.154  0.00  0.00    +0.066 C 
ATOM      5  N   UNL     1       1.749   1.935  -0.197  0.00  0.00    -0.302 NA
ATOM      6  C   UNL     1       0.454   1.241  -0.163  0.00  0.00    +0.066 C 
ATOM      7  C   UNL     1      -0.390   1.681  -1.362  0.00  0.00    -0.063 C 
ATOM      8  H   UNL     1      -1.071   3.390  -0.369  0.00  0.00    -0.081 HD
BRANCH   5   9
ATOM      9  C   UNL     1       2.618   1.483   0.898  0.00  0.00    +0.119 C 
BRANCH   9  10
ATOM     10  C   UNL     1       2.589  -0.022   0.973  0.00  0.00    -0.030 A 
ATOM     11  C   UNL     1       1.653  -0.655   1.770  0.00  0.00    +0.009 A 
ATOM     12  C   UNL     1       1.619  -2.035   1.838  0.00  0.00    +0.050 A 
ATOM     13  C   UNL     1       2.531  -2.788   1.116  0.00  0.00    +0.166 A 
ATOM     14  C   UNL     1       3.477  -2.150   0.317  0.00  0.00    +0.167 A 
ATOM     15  C   UNL     1       3.502  -0.766   0.249  0.00  0.00    +0.054 A 
ATOM     16  O   UNL     1       4.251  -3.099  -0.285  0.00  0.00    -0.453 OA
ATOM     17  C   UNL     1       4.034  -4.307   0.469  0.00  0.00    +0.466 C 
ATOM     18  O   UNL     1       2.712  -4.137   1.014  0.00  0.00    -0.453 OA
ENDBRANCH   9  10
ENDBRANCH   5   9
ENDBRANCH   1   2
BRANCH   1  20
ATOM     19  N   UNL     1      -2.506   5.704  -3.141  0.00  0.00    -0.310 N 
ATOM     20  C   UNL     1      -1.814   5.036  -2.196  0.00  0.00    +0.197 C 
ATOM     21  O   UNL     1      -1.489   5.598  -1.171  0.00  0.00    -0.278 OA
ATOM     22  H   UNL     1      -2.800   5.194  -4.070  0.00  0.00    +0.149 HD
BRANCH  19  23
ATOM     23  C   UNL     1      -2.865   7.108  -2.930  0.00  0.00    +0.106 C 
BRANCH  23  24
ATOM     24  C   UNL     1      -3.053   7.784  -4.263  0.00  0.00    -0.027 A 
ATOM     25  C   UNL     1      -3.682   7.112  -5.295  0.00  0.00    +0.009 A 
ATOM     26  C   UNL     1      -3.861   7.732  -6.517  0.00  0.00    +0.046 A 
ATOM     27  C   UNL     1      -3.398   9.025  -6.712  0.00  0.00    +0.120 A 
ATOM     28  C   UNL     1      -2.763   9.695  -5.676  0.00  0.00    +0.046 A 
ATOM     29  C   UNL     1      -2.592   9.074  -4.455  0.00  0.00    +0.009 A 
BRANCH  27  30
ATOM     30  O   UNL     1      -3.567   9.635  -7.915  0.00  0.00    -0.495 OA
ATOM     31  C   UNL     1      -4.231   8.884  -8.934  0.00  0.00    +0.277 C 
ENDBRANCH  27  30
ENDBRANCH  23  24
BRANCH  23  33
ATOM     32  C   UNL     1      -4.542   8.654  -1.909  0.00  0.00    +0.009 C 
ATOM     33  C   UNL     1      -4.167   7.187  -2.130  0.00  0.00    +0.008 C 
ATOM     34  C   UNL     1      -5.284   6.486  -2.904  0.00  0.00    +0.009 C 
ENDBRANCH  23  33
ENDBRANCH  19  23
ENDBRANCH   1  20
TORSDOF 8
