REMARK  Name = ZINC26531659
REMARK  6 active torsions:
REMARK  status: ('A' for Active; 'I' for Inactive)
REMARK    1  A    between atoms: C_1  and  C_2
REMARK    2  A    between atoms: C_9  and  N_27
REMARK    3  A    between atoms: C_10  and  C_13
REMARK    4  A    between atoms: N_17  and  C_21
REMARK    5  A    between atoms: C_29  and  C_36
REMARK    6  A    between atoms: C_32  and  C_35
REMARK                            x       y       z     vdW  Elec       q    Type
REMARK                         _______ _______ _______ _____ _____    ______ ____
ROOT
ATOM      1  C   UNL     1      -0.828  -0.536   1.383  0.00  0.00    +0.047 C 
ATOM      2  C   UNL     1      -0.539   0.869   0.921  0.00  0.00    -0.007 A 
ATOM      3  C   UNL     1       0.748   1.306   0.818  0.00  0.00    +0.008 A 
ATOM      4  C   UNL     1       1.001   2.616   0.388  0.00  0.00    +0.019 A 
ATOM      5  C   UNL     1      -0.026   3.438   0.077  0.00  0.00    +0.096 A 
ATOM      6  N   UNL     1      -1.317   3.011   0.177  0.00  0.00    -0.267 N 
ATOM      7  C   UNL     1      -1.595   1.737   0.589  0.00  0.00    +0.145 A 
ATOM      8  N   UNL     1      -2.850   1.303   0.699  0.00  0.00    -0.213 NA
ATOM      9  C   UNL     1      -3.883   2.079   0.404  0.00  0.00    +0.136 A 
ATOM     10  C   UNL     1      -3.656   3.405  -0.033  0.00  0.00    +0.081 A 
ATOM     11  C   UNL     1      -2.320   3.858  -0.140  0.00  0.00    +0.267 A 
ATOM     12  O   UNL     1      -2.077   4.993  -0.512  0.00  0.00    -0.267 OA
ENDROOT
BRANCH  10  13
ATOM     13  C   UNL     1      -4.738   4.258  -0.355  0.00  0.00    +0.037 C 
ATOM     14  C   UNL     1      -5.644   3.881  -1.304  0.00  0.00    +0.077 C 
ATOM     15  C   UNL     1      -6.847   4.524  -1.714  0.00  0.00    +0.259 C 
ATOM     16  O   UNL     1      -7.205   5.569  -1.200  0.00  0.00    -0.269 OA
ATOM     17  N   UNL     1      -7.564   3.955  -2.667  0.00  0.00    -0.252 N 
ATOM     18  C   UNL     1      -7.167   2.795  -3.237  0.00  0.00    +0.121 C 
ATOM     19  S   UNL     1      -7.930   1.891  -4.474  0.00  0.00    -0.027 S 
ATOM     20  S   UNL     1      -5.639   2.451  -2.377  0.00  0.00    -0.061 S 
BRANCH  17  21
ATOM     21  C   UNL     1      -8.807   4.590  -3.112  0.00  0.00    +0.083 C 
ATOM     22  C   UNL     1      -9.980   3.635  -2.878  0.00  0.00    +0.023 C 
ATOM     23  C   UNL     1     -11.278   4.298  -3.343  0.00  0.00    +0.002 C 
ATOM     24  C   UNL     1     -11.177   4.627  -4.834  0.00  0.00    +0.000 C 
ATOM     25  C   UNL     1     -10.004   5.582  -5.068  0.00  0.00    +0.002 C 
ATOM     26  C   UNL     1      -8.706   4.918  -4.603  0.00  0.00    +0.023 C 
ENDBRANCH  17  21
ENDBRANCH  10  13
BRANCH   9  27
ATOM     27  N   UNL     1      -5.169   1.598   0.522  0.00  0.00    -0.314 N 
ATOM     28  C   UNL     1      -5.904   2.316   1.571  0.00  0.00    +0.109 C 
ATOM     29  C   UNL     1      -7.365   1.858   1.576  0.00  0.00    +0.004 C 
ATOM     30  C   UNL     1      -7.421   0.349   1.829  0.00  0.00    +0.009 C 
ATOM     31  C   UNL     1      -6.607  -0.372   0.751  0.00  0.00    +0.004 C 
ATOM     32  C   UNL     1      -5.168   0.150   0.770  0.00  0.00    +0.109 C 
ATOM     33  C   UNL     1      -6.607  -1.876   1.029  0.00  0.00    +0.009 C 
ATOM     34  C   UNL     1      -8.004   2.173   0.222  0.00  0.00    +0.009 C 
ENDBRANCH   9  27
TORSDOF 3
