REMARK  Name = ZINC13394766
REMARK  11 active torsions:
REMARK  status: ('A' for Active; 'I' for Inactive)
REMARK    1  A    between atoms: C_1  and  C_2
REMARK    2  A    between atoms: C_2  and  C_3
REMARK    3  A    between atoms: C_3  and  C_4
REMARK    4  A    between atoms: C_6  and  C_10
REMARK    5  A    between atoms: C_8  and  C_9
REMARK    6  A    between atoms: N_12  and  C_13
REMARK    7  A    between atoms: C_16  and  S_19
REMARK    8  A    between atoms: S_19  and  N_22
REMARK    9  A    between atoms: N_22  and  C_23
REMARK   10  A    between atoms: C_23  and  C_24
REMARK   11  A    between atoms: C_24  and  C_25
REMARK                            x       y       z     vdW  Elec       q    Type
REMARK                         _______ _______ _______ _____ _____    ______ ____
ROOT
ATOM      1  C   UNL     1      -1.755   4.049  -3.886  0.00  0.00    +0.034 A 
ATOM      2  C   UNL     1      -2.081   2.700  -3.836  0.00  0.00    +0.025 A 
ATOM      3  C   UNL     1      -1.994   2.014  -2.640  0.00  0.00    +0.030 A 
ATOM      4  C   UNL     1      -1.582   2.669  -1.494  0.00  0.00    +0.105 A 
ATOM      5  C   UNL     1      -1.261   4.014  -1.540  0.00  0.00    +0.030 A 
ATOM      6  C   UNL     1      -1.342   4.704  -2.733  0.00  0.00    +0.025 A 
ENDROOT
BRANCH   1   9
ATOM      7  C   UNL     1      -0.975   5.743  -5.362  0.00  0.00    +0.255 C 
ATOM      8  O   UNL     1      -0.058   5.974  -4.596  0.00  0.00    -0.269 OA
ATOM      9  N   UNL     1      -1.842   4.746  -5.095  0.00  0.00    -0.281 N 
ATOM     10  H   UNL     1      -2.526   4.512  -5.742  0.00  0.00    +0.155 HD
BRANCH   7  13
ATOM     11  C   UNL     1      -0.743   8.193  -8.213  0.00  0.00    -0.037 A 
ATOM     12  C   UNL     1      -0.368   7.611  -7.027  0.00  0.00    +0.024 A 
ATOM     13  C   UNL     1      -1.137   6.549  -6.575  0.00  0.00    +0.075 A 
ATOM     14  S   UNL     1      -2.378   6.426  -7.851  0.00  0.00    -0.089 S 
ATOM     15  C   UNL     1      -1.834   7.719  -8.869  0.00  0.00    -0.009 A 
ATOM     16  C   UNL     1      -2.428   8.201 -10.168  0.00  0.00    +0.052 C 
BRANCH  11  17
ATOM     17  C   UNL     1       0.043   9.349  -8.776  0.00  0.00    +0.036 C 
BRANCH  17  19
ATOM     18  C   UNL     1       0.193  11.839  -8.913  0.00  0.00    +0.004 C 
ATOM     19  C   UNL     1      -0.604  10.666  -8.341  0.00  0.00    +0.001 C 
ENDBRANCH  17  19
ENDBRANCH  11  17
ENDBRANCH   7  13
ENDBRANCH   1   9
BRANCH   4  20
ATOM     20  S   UNL     1      -1.472   1.791   0.029  0.00  0.00    +0.058 S 
ATOM     21  O   UNL     1      -2.353   0.681  -0.077  0.00  0.00    -0.153 OA
ATOM     22  O   UNL     1      -1.586   2.757   1.065  0.00  0.00    -0.153 OA
BRANCH  20  23
ATOM     23  N   UNL     1       0.061   1.171   0.128  0.00  0.00    -0.189 NA
ATOM     24  H   UNL     1       0.197   0.211   0.122  0.00  0.00    +0.148 HD
BRANCH  23  25
ATOM     25  C   UNL     1       1.212   2.073   0.217  0.00  0.00    +0.117 C 
BRANCH  25  26
ATOM     26  C   UNL     1       2.445   1.284   0.660  0.00  0.00    +0.142 C 
BRANCH  26  27
ATOM     27  C   UNL     1       3.629   2.212   0.752  0.00  0.00    +0.357 C 
ATOM     28  O   UNL     1       3.499   3.385   0.489  0.00  0.00    -0.246 OA
ATOM     29  O   UNL     1       4.827   1.737   1.125  0.00  0.00    -0.246 OA
ENDBRANCH  26  27
ENDBRANCH  25  26
ENDBRANCH  23  25
ENDBRANCH  20  23
ENDBRANCH   4  20
TORSDOF 9
