REMARK  Name = ZINC64870712
REMARK  7 active torsions:
REMARK  status: ('A' for Active; 'I' for Inactive)
REMARK    1  A    between atoms: C_1  and  C_2
REMARK    2  A    between atoms: C_2  and  C_3
REMARK    3  A    between atoms: C_2  and  C_4
REMARK    4  A    between atoms: C_4  and  C_5
REMARK    5  A    between atoms: C_5  and  N_6
REMARK    6  A    between atoms: C_12  and  C_19
REMARK    7  A    between atoms: C_22  and  C_25
REMARK                            x       y       z     vdW  Elec       q    Type
REMARK                         _______ _______ _______ _____ _____    ______ ____
ROOT
ATOM      1  N   UNL     1       0.667  -0.609   3.684  0.00  0.00    -0.261 N 
ATOM      2  C   UNL     1       0.396  -1.844   4.159  0.00  0.00    +0.264 A 
ATOM      3  O   UNL     1      -0.426  -2.555   3.614  0.00  0.00    -0.267 OA
ATOM      4  C   UNL     1       1.123  -2.308   5.354  0.00  0.00    +0.063 A 
ATOM      5  C   UNL     1       0.900  -3.569   5.903  0.00  0.00    +0.016 A 
ATOM      6  C   UNL     1       1.607  -3.957   7.022  0.00  0.00    +0.009 A 
ATOM      7  C   UNL     1       2.533  -3.101   7.599  0.00  0.00    +0.006 A 
ATOM      8  C   UNL     1       2.763  -1.849   7.064  0.00  0.00    +0.034 A 
ATOM      9  C   UNL     1       2.062  -1.442   5.939  0.00  0.00    +0.056 A 
ATOM     10  N   UNL     1       2.263  -0.193   5.370  0.00  0.00    -0.307 N 
ATOM     11  H   UNL     1       2.908   0.416   5.763  0.00  0.00    +0.170 HD
ATOM     12  C   UNL     1       1.577   0.180   4.276  0.00  0.00    +0.330 A 
ATOM     13  O   UNL     1       1.786   1.282   3.805  0.00  0.00    -0.246 OA
ENDROOT
BRANCH   7  14
ATOM     14  C   UNL     1       3.295  -3.541   8.822  0.00  0.00    +0.274 C 
ATOM     15  N   UNL     1       3.447  -5.001   8.828  0.00  0.00    -0.339 N 
ATOM     16  C   UNL     1       2.865  -5.476   9.886  0.00  0.00    +0.134 C 
ATOM     17  N   UNL     1       2.306  -4.476  10.642  0.00  0.00    -0.247 N 
ATOM     18  O   UNL     1       2.552  -3.227  10.010  0.00  0.00    -0.243 OA
ATOM     19  H   UNL     1       1.821  -4.601  11.473  0.00  0.00    +0.196 HD
ATOM     20  H   UNL     1       3.906  -5.524   8.153  0.00  0.00    +0.164 HD
BRANCH  16  21
ATOM     21  C   UNL     1       2.809  -6.914  10.233  0.00  0.00    +0.017 A 
ATOM     22  C   UNL     1       3.843  -7.767   9.847  0.00  0.00    +0.012 A 
ATOM     23  C   UNL     1       3.787  -9.106  10.173  0.00  0.00    +0.016 A 
ATOM     24  C   UNL     1       2.707  -9.604  10.883  0.00  0.00    +0.018 A 
ATOM     25  C   UNL     1       1.678  -8.761  11.269  0.00  0.00    +0.016 A 
ATOM     26  C   UNL     1       1.727  -7.419  10.953  0.00  0.00    +0.012 A 
ATOM     27 BR   UNL     1       2.636 -11.441  11.326  0.00  0.00    -0.050 Br
ENDBRANCH  16  21
ENDBRANCH   7  14
BRANCH   1  28
ATOM     28  C   UNL     1      -0.042  -0.124   2.497  0.00  0.00    +0.130 C 
BRANCH  28  29
ATOM     29  C   UNL     1       0.742  -0.511   1.242  0.00  0.00    +0.025 C 
BRANCH  29  31
ATOM     30  C   UNL     1      -0.019   1.526   0.010  0.00  0.00    +0.007 C 
ATOM     31  C   UNL     1       0.002  -0.004   0.002  0.00  0.00    -0.016 C 
ATOM     32  C   UNL     1       0.718  -0.497  -1.257  0.00  0.00    +0.007 C 
ENDBRANCH  29  31
ENDBRANCH  28  29
ENDBRANCH   1  28
TORSDOF 5
