REMARK  Name = ZINC40784461
REMARK  7 active torsions:
REMARK  status: ('A' for Active; 'I' for Inactive)
REMARK    1  A    between atoms: C_1  and  C_2
REMARK    2  A    between atoms: N_4  and  C_5
REMARK    3  A    between atoms: C_8  and  N_11
REMARK    4  A    between atoms: C_13  and  N_29
REMARK    5  A    between atoms: C_14  and  N_18
REMARK    6  A    between atoms: N_18  and  N_19
REMARK    7  A    between atoms: C_20  and  C_22
REMARK                            x       y       z     vdW  Elec       q    Type
REMARK                         _______ _______ _______ _____ _____    ______ ____
ROOT
ATOM      1  N   UNL     1      -1.451  -6.251  -0.221  0.00  0.00    -0.298 N 
ATOM      2  C   UNL     1      -2.681  -6.875  -0.399  0.00  0.00    +0.149 A 
ATOM      3  C   UNL     1      -2.756  -8.260  -0.557  0.00  0.00    +0.107 A 
ATOM      4  C   UNL     1      -4.016  -8.835  -0.732  0.00  0.00    +0.161 A 
ATOM      5  N   UNL     1      -5.089  -8.047  -0.742  0.00  0.00    -0.217 NA
ATOM      6  C   UNL     1      -4.974  -6.744  -0.589  0.00  0.00    +0.225 A 
ATOM      7  N   UNL     1      -3.804  -6.161  -0.416  0.00  0.00    -0.219 NA
ATOM      8  H   UNL     1      -0.643  -6.783  -0.147  0.00  0.00    +0.154 HD
ENDROOT
BRANCH   1  12
ATOM      9  C   UNL     1      -1.235  -2.093  -0.004  0.00  0.00    +0.033 A 
ATOM     10  C   UNL     1      -2.330  -2.760   0.528  0.00  0.00    +0.025 A 
ATOM     11  C   UNL     1      -2.402  -4.137   0.456  0.00  0.00    +0.025 A 
ATOM     12  C   UNL     1      -1.379  -4.855  -0.149  0.00  0.00    +0.033 A 
ATOM     13  C   UNL     1      -0.283  -4.188  -0.681  0.00  0.00    +0.025 A 
ATOM     14  C   UNL     1      -0.214  -2.811  -0.614  0.00  0.00    +0.025 A 
BRANCH   9  18
ATOM     15  C   UNL     1      -0.615   1.510  -0.906  0.00  0.00    +0.109 C 
ATOM     16  C   UNL     1      -0.607   0.004  -0.940  0.00  0.00    +0.214 C 
ATOM     17  O   UNL     1      -0.101  -0.579  -1.876  0.00  0.00    -0.276 OA
ATOM     18  N   UNL     1      -1.162  -0.696   0.070  0.00  0.00    -0.286 N 
ATOM     19  H   UNL     1      -1.510  -0.232   0.847  0.00  0.00    +0.155 HD
ENDBRANCH   9  18
ENDBRANCH   1  12
BRANCH   3  20
ATOM     20  N   UNL     1      -1.597  -9.052  -0.541  0.00  0.00    -0.353 N 
ATOM     21  H   UNL     1      -0.729  -8.639  -0.419  0.00  0.00    +0.143 HD
ATOM     22  H   UNL     1      -1.665 -10.014  -0.653  0.00  0.00    +0.143 HD
ENDBRANCH   3  20
BRANCH   4  23
ATOM     23  N   UNL     1      -4.148 -10.209  -0.895  0.00  0.00    -0.247 N 
ATOM     24  H   UNL     1      -3.361 -10.776  -0.887  0.00  0.00    +0.172 HD
BRANCH  23  25
ATOM     25  N   UNL     1      -5.418 -10.775  -1.070  0.00  0.00    -0.231 N 
ATOM     26  C   UNL     1      -5.546 -12.108  -1.227  0.00  0.00    +0.260 C 
ATOM     27  O   UNL     1      -4.559 -12.818  -1.218  0.00  0.00    -0.269 OA
ATOM     28  H   UNL     1      -6.205 -10.208  -1.077  0.00  0.00    +0.173 HD
BRANCH  26  29
ATOM     29  C   UNL     1      -6.885 -12.705  -1.411  0.00  0.00    +0.038 A 
ATOM     30  C   UNL     1      -8.019 -11.890  -1.429  0.00  0.00    +0.014 A 
ATOM     31  C   UNL     1      -9.266 -12.454  -1.601  0.00  0.00    +0.021 A 
ATOM     32  C   UNL     1      -9.395 -13.824  -1.757  0.00  0.00    +0.041 A 
ATOM     33  C   UNL     1      -8.273 -14.637  -1.740  0.00  0.00    +0.021 A 
ATOM     34  C   UNL     1      -7.020 -14.085  -1.575  0.00  0.00    +0.014 A 
ATOM     35 CL   UNL     1     -10.968 -14.525  -1.973  0.00  0.00    -0.084 Cl
ENDBRANCH  26  29
ENDBRANCH  23  25
ENDBRANCH   4  23
TORSDOF 6
