REMARK  Name = ZINC18068257
REMARK  2 active torsions:
REMARK  status: ('A' for Active; 'I' for Inactive)
REMARK    1  A    between atoms: N_21  and  C_24
REMARK    2  A    between atoms: C_26  and  N_31
REMARK                            x       y       z     vdW  Elec       q    Type
REMARK                         _______ _______ _______ _____ _____    ______ ____
ROOT
ATOM      1  C   UNL     1      -0.017   1.385   0.010  0.00  0.00    +0.000 A 
ATOM      2  C   UNL     1       1.166   2.101   0.002  0.00  0.00    +0.000 A 
ATOM      3  C   UNL     1       2.388   1.442  -0.012  0.00  0.00    +0.004 A 
ATOM      4  C   UNL     1       2.399   0.076  -0.021  0.00  0.00    -0.035 A 
ATOM      5  C   UNL     1       1.207  -0.646  -0.013  0.00  0.00    -0.035 A 
ATOM      6  C   UNL     1       0.002  -0.004   0.002  0.00  0.00    +0.004 A 
ATOM      7  C   UNL     1       1.388  -2.156  -0.024  0.00  0.00    +0.062 C 
ATOM      8  C   UNL     1       2.313  -2.458   1.143  0.00  0.00    -0.035 A 
ATOM      9  C   UNL     1       2.046  -3.355   2.139  0.00  0.00    +0.004 A 
ATOM     10  C   UNL     1       2.983  -3.534   3.148  0.00  0.00    +0.000 A 
ATOM     11  C   UNL     1       4.164  -2.815   3.142  0.00  0.00    +0.000 A 
ATOM     12  C   UNL     1       4.430  -1.906   2.126  0.00  0.00    +0.004 A 
ATOM     13  C   UNL     1       3.504  -1.736   1.137  0.00  0.00    -0.035 A 
ATOM     14  C   UNL     1       3.654  -0.783  -0.038  0.00  0.00    +0.062 C 
ATOM     15  C   UNL     1       3.530  -1.664  -1.301  0.00  0.00    +0.100 C 
ATOM     16  C   UNL     1       2.213  -2.460  -1.293  0.00  0.00    +0.100 C 
ATOM     17  C   UNL     1       2.669  -3.902  -1.241  0.00  0.00    +0.231 C 
ATOM     18  O   UNL     1       1.938  -4.869  -1.222  0.00  0.00    -0.274 OA
ATOM     19  N   UNL     1       4.007  -3.939  -1.220  0.00  0.00    -0.208 N 
ATOM     20  C   UNL     1       4.596  -2.737  -1.248  0.00  0.00    +0.231 C 
ATOM     21  O   UNL     1       5.792  -2.540  -1.235  0.00  0.00    -0.274 OA
ENDROOT
BRANCH  19  22
ATOM     22  C   UNL     1       4.732  -5.139  -1.171  0.00  0.00    +0.064 A 
ATOM     23  C   UNL     1       5.115  -5.768  -2.347  0.00  0.00    +0.058 A 
ATOM     24  C   UNL     1       5.829  -6.949  -2.296  0.00  0.00    +0.128 A 
ATOM     25  C   UNL     1       6.163  -7.505  -1.075  0.00  0.00    +0.034 A 
ATOM     26  C   UNL     1       5.784  -6.882   0.099  0.00  0.00    +0.024 A 
ATOM     27  C   UNL     1       5.074  -5.696   0.055  0.00  0.00    +0.063 A 
ATOM     28 CL   UNL     1       4.604  -4.909   1.529  0.00  0.00    -0.082 Cl
BRANCH  24  29
ATOM     29  N   UNL     1       6.238  -7.621  -3.551  0.00  0.00    +0.056 N 
ATOM     30  O   UNL     1       5.946  -7.136  -4.619  0.00  0.00    -0.126 OA
ATOM     31  O   UNL     1       6.863  -8.655  -3.507  0.00  0.00    -0.126 OA
ENDBRANCH  24  29
ENDBRANCH  19  22
TORSDOF 2
