REMARK  Name = ZINC40570140
REMARK  12 active torsions:
REMARK  status: ('A' for Active; 'I' for Inactive)
REMARK    1  A    between atoms: C_1  and  N_2
REMARK    2  A    between atoms: C_7  and  C_24
REMARK    3  A    between atoms: C_9  and  N_23
REMARK    4  A    between atoms: C_10  and  C_14
REMARK    5  A    between atoms: C_14  and  O_16
REMARK    6  A    between atoms: O_16  and  C_17
REMARK    7  A    between atoms: C_26  and  O_34
REMARK    8  A    between atoms: C_27  and  O_32
REMARK    9  A    between atoms: C_29  and  O_30
REMARK   10  A    between atoms: O_30  and  C_31
REMARK   11  A    between atoms: O_32  and  C_33
REMARK   12  A    between atoms: O_34  and  C_35
REMARK                            x       y       z     vdW  Elec       q    Type
REMARK                         _______ _______ _______ _____ _____    ______ ____
ROOT
ATOM      1  C   UNL     1       0.037   1.440  -0.108  0.00  0.00    +0.105 C 
ATOM      2  N   UNL     1       0.037  -0.029  -0.091  0.00  0.00    -0.301 NA
ATOM      3  C   UNL     1      -1.336  -0.557  -0.108  0.00  0.00    +0.090 C 
ATOM      4  C   UNL     1      -1.280  -2.044  -0.459  0.00  0.00    +0.069 C 
ATOM      5  C   UNL     1      -0.281  -2.744   0.428  0.00  0.00    +0.023 A 
ATOM      6  C   UNL     1       0.673  -2.043   1.137  0.00  0.00    -0.006 A 
ATOM      7  C   UNL     1       1.583  -2.726   1.942  0.00  0.00    +0.003 A 
ATOM      8  C   UNL     1       1.509  -4.149   2.023  0.00  0.00    +0.035 A 
ATOM      9  C   UNL     1       2.340  -5.061   2.789  0.00  0.00    +0.056 A 
ATOM     10  C   UNL     1       2.073  -6.413   2.709  0.00  0.00    +0.120 A 
ATOM     11  S   UNL     1       0.686  -6.492   1.593  0.00  0.00    -0.062 S 
ATOM     12  C   UNL     1       0.491  -4.759   1.259  0.00  0.00    +0.088 A 
ATOM     13  N   UNL     1      -0.340  -4.066   0.514  0.00  0.00    -0.352 N 
ATOM     14  C   UNL     1       0.763  -0.540   1.075  0.00  0.00    +0.121 C 
ATOM     15  H   UNL     1      -1.021  -4.537   0.009  0.00  0.00    +0.166 HD
ENDROOT
BRANCH   7  16
ATOM     16  C   UNL     1       2.614  -1.986   2.702  0.00  0.00    +0.029 A 
ATOM     17  C   UNL     1       2.346  -1.546   4.000  0.00  0.00    +0.061 A 
ATOM     18  C   UNL     1       3.311  -0.856   4.706  0.00  0.00    +0.162 A 
ATOM     19  C   UNL     1       4.551  -0.596   4.126  0.00  0.00    +0.165 A 
ATOM     20  C   UNL     1       4.822  -1.030   2.837  0.00  0.00    +0.095 A 
ATOM     21  C   UNL     1       3.862  -1.728   2.124  0.00  0.00    +0.131 A 
BRANCH  21  22
ATOM     22  O   UNL     1       4.130  -2.158   0.863  0.00  0.00    -0.494 OA
ATOM     23  C   UNL     1       5.425  -1.859   0.338  0.00  0.00    +0.277 C 
ENDBRANCH  21  22
BRANCH  19  24
ATOM     24  O   UNL     1       5.498   0.084   4.824  0.00  0.00    -0.491 OA
ATOM     25  C   UNL     1       6.747   0.315   4.170  0.00  0.00    +0.277 C 
ENDBRANCH  19  24
BRANCH  18  26
ATOM     26  O   UNL     1       3.050  -0.427   5.971  0.00  0.00    -0.491 OA
ATOM     27  C   UNL     1       1.759  -0.727   6.505  0.00  0.00    +0.277 C 
ENDBRANCH  18  26
ENDBRANCH   7  16
BRANCH   9  28
ATOM     28  N   UNL     1       3.376  -4.585   3.580  0.00  0.00    -0.356 N 
ATOM     29  H   UNL     1       3.553  -3.633   3.627  0.00  0.00    +0.142 HD
ATOM     30  H   UNL     1       3.923  -5.206   4.086  0.00  0.00    +0.142 HD
ENDBRANCH   9  28
BRANCH  10  31
ATOM     31  C   UNL     1       2.740  -7.478   3.356  0.00  0.00    +0.353 C 
ATOM     32  O   UNL     1       3.680  -7.248   4.094  0.00  0.00    -0.244 OA
BRANCH  31  33
ATOM     33  O   UNL     1       2.334  -8.750   3.155  0.00  0.00    -0.422 OA
BRANCH  33  34
ATOM     34  C   UNL     1       3.065  -9.749   3.716  0.00  0.00    +0.132 A 
ATOM     35  C   UNL     1       2.947 -10.021   5.071  0.00  0.00    +0.046 A 
ATOM     36  C   UNL     1       3.692 -11.037   5.638  0.00  0.00    +0.004 A 
ATOM     37  C   UNL     1       4.555 -11.782   4.856  0.00  0.00    +0.000 A 
ATOM     38  C   UNL     1       4.675 -11.513   3.505  0.00  0.00    +0.004 A 
ATOM     39  C   UNL     1       3.928 -10.502   2.932  0.00  0.00    +0.046 A 
ENDBRANCH  33  34
ENDBRANCH  31  33
ENDBRANCH  10  31
TORSDOF 8
