REMARK  Name = ZINC58438086
REMARK  3 active torsions:
REMARK  status: ('A' for Active; 'I' for Inactive)
REMARK    1  A    between atoms: C_3  and  C_8
REMARK    2  A    between atoms: N_14  and  C_17
REMARK    3  A    between atoms: C_17  and  N_18
REMARK                            x       y       z     vdW  Elec       q    Type
REMARK                         _______ _______ _______ _____ _____    ______ ____
ROOT
ATOM      1  C   UNL     1      -3.720   1.989   0.031  0.00  0.00    +0.252 C 
ATOM      2  O   UNL     1      -3.769   3.200   0.133  0.00  0.00    -0.270 OA
ATOM      3  N   UNL     1      -4.857   1.274  -0.069  0.00  0.00    -0.299 N 
ATOM      4  C   UNL     1      -4.774  -0.200  -0.070  0.00  0.00    +0.106 C 
ATOM      5  C   UNL     1      -5.894  -0.819   0.787  0.00  0.00    +0.000 C 
ATOM      6  C   UNL     1      -6.090   0.012   2.035  0.00  0.00    -0.075 C 
ATOM      7  N   UNL     1      -7.143   0.997   1.799  0.00  0.00    +0.394 N 
ATOM      8  C   UNL     1      -6.703   2.218   1.240  0.00  0.00    -0.057 C 
ATOM      9  C   UNL     1      -6.119   1.979  -0.167  0.00  0.00    +0.089 C 
ATOM     10  H   UNL     1      -7.826   0.590   1.177  0.00  0.00    -0.079 HD
ENDROOT
BRANCH   1  13
ATOM     11  C   UNL     1      -0.656   0.161  -1.147  0.00  0.00    +0.018 A 
ATOM     12  C   UNL     1      -1.894   0.803  -1.173  0.00  0.00    +0.020 A 
ATOM     13  C   UNL     1      -2.417   1.305   0.017  0.00  0.00    +0.101 A 
ATOM     14  C   UNL     1      -1.673   1.146   1.214  0.00  0.00    +0.261 A 
ATOM     15  N   UNL     1      -0.482   0.518   1.182  0.00  0.00    -0.328 N 
ATOM     16  C   UNL     1       0.021   0.032   0.023  0.00  0.00    +0.086 A 
ATOM     17  O   UNL     1      -2.109   1.577   2.267  0.00  0.00    -0.267 OA
ATOM     18  H   UNL     1       0.023   0.411   2.003  0.00  0.00    +0.168 HD
ENDBRANCH   1  13
BRANCH   7  19
ATOM     19  C   UNL     1      -7.804   1.286   3.079  0.00  0.00    +0.072 C 
BRANCH  19  20
ATOM     20  N   UNL     1      -8.942   2.180   2.850  0.00  0.00    -0.257 N 
ATOM     21  C   UNL     1      -8.988   3.498   3.133  0.00  0.00    +0.181 A 
ATOM     22  S   UNL     1      -7.726   4.425   3.825  0.00  0.00    -0.011 S 
ATOM     23  N   UNL     1     -10.205   3.955   2.774  0.00  0.00    -0.276 N 
ATOM     24  C   UNL     1     -10.770   5.207   2.845  0.00  0.00    +0.115 A 
ATOM     25  C   UNL     1     -12.027   5.418   2.414  0.00  0.00    +0.059 A 
ATOM     26  C   UNL     1     -12.791   4.358   1.882  0.00  0.00    +0.045 A 
ATOM     27  C   UNL     1     -12.255   3.115   1.802  0.00  0.00    +0.087 A 
ATOM     28  C   UNL     1     -10.929   2.899   2.257  0.00  0.00    +0.178 A 
ATOM     29  N   UNL     1     -10.177   1.823   2.292  0.00  0.00    -0.151 NA
ATOM     30 CL   UNL     1     -13.184   1.801   1.150  0.00  0.00    -0.080 Cl
ATOM     31 CL   UNL     1     -12.716   7.009   2.516  0.00  0.00    -0.082 Cl
ENDBRANCH  19  20
ENDBRANCH   7  19
TORSDOF 3
