REMARK  Name = ZINC35379062
REMARK  7 active torsions:
REMARK  status: ('A' for Active; 'I' for Inactive)
REMARK    1  A    between atoms: C_1  and  C_2
REMARK    2  A    between atoms: C_7  and  N_8
REMARK    3  A    between atoms: C_9  and  C_11
REMARK    4  A    between atoms: N_16  and  S_18
REMARK    5  A    between atoms: S_18  and  C_21
REMARK    6  A    between atoms: C_26  and  C_27
REMARK    7  A    between atoms: C_31  and  C_34
REMARK                            x       y       z     vdW  Elec       q    Type
REMARK                         _______ _______ _______ _____ _____    ______ ____
ROOT
ATOM      1  C   UNL     1      -0.123   0.244   4.882  0.00  0.00    +0.091 C 
ATOM      2  C   UNL     1       1.106   1.124   5.122  0.00  0.00    +0.015 C 
ATOM      3  C   UNL     1       0.970   1.837   6.469  0.00  0.00    +0.018 C 
ATOM      4  C   UNL     1       0.896   0.794   7.589  0.00  0.00    +0.109 C 
ATOM      5  N   UNL     1      -0.194  -0.144   7.290  0.00  0.00    -0.176 NA
ATOM      6  C   UNL     1      -0.210  -0.817   5.984  0.00  0.00    +0.122 C 
ENDROOT
BRANCH   1   8
ATOM      7  N   UNL     1       0.089   0.307   2.418  0.00  0.00    -0.285 N 
ATOM      8  C   UNL     1      -0.003  -0.433   3.541  0.00  0.00    +0.222 C 
ATOM      9  O   UNL     1       0.010  -1.644   3.472  0.00  0.00    -0.275 OA
ATOM     10  H   UNL     1       0.141   1.274   2.478  0.00  0.00    +0.155 HD
BRANCH   7  17
ATOM     11  C   UNL     1      -1.146   1.640   0.229  0.00  0.00    +0.045 C 
ATOM     12  C   UNL     1      -0.480   0.296   0.072  0.00  0.00    -0.029 A 
ATOM     13  C   UNL     1      -0.453  -0.321  -1.164  0.00  0.00    +0.006 A 
ATOM     14  C   UNL     1       0.156  -1.553  -1.310  0.00  0.00    +0.020 A 
ATOM     15  C   UNL     1       0.742  -2.172  -0.219  0.00  0.00    +0.043 A 
ATOM     16  C   UNL     1       0.718  -1.559   1.020  0.00  0.00    +0.043 A 
ATOM     17  C   UNL     1       0.111  -0.319   1.167  0.00  0.00    +0.038 A 
ATOM     18 CL   UNL     1       1.507  -3.719  -0.406  0.00  0.00    -0.083 Cl
ENDBRANCH   7  17
ENDBRANCH   1   8
BRANCH   5  19
ATOM     19  S   UNL     1      -1.383  -0.439   8.405  0.00  0.00    +0.061 S 
ATOM     20  O   UNL     1      -1.819  -1.774   8.190  0.00  0.00    -0.153 OA
ATOM     21  O   UNL     1      -0.885   0.008   9.658  0.00  0.00    -0.153 OA
BRANCH  19  22
ATOM     22  C   UNL     1      -2.744   0.606   8.002  0.00  0.00    +0.112 A 
ATOM     23  C   UNL     1      -3.922   0.052   7.533  0.00  0.00    +0.076 A 
ATOM     24  C   UNL     1      -4.991   0.872   7.217  0.00  0.00    +0.145 A 
ATOM     25  C   UNL     1      -4.877   2.253   7.373  0.00  0.00    +0.076 A 
ATOM     26  C   UNL     1      -3.696   2.801   7.845  0.00  0.00    +0.032 A 
ATOM     27  C   UNL     1      -2.633   1.974   8.162  0.00  0.00    -0.022 A 
ATOM     28  C   UNL     1      -1.348   2.568   8.681  0.00  0.00    +0.046 C 
ATOM     29  N   UNL     1      -5.967   3.072   7.048  0.00  0.00    -0.280 N 
ATOM     30  C   UNL     1      -7.186   2.510   6.898  0.00  0.00    +0.258 C 
ATOM     31  O   UNL     1      -8.138   3.195   6.587  0.00  0.00    -0.271 OA
ATOM     32  C   UNL     1      -7.359   1.029   7.118  0.00  0.00    +0.256 C 
ATOM     33  O   UNL     1      -6.157   0.346   6.755  0.00  0.00    -0.478 OA
ATOM     34  C   UNL     1      -7.668   0.766   8.593  0.00  0.00    +0.062 C 
ATOM     35  H   UNL     1      -5.848   4.028   6.933  0.00  0.00    +0.155 HD
ENDBRANCH  19  22
ENDBRANCH   5  19
TORSDOF 4
