REMARK  Name = ZINC67575673
REMARK  7 active torsions:
REMARK  status: ('A' for Active; 'I' for Inactive)
REMARK    1  A    between atoms: C_1  and  C_2
REMARK    2  A    between atoms: N_4  and  C_5
REMARK    3  A    between atoms: C_8  and  N_12
REMARK    4  A    between atoms: N_15  and  C_16
REMARK    5  A    between atoms: N_19  and  C_22
REMARK    6  A    between atoms: C_22  and  C_23
REMARK    7  A    between atoms: N_25  and  C_26
REMARK                            x       y       z     vdW  Elec       q    Type
REMARK                         _______ _______ _______ _____ _____    ______ ____
ROOT
ATOM      1  N   UNL     1      -0.122  -6.232  -0.826  0.00  0.00    -0.268 N 
ATOM      2  C   UNL     1      -0.282  -6.830   0.371  0.00  0.00    +0.304 C 
ATOM      3  O   UNL     1      -0.310  -6.161   1.386  0.00  0.00    -0.253 OA
ATOM      4  N   UNL     1      -0.413  -8.169   0.443  0.00  0.00    -0.296 N 
ATOM      5  H   UNL     1      -0.034  -6.770  -1.629  0.00  0.00    +0.156 HD
ATOM      6  H   UNL     1      -0.391  -8.703  -0.366  0.00  0.00    +0.151 HD
ENDROOT
BRANCH   1  10
ATOM      7  C   UNL     1      -0.003  -2.070  -1.081  0.00  0.00    +0.035 A 
ATOM      8  C   UNL     1       0.536  -2.714   0.025  0.00  0.00    +0.025 A 
ATOM      9  C   UNL     1       0.497  -4.092   0.109  0.00  0.00    +0.026 A 
ATOM     10  C   UNL     1      -0.083  -4.833  -0.911  0.00  0.00    +0.053 A 
ATOM     11  C   UNL     1      -0.623  -4.189  -2.018  0.00  0.00    +0.064 A 
ATOM     12  C   UNL     1      -0.588  -2.811  -2.099  0.00  0.00    +0.045 A 
ATOM     13 CL   UNL     1      -1.347  -5.116  -3.294  0.00  0.00    -0.082 Cl
BRANCH   7  17
ATOM     14  C   UNL     1      -0.989   1.505  -1.734  0.00  0.00    +0.109 C 
ATOM     15  C   UNL     1      -0.984  -0.002  -1.735  0.00  0.00    +0.214 C 
ATOM     16  O   UNL     1      -1.899  -0.611  -2.247  0.00  0.00    -0.276 OA
ATOM     17  N   UNL     1       0.037  -0.672  -1.165  0.00  0.00    -0.286 N 
ATOM     18  H   UNL     1       0.800  -0.187  -0.815  0.00  0.00    +0.155 HD
ENDBRANCH   7  17
ENDBRANCH   1  10
BRANCH   4  19
ATOM     19  C   UNL     1      -0.587  -8.819   1.744  0.00  0.00    +0.071 C 
ATOM     20  C   UNL     1       0.784  -9.075   2.377  0.00  0.00    +0.004 C 
ATOM     21  C   UNL     1       0.598  -9.825   3.698  0.00  0.00    -0.076 C 
ATOM     22  N   UNL     1      -0.073 -11.106   3.448  0.00  0.00    +0.385 N 
ATOM     23  C   UNL     1      -1.417 -10.866   2.908  0.00  0.00    -0.076 C 
ATOM     24  C   UNL     1      -1.309 -10.157   1.556  0.00  0.00    +0.004 C 
ATOM     25  H   UNL     1       0.465 -11.642   2.783  0.00  0.00    -0.081 HD
BRANCH  22  26
ATOM     26  C   UNL     1      -0.179 -11.855   4.706  0.00  0.00    +0.019 C 
BRANCH  26  27
ATOM     27  C   UNL     1      -0.756 -13.220   4.431  0.00  0.00    +0.196 C 
ATOM     28  O   UNL     1      -1.051 -13.537   3.298  0.00  0.00    -0.278 OA
ATOM     29  N   UNL     1      -0.946 -14.089   5.444  0.00  0.00    -0.320 N 
ATOM     30  C   UNL     1      -1.507 -15.415   5.177  0.00  0.00    +0.128 C 
ATOM     31  H   UNL     1      -0.711 -13.835   6.351  0.00  0.00    +0.148 HD
ENDBRANCH  26  27
ENDBRANCH  22  26
ENDBRANCH   4  19
TORSDOF 5
