REMARK  Name = ZINC08958596
REMARK  13 active torsions:
REMARK  status: ('A' for Active; 'I' for Inactive)
REMARK    1  A    between atoms: C_1  and  C_2
REMARK    2  A    between atoms: C_2  and  O_3
REMARK    3  A    between atoms: O_3  and  C_4
REMARK    4  A    between atoms: N_10  and  C_35
REMARK    5  A    between atoms: N_12  and  C_13
REMARK    6  A    between atoms: C_13  and  C_15
REMARK    7  A    between atoms: C_18  and  S_21
REMARK    8  A    between atoms: S_21  and  N_24
REMARK    9  A    between atoms: C_26  and  C_33
REMARK   10  A    between atoms: C_29  and  C_32
REMARK   11  A    between atoms: C_35  and  C_36
REMARK   12  A    between atoms: C_36  and  O_37
REMARK   13  A    between atoms: O_37  and  C_38
REMARK                            x       y       z     vdW  Elec       q    Type
REMARK                         _______ _______ _______ _____ _____    ______ ____
ROOT
ATOM      1  C   UNL     1      -6.759  -1.310  -0.894  0.00  0.00    +0.269 C 
ATOM      2  O   UNL     1      -7.731  -0.691  -1.290  0.00  0.00    -0.268 OA
ENDROOT
BRANCH   1  11
ATOM      3  C   UNL     1     -10.413  -5.189   1.925  0.00  0.00    +0.145 A 
ATOM      4  C   UNL     1     -11.781  -5.303   2.053  0.00  0.00    +0.048 A 
ATOM      5  C   UNL     1     -12.635  -4.394   1.452  0.00  0.00    +0.005 A 
ATOM      6  C   UNL     1     -12.104  -3.353   0.711  0.00  0.00    +0.017 A 
ATOM      7  C   UNL     1     -10.739  -3.237   0.582  0.00  0.00    +0.042 A 
ATOM      8  C   UNL     1      -9.847  -4.139   1.176  0.00  0.00    +0.100 A 
ATOM      9  N   UNL     1      -8.508  -3.874   0.945  0.00  0.00    -0.316 N 
ATOM     10  C   UNL     1      -8.147  -2.803   0.190  0.00  0.00    +0.167 A 
ATOM     11  N   UNL     1      -6.924  -2.398  -0.134  0.00  0.00    -0.152 NA
ATOM     12  S   UNL     1      -9.667  -2.088  -0.244  0.00  0.00    -0.052 S 
BRANCH   3  13
ATOM     13  O   UNL     1      -9.602  -6.099   2.527  0.00  0.00    -0.490 OA
BRANCH  13  15
ATOM     14  C   UNL     1      -9.171  -8.060   3.873  0.00  0.00    +0.048 C 
ATOM     15  C   UNL     1     -10.236  -7.140   3.273  0.00  0.00    +0.226 C 
ENDBRANCH  13  15
ENDBRANCH   3  13
BRANCH   9  16
ATOM     16  C   UNL     1      -7.479  -4.747   1.516  0.00  0.00    +0.152 C 
BRANCH  16  17
ATOM     17  C   UNL     1      -7.080  -4.229   2.899  0.00  0.00    +0.181 C 
BRANCH  17  18
ATOM     18  O   UNL     1      -6.077  -5.081   3.455  0.00  0.00    -0.381 OA
ATOM     19  C   UNL     1      -5.631  -4.683   4.753  0.00  0.00    +0.194 C 
ENDBRANCH  17  18
ENDBRANCH  16  17
ENDBRANCH   9  16
ENDBRANCH   1  11
BRANCH   1  20
ATOM     20  C   UNL     1      -5.395  -0.859  -1.256  0.00  0.00    +0.039 A 
ATOM     21  C   UNL     1      -5.220   0.275  -2.048  0.00  0.00    +0.015 A 
ATOM     22  C   UNL     1      -3.947   0.691  -2.381  0.00  0.00    +0.029 A 
ATOM     23  C   UNL     1      -2.846  -0.014  -1.929  0.00  0.00    +0.106 A 
ATOM     24  C   UNL     1      -3.013  -1.143  -1.147  0.00  0.00    +0.029 A 
ATOM     25  C   UNL     1      -4.281  -1.566  -0.804  0.00  0.00    +0.015 A 
BRANCH  23  26
ATOM     26  S   UNL     1      -1.224   0.524  -2.358  0.00  0.00    +0.061 S 
ATOM     27  O   UNL     1      -1.350   1.284  -3.552  0.00  0.00    -0.153 OA
ATOM     28  O   UNL     1      -0.381  -0.616  -2.266  0.00  0.00    -0.153 OA
BRANCH  26  29
ATOM     29  N   UNL     1      -0.729   1.575  -1.178  0.00  0.00    -0.176 NA
ATOM     30  C   UNL     1      -0.013   1.086   0.008  0.00  0.00    +0.112 C 
ATOM     31  C   UNL     1      -0.736   1.583   1.264  0.00  0.00    +0.002 C 
ATOM     32  C   UNL     1      -0.878   3.105   1.196  0.00  0.00    +0.009 C 
ATOM     33  C   UNL     1      -1.712   3.490  -0.028  0.00  0.00    +0.002 C 
ATOM     34  C   UNL     1      -0.997   3.015  -1.297  0.00  0.00    +0.112 C 
ATOM     35  C   UNL     1      -3.088   2.827   0.061  0.00  0.00    +0.009 C 
ATOM     36  C   UNL     1       0.073   1.197   2.505  0.00  0.00    +0.009 C 
ENDBRANCH  26  29
ENDBRANCH  23  26
ENDBRANCH   1  20
TORSDOF 9
