REMARK  Name = ZINC66390689
REMARK  14 active torsions:
REMARK  status: ('A' for Active; 'I' for Inactive)
REMARK    1  A    between atoms: C_1  and  C_2
REMARK    2  A    between atoms: C_2  and  C_4
REMARK    3  A    between atoms: C_2  and  N_18
REMARK    4  A    between atoms: C_7  and  N_11
REMARK    5  A    between atoms: N_14  and  C_17
REMARK    6  A    between atoms: N_18  and  C_19
REMARK    7  A    between atoms: C_19  and  C_21
REMARK    8  A    between atoms: C_19  and  C_24
REMARK    9  A    between atoms: C_21  and  C_22
REMARK   10  A    between atoms: C_21  and  C_23
REMARK   11  A    between atoms: N_26  and  C_27
REMARK   12  A    between atoms: C_27  and  C_28
REMARK   13  A    between atoms: C_27  and  C_29
REMARK   14  A    between atoms: C_27  and  C_30
REMARK                            x       y       z     vdW  Elec       q    Type
REMARK                         _______ _______ _______ _____ _____    ______ ____
ROOT
ATOM      1  C   UNL     1      -0.192   1.672   0.270  0.00  0.00    +0.029 C 
ATOM      2  C   UNL     1      -0.192   0.155   0.072  0.00  0.00    +0.082 C 
ENDROOT
BRANCH   2   3
ATOM      3  C   UNL     1       0.314  -0.171  -1.310  0.00  0.00    -0.028 A 
ATOM      4  C   UNL     1       1.673  -0.177  -1.562  0.00  0.00    +0.007 A 
ATOM      5  C   UNL     1       2.142  -0.475  -2.827  0.00  0.00    +0.026 A 
ATOM      6  C   UNL     1       1.246  -0.769  -3.847  0.00  0.00    +0.065 A 
ATOM      7  C   UNL     1      -0.121  -0.762  -3.590  0.00  0.00    +0.145 A 
ATOM      8  C   UNL     1      -0.582  -0.468  -2.320  0.00  0.00    +0.045 A 
ATOM      9  F   UNL     1      -0.996  -1.047  -4.579  0.00  0.00    -0.204 F 
BRANCH   6  10
ATOM     10  N   UNL     1       1.717  -1.070  -5.128  0.00  0.00    -0.331 N 
ATOM     11  C   UNL     1       1.926  -0.010  -6.126  0.00  0.00    +0.086 C 
ATOM     12  C   UNL     1       3.334  -0.164  -6.711  0.00  0.00    -0.060 C 
ATOM     13  N   UNL     1       3.501  -1.527  -7.231  0.00  0.00    +0.380 N 
ATOM     14  C   UNL     1       3.422  -2.495  -6.130  0.00  0.00    -0.060 C 
ATOM     15  C   UNL     1       2.024  -2.456  -5.515  0.00  0.00    +0.086 C 
ATOM     16  C   UNL     1       4.809  -1.641  -7.890  0.00  0.00    -0.096 C 
ATOM     17  H   UNL     1       2.772  -1.721  -7.901  0.00  0.00    -0.082 HD
ENDBRANCH   6  10
ENDBRANCH   2   3
BRANCH   2  18
ATOM     18  N   UNL     1       0.682  -0.470   1.074  0.00  0.00    -0.299 NA
ATOM     19  H   UNL     1       1.069  -1.334   0.727  0.00  0.00    +0.123 HD
BRANCH  18  20
ATOM     20  C   UNL     1      -0.036  -0.684   2.338  0.00  0.00    +0.143 C 
BRANCH  20  21
ATOM     21  C   UNL     1      -0.802  -1.980   2.267  0.00  0.00    +0.231 C 
ATOM     22  O   UNL     1      -0.528  -2.801   1.417  0.00  0.00    -0.274 OA
ATOM     23  N   UNL     1      -1.792  -2.227   3.148  0.00  0.00    -0.309 N 
ATOM     24  H   UNL     1      -2.058  -1.543   3.781  0.00  0.00    +0.149 HD
BRANCH  23  25
ATOM     25  C   UNL     1      -2.464  -3.528   3.148  0.00  0.00    +0.026 C 
ATOM     26  C   UNL     1      -1.441  -4.631   3.423  0.00  0.00    +0.031 C 
ATOM     27  C   UNL     1      -3.539  -3.546   4.236  0.00  0.00    +0.031 C 
ATOM     28  C   UNL     1      -3.116  -3.766   1.784  0.00  0.00    +0.031 C 
ENDBRANCH  23  25
ENDBRANCH  20  21
BRANCH  20  29
ATOM     29  C   UNL     1       0.969  -0.748   3.490  0.00  0.00    +0.009 C 
ATOM     30  C   UNL     1       2.032  -1.805   3.182  0.00  0.00    +0.009 C 
ATOM     31  C   UNL     1       1.640   0.617   3.657  0.00  0.00    +0.009 C 
ENDBRANCH  20  29
ENDBRANCH  18  20
ENDBRANCH   2  18
TORSDOF 7
