REMARK  Name = ZINC64111349
REMARK  5 active torsions:
REMARK  status: ('A' for Active; 'I' for Inactive)
REMARK    1  A    between atoms: C_1  and  C_2
REMARK    2  A    between atoms: N_16  and  C_17
REMARK    3  A    between atoms: C_17  and  C_18
REMARK    4  A    between atoms: N_20  and  C_21
REMARK    5  A    between atoms: C_21  and  C_28
REMARK                            x       y       z     vdW  Elec       q    Type
REMARK                         _______ _______ _______ _____ _____    ______ ____
ROOT
ATOM      1  C   UNL     1      -0.122   1.473  -0.000  0.00  0.00    -0.011 C 
ATOM      2  C   UNL     1      -0.040  -0.054   0.013  0.00  0.00    -0.044 C 
ATOM      3  C   UNL     1       0.569  -0.549  -1.302  0.00  0.00    +0.092 C 
ATOM      4  C   UNL     1       0.752  -2.054  -1.144  0.00  0.00    -0.042 C 
ATOM      5  C   UNL     1       0.144  -2.617  -2.179  0.00  0.00    -0.001 A 
ATOM      6  C   UNL     1       0.053  -4.017  -2.623  0.00  0.00    +0.010 A 
ATOM      7  C   UNL     1      -0.681  -4.245  -3.744  0.00  0.00    +0.001 A 
ATOM      8  C   UNL     1      -1.325  -3.231  -4.460  0.00  0.00    +0.002 A 
ATOM      9  C   UNL     1      -1.290  -1.916  -4.128  0.00  0.00    +0.026 A 
ATOM     10  C   UNL     1      -0.545  -1.551  -2.970  0.00  0.00    +0.043 A 
ATOM     11  N   UNL     1      -0.324  -0.362  -2.444  0.00  0.00    -0.379 N 
ATOM     12  C   UNL     1       1.430  -2.643   0.070  0.00  0.00    +0.015 C 
ATOM     13  C   UNL     1       0.796  -1.949   1.290  0.00  0.00    -0.073 C 
ATOM     14  N   UNL     1       0.824  -0.495   1.119  0.00  0.00    +0.389 N 
ATOM     15  H   UNL     1      -0.686   0.484  -2.749  0.00  0.00    +0.160 HD
ATOM     16  H   UNL     1       1.772  -0.205   0.930  0.00  0.00    -0.081 HD
ENDROOT
BRANCH  14  17
ATOM     17  C   UNL     1       0.370   0.143   2.362  0.00  0.00    +0.019 C 
BRANCH  17  18
ATOM     18  C   UNL     1       1.350  -0.157   3.467  0.00  0.00    +0.197 C 
ATOM     19  O   UNL     1       2.330  -0.835   3.241  0.00  0.00    -0.278 OA
ATOM     20  N   UNL     1       1.138   0.328   4.707  0.00  0.00    -0.310 N 
ATOM     21  H   UNL     1       0.354   0.870   4.887  0.00  0.00    +0.149 HD
BRANCH  20  22
ATOM     22  C   UNL     1       2.090   0.037   5.781  0.00  0.00    +0.052 C 
ATOM     23  C   UNL     1       2.240  -1.479   5.904  0.00  0.00    +0.049 C 
ATOM     24  C   UNL     1       2.617  -1.866   7.362  0.00  0.00    +0.168 C 
ATOM     25  S   UNL     1       1.546  -0.676   8.283  0.00  0.00    -0.029 S 
ATOM     26  O   UNL     1       2.207  -0.281   9.477  0.00  0.00    -0.174 OA
ATOM     27  O   UNL     1       0.224  -1.192   8.348  0.00  0.00    -0.174 OA
ATOM     28  C   UNL     1       1.597   0.713   7.075  0.00  0.00    +0.191 C 
ATOM     29  C   UNL     1       3.449   0.631   5.404  0.00  0.00    +0.033 C 
ENDBRANCH  20  22
ENDBRANCH  17  18
ENDBRANCH  14  17
TORSDOF 3
