REMARK  Name = ZINC01029960
REMARK  10 active torsions:
REMARK  status: ('A' for Active; 'I' for Inactive)
REMARK    1  A    between atoms: C_1  and  C_2
REMARK    2  A    between atoms: C_5  and  O_9
REMARK    3  A    between atoms: C_7  and  C_8
REMARK    4  A    between atoms: O_9  and  C_10
REMARK    5  A    between atoms: C_10  and  C_11
REMARK    6  A    between atoms: C_11  and  C_13
REMARK    7  A    between atoms: C_11  and  O_26
REMARK    8  A    between atoms: C_13  and  N_14
REMARK    9  A    between atoms: N_14  and  C_15
REMARK   10  A    between atoms: C_19  and  C_21
REMARK                            x       y       z     vdW  Elec       q    Type
REMARK                         _______ _______ _______ _____ _____    ______ ____
ROOT
ATOM      1  C   UNL     1       2.374   4.248  -0.123  0.00  0.00    +0.136 C 
ENDROOT
BRANCH   1   2
ATOM      2  N   UNL     1       2.162   5.697  -0.114  0.00  0.00    -0.341 N 
ATOM      3  H   UNL     1       1.265   6.056  -0.030  0.00  0.00    +0.146 HD
BRANCH   2   4
ATOM      4  C   UNL     1       3.253   6.563  -0.225  0.00  0.00    +0.028 A 
ATOM      5  C   UNL     1       4.540   6.051  -0.339  0.00  0.00    +0.024 A 
ATOM      6  C   UNL     1       5.615   6.910  -0.454  0.00  0.00    +0.017 A 
ATOM      7  C   UNL     1       5.414   8.279  -0.444  0.00  0.00    +0.030 A 
ATOM      8  C   UNL     1       4.134   8.791  -0.326  0.00  0.00    +0.070 A 
ATOM      9  C   UNL     1       3.054   7.938  -0.216  0.00  0.00    +0.036 A 
ATOM     10 BR   UNL     1       6.890   9.451  -0.595  0.00  0.00    -0.050 Br
BRANCH   8  11
ATOM     11  C   UNL     1       3.919  10.283  -0.316  0.00  0.00    +0.418 C 
ATOM     12  F   UNL     1       2.553  10.556  -0.188  0.00  0.00    -0.166 F 
ATOM     13  F   UNL     1       4.611  10.847   0.761  0.00  0.00    -0.166 F 
ATOM     14  F   UNL     1       4.394  10.830  -1.513  0.00  0.00    -0.166 F 
ENDBRANCH   8  11
ENDBRANCH   2   4
ENDBRANCH   1   2
BRANCH   1  15
ATOM     15  C   UNL     1       1.027   3.535   0.011  0.00  0.00    +0.169 C 
BRANCH  15  16
ATOM     16  O   UNL     1       0.406   3.917   1.240  0.00  0.00    -0.387 OA
ATOM     17  H   UNL     1       0.925   3.699   2.027  0.00  0.00    +0.210 HD
ENDBRANCH  15  16
BRANCH  15  18
ATOM     18  C   UNL     1       1.248   2.021   0.001  0.00  0.00    +0.261 C 
BRANCH  18  19
ATOM     19  O   UNL     1      -0.016   1.355   0.009  0.00  0.00    -0.489 OA
BRANCH  19  24
ATOM     20  C   UNL     1       0.060  -4.277  -0.021  0.00  0.00    +0.044 C 
ATOM     21  C   UNL     1       0.040  -2.770  -0.013  0.00  0.00    -0.047 A 
ATOM     22  C   UNL     1       1.228  -2.064  -0.021  0.00  0.00    +0.007 A 
ATOM     23  C   UNL     1       1.212  -0.682  -0.019  0.00  0.00    +0.046 A 
ATOM     24  C   UNL     1       0.002  -0.004   0.002  0.00  0.00    +0.121 A 
ATOM     25  C   UNL     1      -1.189  -0.715   0.010  0.00  0.00    +0.049 A 
ATOM     26  C   UNL     1      -1.167  -2.096   0.002  0.00  0.00    -0.044 A 
ATOM     27  C   UNL     1      -2.461  -2.870   0.011  0.00  0.00    +0.044 C 
ENDBRANCH  19  24
ENDBRANCH  18  19
ENDBRANCH  15  18
ENDBRANCH   1  15
TORSDOF 8
