REMARK  Name = ZINC43510589
REMARK  12 active torsions:
REMARK  status: ('A' for Active; 'I' for Inactive)
REMARK    1  A    between atoms: C_1  and  C_2
REMARK    2  A    between atoms: C_2  and  C_4
REMARK    3  A    between atoms: C_2  and  N_34
REMARK    4  A    between atoms: C_6  and  O_33
REMARK    5  A    between atoms: C_9  and  C_32
REMARK    6  A    between atoms: C_10  and  C_31
REMARK    7  A    between atoms: C_24  and  N_29
REMARK    8  A    between atoms: C_26  and  C_27
REMARK    9  A    between atoms: C_26  and  C_28
REMARK   10  A    between atoms: N_29  and  C_30
REMARK   11  A    between atoms: N_34  and  C_35
REMARK   12  A    between atoms: C_36  and  C_38
REMARK                            x       y       z     vdW  Elec       q    Type
REMARK                         _______ _______ _______ _____ _____    ______ ____
ROOT
ATOM      1  C   UNL     1       0.106   0.041  -2.049  0.00  0.00    +0.044 C 
ATOM      2  C   UNL     1       0.301  -1.496  -1.968  0.00  0.00    +0.120 C 
ATOM      3  C   UNL     1      -0.403  -2.079  -3.230  0.00  0.00    +0.039 C 
ATOM      4  C   UNL     1      -1.544  -1.054  -3.423  0.00  0.00    -0.017 C 
ATOM      5  C   UNL     1      -0.765   0.265  -3.288  0.00  0.00    -0.016 C 
ATOM      6  C   UNL     1      -1.678   1.455  -3.345  0.00  0.00    +0.035 C 
ATOM      7  C   UNL     1      -2.874   1.185  -4.201  0.00  0.00    -0.023 C 
ATOM      8  C   UNL     1      -3.192   0.077  -4.859  0.00  0.00    -0.048 C 
ATOM      9  C   UNL     1      -2.330  -1.185  -4.702  0.00  0.00    +0.025 C 
ATOM     10  C   UNL     1      -1.500  -1.418  -5.955  0.00  0.00    +0.009 C 
ATOM     11  C   UNL     1      -2.026  -0.639  -7.162  0.00  0.00    +0.009 C 
ATOM     12  C   UNL     1      -3.370  -1.083  -7.676  0.00  0.00    +0.019 C 
ATOM     13  C   UNL     1      -4.512  -0.514  -6.853  0.00  0.00    -0.066 C 
ATOM     14  C   UNL     1      -4.410  -0.018  -5.658  0.00  0.00    +0.003 C 
ATOM     15  C   UNL     1      -5.854  -0.519  -7.573  0.00  0.00    +0.029 C 
ATOM     16  C   UNL     1      -6.131  -1.968  -7.995  0.00  0.00    -0.011 C 
ATOM     17  C   UNL     1      -4.977  -2.558  -8.794  0.00  0.00    -0.066 C 
ATOM     18  C   UNL     1      -3.655  -2.530  -7.991  0.00  0.00    -0.041 C 
ATOM     19  C   UNL     1      -2.539  -3.120  -8.861  0.00  0.00    +0.010 C 
ATOM     20  C   UNL     1      -3.838  -3.386  -6.738  0.00  0.00    +0.010 C 
ATOM     21  C   UNL     1       0.253   0.476  -4.432  0.00  0.00    +0.012 C 
ATOM     22  C   UNL     1      -2.542  -1.240  -2.249  0.00  0.00    +0.012 C 
ENDROOT
BRANCH  17  23
ATOM     23  N   UNL     1      -5.289  -3.955  -9.129  0.00  0.00    +0.379 N 
ATOM     24  C   UNL     1      -6.450  -3.995 -10.029  0.00  0.00    -0.100 C 
ATOM     25  H   UNL     1      -4.495  -4.377  -9.587  0.00  0.00    -0.086 HD
ATOM     26  H   UNL     1      -5.500  -4.465  -8.285  0.00  0.00    -0.086 HD
ENDBRANCH  17  23
BRANCH   1  28
ATOM     27  C   UNL     1      -0.407   2.136  -0.809  0.00  0.00    +0.028 C 
ATOM     28  C   UNL     1      -0.464   0.608  -0.763  0.00  0.00    +0.079 C 
BRANCH  28  29
ATOM     29  N   UNL     1       0.322   0.124   0.375  0.00  0.00    -0.302 N 
ATOM     30  C   UNL     1       1.753   0.427   0.458  0.00  0.00    +0.132 C 
ATOM     31  C   UNL     1      -0.271  -0.601   1.345  0.00  0.00    +0.212 C 
ATOM     32  O   UNL     1      -1.432  -0.931   1.230  0.00  0.00    -0.276 OA
ATOM     33  C   UNL     1       0.509  -0.999   2.571  0.00  0.00    +0.109 C 
ENDBRANCH  28  29
ENDBRANCH   1  28
BRANCH   2  34
ATOM     34  O   UNL     1       1.693  -1.816  -2.000  0.00  0.00    -0.391 OA
ATOM     35  H   UNL     1       1.879  -2.764  -1.952  0.00  0.00    +0.210 HD
ENDBRANCH   2  34
TORSDOF 4
