REMARK  Name = ZINC00684375
REMARK  5 active torsions:
REMARK  status: ('A' for Active; 'I' for Inactive)
REMARK    1  A    between atoms: C_1  and  C_2
REMARK    2  A    between atoms: C_2  and  C_3
REMARK    3  A    between atoms: C_15  and  S_18
REMARK    4  A    between atoms: S_18  and  C_19
REMARK    5  A    between atoms: C_21  and  C_23
REMARK                            x       y       z     vdW  Elec       q    Type
REMARK                         _______ _______ _______ _____ _____    ______ ____
ROOT
ATOM      1  C   UNL     1      -2.973   0.169  -1.485  0.00  0.00    +0.223 C 
ATOM      2  O   UNL     1      -2.580  -0.571  -2.361  0.00  0.00    -0.275 OA
ATOM      3  N   UNL     1      -2.394   0.141  -0.269  0.00  0.00    -0.230 N 
ATOM      4  C   UNL     1      -2.836   0.991   0.753  0.00  0.00    +0.049 A 
ATOM      5  C   UNL     1      -2.627   2.356   0.695  0.00  0.00    +0.024 A 
ATOM      6  C   UNL     1      -3.054   3.163   1.734  0.00  0.00    +0.002 A 
ATOM      7  C   UNL     1      -3.690   2.613   2.833  0.00  0.00    +0.001 A 
ATOM      8  C   UNL     1      -3.914   1.252   2.902  0.00  0.00    +0.012 A 
ATOM      9  C   UNL     1      -3.495   0.430   1.863  0.00  0.00    +0.029 A 
ATOM     10  C   UNL     1      -3.727  -1.029   1.887  0.00  0.00    +0.156 A 
ATOM     11  C   UNL     1      -2.667  -1.911   1.577  0.00  0.00    +0.248 A 
ATOM     12  N   UNL     1      -2.897  -3.212   1.593  0.00  0.00    -0.184 NA
ATOM     13  C   UNL     1      -4.113  -3.654   1.903  0.00  0.00    +0.212 A 
ATOM     14  N   UNL     1      -5.094  -2.810   2.196  0.00  0.00    -0.122 NA
ATOM     15  N   UNL     1      -4.913  -1.534   2.191  0.00  0.00    -0.141 NA
ATOM     16  O   UNL     1      -1.444  -1.415   1.272  0.00  0.00    -0.448 OA
ATOM     17  C   UNL     1      -1.293  -0.775   0.010  0.00  0.00    +0.304 C 
ENDROOT
BRANCH  17  18
ATOM     18  C   UNL     1       0.002  -0.004   0.002  0.00  0.00    +0.026 A 
ATOM     19  C   UNL     1       0.034   1.288  -0.490  0.00  0.00    +0.010 A 
ATOM     20  C   UNL     1       1.222   1.995  -0.497  0.00  0.00    +0.001 A 
ATOM     21  C   UNL     1       2.378   1.411  -0.013  0.00  0.00    +0.001 A 
ATOM     22  C   UNL     1       2.346   0.120   0.479  0.00  0.00    +0.016 A 
ATOM     23  C   UNL     1       1.158  -0.589   0.486  0.00  0.00    +0.026 A 
ATOM     24 BR   UNL     1       1.115  -2.355   1.160  0.00  0.00    -0.050 Br
ENDBRANCH  17  18
BRANCH   1  26
ATOM     25  C   UNL     1      -4.582   0.953  -3.202  0.00  0.00    +0.013 C 
ATOM     26  C   UNL     1      -4.109   1.121  -1.757  0.00  0.00    +0.093 C 
ENDBRANCH   1  26
BRANCH  13  27
ATOM     27  S   UNL     1      -4.426  -5.388   1.926  0.00  0.00    -0.088 S 
ATOM     28  C   UNL     1      -6.174  -5.386   2.395  0.00  0.00    +0.093 C 
ENDBRANCH  13  27
TORSDOF 3
