REMARK  Name = ZINC05208270
REMARK  10 active torsions:
REMARK  status: ('A' for Active; 'I' for Inactive)
REMARK    1  A    between atoms: C_1  and  C_2
REMARK    2  A    between atoms: C_3  and  C_4
REMARK    3  A    between atoms: C_10  and  C_35
REMARK    4  A    between atoms: C_11  and  C_13
REMARK    5  A    between atoms: C_16  and  O_19
REMARK    6  A    between atoms: O_19  and  C_20
REMARK    7  A    between atoms: C_22  and  O_34
REMARK    8  A    between atoms: C_24  and  O_33
REMARK    9  A    between atoms: C_26  and  O_32
REMARK   10  A    between atoms: C_28  and  C_31
REMARK                            x       y       z     vdW  Elec       q    Type
REMARK                         _______ _______ _______ _____ _____    ______ ____
ROOT
ATOM      1  C   UNL     1      -2.849   6.297   0.358  0.00  0.00    +0.018 A 
ATOM      2  C   UNL     1      -2.403   7.619   0.414  0.00  0.00    +0.015 A 
ATOM      3  C   UNL     1      -3.309   8.644   0.577  0.00  0.00    +0.046 A 
ATOM      4  C   UNL     1      -4.664   8.363   0.699  0.00  0.00    +0.124 A 
ATOM      5  C   UNL     1      -5.112   7.050   0.649  0.00  0.00    +0.046 A 
ATOM      6  C   UNL     1      -4.212   6.019   0.480  0.00  0.00    +0.015 A 
ENDROOT
BRANCH   1  14
ATOM      7  C   UNL     1       0.819   1.596  -0.735  0.00  0.00    -0.025 A 
ATOM      8  C   UNL     1       1.579   2.216   0.265  0.00  0.00    +0.011 A 
ATOM      9  C   UNL     1       1.137   3.374   0.861  0.00  0.00    +0.047 A 
ATOM     10  C   UNL     1      -0.066   3.949   0.467  0.00  0.00    +0.136 A 
ATOM     11  C   UNL     1      -0.834   3.331  -0.536  0.00  0.00    +0.024 A 
ATOM     12  C   UNL     1      -0.389   2.154  -1.136  0.00  0.00    +0.019 A 
ATOM     13  C   UNL     1      -2.020   4.175  -0.704  0.00  0.00    +0.003 A 
ATOM     14  C   UNL     1      -1.881   5.195   0.176  0.00  0.00    +0.139 A 
ATOM     15  O   UNL     1      -0.730   5.056   0.862  0.00  0.00    -0.455 OA
ATOM     16  C   UNL     1      -3.163   3.953  -1.661  0.00  0.00    +0.048 C 
BRANCH   7  19
ATOM     17  C   UNL     1       2.947  -1.456  -1.622  0.00  0.00    +0.035 C 
ATOM     18  C   UNL     1       2.455  -0.184  -0.981  0.00  0.00    -0.030 C 
ATOM     19  C   UNL     1       1.302   0.348  -1.364  0.00  0.00    +0.003 C 
ENDBRANCH   7  19
ENDBRANCH   1  14
BRANCH   4  20
ATOM     20  O   UNL     1      -5.554   9.376   0.866  0.00  0.00    -0.461 OA
BRANCH  20  21
ATOM     21  C   UNL     1      -5.025  10.703   0.907  0.00  0.00    +0.339 C 
ATOM     22  C   UNL     1      -6.123  11.676   1.346  0.00  0.00    +0.214 C 
ATOM     23  C   UNL     1      -5.566  13.103   1.330  0.00  0.00    +0.180 C 
ATOM     24  C   UNL     1      -5.037  13.418  -0.073  0.00  0.00    +0.174 C 
ATOM     25  C   UNL     1      -3.981  12.377  -0.456  0.00  0.00    +0.150 C 
ATOM     26  O   UNL     1      -4.556  11.071  -0.392  0.00  0.00    -0.334 OA
ATOM     27  C   UNL     1      -3.491  12.649  -1.880  0.00  0.00    +0.041 C 
BRANCH  24  28
ATOM     28  O   UNL     1      -6.114  13.373  -1.010  0.00  0.00    -0.387 OA
ATOM     29  H   UNL     1      -5.851  13.563  -1.921  0.00  0.00    +0.210 HD
ENDBRANCH  24  28
BRANCH  23  30
ATOM     30  O   UNL     1      -6.604  14.025   1.669  0.00  0.00    -0.386 OA
ATOM     31  H   UNL     1      -6.989  13.880   2.544  0.00  0.00    +0.210 HD
ENDBRANCH  23  30
BRANCH  22  32
ATOM     32  O   UNL     1      -6.554  11.346   2.668  0.00  0.00    -0.383 OA
ATOM     33  H   UNL     1      -6.914  10.453   2.752  0.00  0.00    +0.210 HD
ENDBRANCH  22  32
ENDBRANCH  20  21
ENDBRANCH   4  20
TORSDOF 7
