REMARK  Name = ZINC40825878
REMARK  5 active torsions:
REMARK  status: ('A' for Active; 'I' for Inactive)
REMARK    1  A    between atoms: C_1  and  C_2
REMARK    2  A    between atoms: C_6  and  C_7
REMARK    3  A    between atoms: N_9  and  C_10
REMARK    4  A    between atoms: N_21  and  N_22
REMARK    5  A    between atoms: C_23  and  C_25
REMARK                            x       y       z     vdW  Elec       q    Type
REMARK                         _______ _______ _______ _____ _____    ______ ____
ROOT
ATOM      1  C   UNL     1      -0.006   1.502   0.010  0.00  0.00    +0.048 C 
ATOM      2  C   UNL     1       0.021  -0.004   0.002  0.00  0.00    +0.009 A 
ATOM      3  C   UNL     1       0.039  -0.839  -1.123  0.00  0.00    +0.042 A 
ATOM      4  C   UNL     1       0.059  -2.138  -0.672  0.00  0.00    +0.115 A 
ATOM      5  O   UNL     1       0.057  -2.112   0.658  0.00  0.00    -0.454 OA
ATOM      6  C   UNL     1       0.039  -0.831   1.091  0.00  0.00    +0.193 A 
ATOM      7  C   UNL     1       0.076  -3.327  -1.599  0.00  0.00    +0.075 C 
ATOM      8  C   UNL     1      -0.440  -2.906  -2.977  0.00  0.00    +0.014 C 
ATOM      9  C   UNL     1       0.330  -1.685  -3.492  0.00  0.00    +0.058 C 
ATOM     10  C   UNL     1       0.040  -0.513  -2.566  0.00  0.00    +0.070 C 
ATOM     11  N   UNL     1      -0.190   0.685  -3.010  0.00  0.00    -0.184 NA
ENDROOT
BRANCH   6  12
ATOM     12  C   UNL     1       0.035  -0.400   2.493  0.00  0.00    +0.284 C 
ATOM     13  O   UNL     1       0.014   0.786   2.765  0.00  0.00    -0.266 OA
ATOM     14  N   UNL     1       0.054  -1.317   3.480  0.00  0.00    -0.278 N 
ATOM     15  H   UNL     1      -0.010  -2.261   3.266  0.00  0.00    +0.155 HD
BRANCH  14  16
ATOM     16  C   UNL     1       0.167  -0.909   4.813  0.00  0.00    +0.048 A 
ATOM     17  C   UNL     1       0.759   0.310   5.119  0.00  0.00    +0.024 A 
ATOM     18  C   UNL     1       0.869   0.711   6.436  0.00  0.00    +0.002 A 
ATOM     19  C   UNL     1       0.391  -0.100   7.450  0.00  0.00    +0.001 A 
ATOM     20  C   UNL     1      -0.199  -1.314   7.149  0.00  0.00    +0.017 A 
ATOM     21  C   UNL     1      -0.318  -1.718   5.833  0.00  0.00    +0.039 A 
ATOM     22 BR   UNL     1      -1.133  -3.374   5.421  0.00  0.00    -0.048 Br
ENDBRANCH  14  16
ENDBRANCH   6  12
BRANCH  11  23
ATOM     23  N   UNL     1      -0.176   0.936  -4.388  0.00  0.00    -0.201 N 
ATOM     24  C   UNL     1      -0.415   2.180  -4.848  0.00  0.00    +0.282 C 
ATOM     25  O   UNL     1      -0.642   3.084  -4.068  0.00  0.00    -0.267 OA
ATOM     26  H   UNL     1       0.005   0.215  -5.011  0.00  0.00    +0.178 HD
BRANCH  24  27
ATOM     27  C   UNL     1      -0.401   2.446  -6.306  0.00  0.00    +0.128 A 
ATOM     28  C   UNL     1      -0.645   3.748  -6.768  0.00  0.00    +0.034 A 
ATOM     29  C   UNL     1      -0.635   4.006  -8.108  0.00  0.00    +0.012 A 
ATOM     30  C   UNL     1      -0.375   2.939  -8.990  0.00  0.00    +0.000 A 
ATOM     31  C   UNL     1      -0.348   3.133 -10.380  0.00  0.00    +0.010 A 
ATOM     32  C   UNL     1      -0.093   2.079 -11.203  0.00  0.00    +0.001 A 
ATOM     33  C   UNL     1       0.143   0.806 -10.684  0.00  0.00    +0.002 A 
ATOM     34  C   UNL     1       0.124   0.581  -9.343  0.00  0.00    +0.028 A 
ATOM     35  C   UNL     1      -0.135   1.646  -8.459  0.00  0.00    +0.072 A 
ATOM     36  N   UNL     1      -0.152   1.454  -7.140  0.00  0.00    -0.242 NA
ENDBRANCH  24  27
ENDBRANCH  11  23
TORSDOF 4
