REMARK  Name = ZINC63573226
REMARK  5 active torsions:
REMARK  status: ('A' for Active; 'I' for Inactive)
REMARK    1  A    between atoms: C_1  and  O_2
REMARK    2  A    between atoms: O_2  and  C_3
REMARK    3  A    between atoms: C_10  and  C_31
REMARK    4  A    between atoms: N_20  and  C_21
REMARK    5  A    between atoms: C_26  and  C_27
REMARK                            x       y       z     vdW  Elec       q    Type
REMARK                         _______ _______ _______ _____ _____    ______ ____
ROOT
ATOM      1  C   UNL     1       0.273  -0.622  -1.479  0.00  0.00    +0.121 A 
ATOM      2  C   UNL     1       1.261   0.201  -2.048  0.00  0.00    +0.047 A 
ATOM      3  C   UNL     1       2.309  -0.296  -2.738  0.00  0.00    +0.029 A 
ATOM      4  C   UNL     1       2.446  -1.745  -2.914  0.00  0.00    +0.043 A 
ATOM      5  N   UNL     1       3.361  -2.472  -3.512  0.00  0.00    -0.375 N 
ATOM      6  C   UNL     1       2.956  -3.874  -3.445  0.00  0.00    +0.131 C 
ATOM      7  C   UNL     1       4.020  -4.745  -2.766  0.00  0.00    +0.134 C 
ATOM      8  N   UNL     1       3.385  -6.015  -2.381  0.00  0.00    -0.276 N 
ATOM      9  C   UNL     1       2.242  -6.030  -1.461  0.00  0.00    +0.114 C 
ATOM     10  C   UNL     1       1.104  -5.175  -2.049  0.00  0.00    +0.052 C 
ATOM     11  C   UNL     1       1.716  -3.894  -2.567  0.00  0.00    -0.035 C 
ATOM     12  C   UNL     1       1.409  -2.616  -2.307  0.00  0.00    +0.003 A 
ATOM     13  C   UNL     1       0.311  -1.972  -1.576  0.00  0.00    +0.055 A 
ATOM     14  C   UNL     1       3.857  -7.175  -2.878  0.00  0.00    +0.307 C 
ATOM     15  O   UNL     1       4.850  -7.176  -3.580  0.00  0.00    -0.252 OA
ATOM     16  N   UNL     1       3.228  -8.334  -2.599  0.00  0.00    -0.269 N 
ATOM     17  H   UNL     1       2.396  -8.326  -2.100  0.00  0.00    +0.156 HD
ATOM     18  H   UNL     1       4.170  -2.135  -3.928  0.00  0.00    +0.160 HD
ENDROOT
BRANCH   7  19
ATOM     19  C   UNL     1       4.546  -4.044  -1.540  0.00  0.00    -0.025 A 
ATOM     20  C   UNL     1       5.894  -3.760  -1.433  0.00  0.00    +0.008 A 
ATOM     21  C   UNL     1       6.378  -3.117  -0.309  0.00  0.00    +0.038 A 
ATOM     22  C   UNL     1       5.511  -2.757   0.709  0.00  0.00    +0.123 A 
ATOM     23  C   UNL     1       4.161  -3.042   0.600  0.00  0.00    +0.038 A 
ATOM     24  C   UNL     1       3.679  -3.681  -0.527  0.00  0.00    +0.008 A 
ATOM     25  F   UNL     1       5.983  -2.129   1.808  0.00  0.00    -0.205 F 
ENDBRANCH   7  19
BRANCH  16  26
ATOM     26  C   UNL     1       3.776  -9.548  -3.027  0.00  0.00    +0.046 A 
ATOM     27  C   UNL     1       4.548  -9.595  -4.180  0.00  0.00    +0.024 A 
ATOM     28  C   UNL     1       5.088 -10.795  -4.599  0.00  0.00    +0.002 A 
ATOM     29  C   UNL     1       4.859 -11.950  -3.873  0.00  0.00    +0.001 A 
ATOM     30  C   UNL     1       4.090 -11.906  -2.725  0.00  0.00    +0.014 A 
ATOM     31  C   UNL     1       3.552 -10.708  -2.297  0.00  0.00    +0.076 A 
BRANCH  31  32
ATOM     32  C   UNL     1       2.719 -10.661  -1.042  0.00  0.00    +0.419 C 
ATOM     33  F   UNL     1       2.638 -11.943  -0.487  0.00  0.00    -0.166 F 
ATOM     34  F   UNL     1       3.312  -9.791  -0.121  0.00  0.00    -0.166 F 
ATOM     35  F   UNL     1       1.433 -10.205  -1.353  0.00  0.00    -0.166 F 
ENDBRANCH  31  32
ENDBRANCH  16  26
BRANCH   1  37
ATOM     36  C   UNL     1      -0.755   1.385  -0.724  0.00  0.00    +0.277 C 
ATOM     37  O   UNL     1      -0.753  -0.042  -0.802  0.00  0.00    -0.495 OA
ENDBRANCH   1  37
TORSDOF 4
