REMARK  Name = ZINC37030917
REMARK  6 active torsions:
REMARK  status: ('A' for Active; 'I' for Inactive)
REMARK    1  A    between atoms: C_1  and  C_2
REMARK    2  A    between atoms: C_4  and  C_7
REMARK    3  A    between atoms: C_7  and  C_9
REMARK    4  A    between atoms: C_7  and  N_10
REMARK    5  A    between atoms: N_10  and  C_11
REMARK    6  A    between atoms: C_14  and  C_17
REMARK                            x       y       z     vdW  Elec       q    Type
REMARK                         _______ _______ _______ _____ _____    ______ ____
ROOT
ATOM      1  C   UNL     1      -4.186  -3.193  -1.167  0.00  0.00    +0.028 A 
ATOM      2  C   UNL     1      -4.082  -4.579  -1.199  0.00  0.00    +0.023 A 
ATOM      3  C   UNL     1      -5.081  -5.333  -1.778  0.00  0.00    +0.012 A 
ATOM      4  C   UNL     1      -6.196  -4.704  -2.330  0.00  0.00    +0.002 A 
ATOM      5  C   UNL     1      -6.298  -3.315  -2.296  0.00  0.00    +0.012 A 
ATOM      6  C   UNL     1      -5.299  -2.565  -1.712  0.00  0.00    +0.023 A 
ENDROOT
BRANCH   4   7
ATOM      7  C   UNL     1      -7.272  -5.513  -2.954  0.00  0.00    +0.096 A 
ATOM      8  C   UNL     1      -8.446  -5.011  -3.545  0.00  0.00    +0.101 A 
ATOM      9  C   UNL     1      -9.169  -6.068  -3.997  0.00  0.00    +0.267 A 
ATOM     10  O   UNL     1     -10.368  -6.006  -4.630  0.00  0.00    -0.266 OA
ATOM     11  N   UNL     1      -8.477  -7.198  -3.701  0.00  0.00    -0.243 N 
ATOM     12  N   UNL     1      -7.292  -6.825  -3.054  0.00  0.00    -0.171 NA
ATOM     13  H   UNL     1      -8.754  -8.105  -3.906  0.00  0.00    +0.192 HD
ENDBRANCH   4   7
BRANCH   1  14
ATOM     14  N   UNL     1      -3.173  -2.432  -0.581  0.00  0.00    -0.336 N 
ATOM     15  H   UNL     1      -3.246  -1.465  -0.554  0.00  0.00    +0.147 HD
BRANCH  14  16
ATOM     16  C   UNL     1      -1.999  -3.093  -0.006  0.00  0.00    +0.117 C 
ATOM     17  C   UNL     1      -2.307  -3.521   1.431  0.00  0.00    +0.034 C 
BRANCH  16  21
ATOM     18  C   UNL     1      -0.018   1.503   0.010  0.00  0.00    +0.073 C 
ATOM     19  C   UNL     1       0.002  -0.004   0.002  0.00  0.00    +0.076 A 
ATOM     20  N   UNL     1      -1.013  -0.832   0.002  0.00  0.00    -0.247 NA
ATOM     21  C   UNL     1      -0.834  -2.137  -0.006  0.00  0.00    +0.069 A 
ATOM     22  C   UNL     1       0.449  -2.582  -0.014  0.00  0.00    +0.072 A 
ATOM     23  S   UNL     1       1.335  -1.032  -0.017  0.00  0.00    -0.080 S 
ENDBRANCH  16  21
ENDBRANCH  14  16
ENDBRANCH   1  14
TORSDOF 4
