REMARK  Name = ZINC20792529
REMARK  3 active torsions:
REMARK  status: ('A' for Active; 'I' for Inactive)
REMARK    1  A    between atoms: C_6  and  N_7
REMARK    2  A    between atoms: C_11  and  N_12
REMARK    3  A    between atoms: N_12  and  C_13
REMARK                            x       y       z     vdW  Elec       q    Type
REMARK                         _______ _______ _______ _____ _____    ______ ____
ROOT
ATOM      1  N   UNL     1      -1.205  -0.720  -0.004  0.00  0.00    -0.190 N 
ATOM      2  C   UNL     1      -1.171  -2.064  -0.122  0.00  0.00    +0.265 C 
ATOM      3  O   UNL     1      -0.115  -2.651  -0.265  0.00  0.00    -0.269 OA
ATOM      4  C   UNL     1      -2.446  -2.800  -0.073  0.00  0.00    +0.113 C 
ATOM      5  C   UNL     1      -2.489  -4.178  -0.186  0.00  0.00    +0.086 C 
ATOM      6  C   UNL     1      -3.674  -2.005   0.103  0.00  0.00    +0.258 C 
ATOM      7  O   UNL     1      -4.765  -2.542   0.154  0.00  0.00    -0.270 OA
ATOM      8  N   UNL     1      -3.557  -0.665   0.207  0.00  0.00    -0.235 N 
ATOM      9  C   UNL     1      -2.361  -0.061   0.160  0.00  0.00    +0.320 C 
ATOM     10  O   UNL     1      -2.323   1.149   0.265  0.00  0.00    -0.251 OA
ATOM     11  H   UNL     1      -4.355  -0.127   0.324  0.00  0.00    +0.159 HD
ENDROOT
BRANCH   1  17
ATOM     12  C   UNL     1       0.475   0.623   1.097  0.00  0.00    +0.025 A 
ATOM     13  C   UNL     1       1.658   1.334   1.052  0.00  0.00    +0.022 A 
ATOM     14  C   UNL     1       2.366   1.427  -0.134  0.00  0.00    +0.041 A 
ATOM     15  C   UNL     1       1.889   0.809  -1.277  0.00  0.00    +0.022 A 
ATOM     16  C   UNL     1       0.706   0.098  -1.236  0.00  0.00    +0.025 A 
ATOM     17  C   UNL     1      -0.005   0.002  -0.048  0.00  0.00    +0.046 A 
ATOM     18 CL   UNL     1       3.853   2.321  -0.188  0.00  0.00    -0.084 Cl
ENDBRANCH   1  17
BRANCH   5  19
ATOM     19  N   UNL     1      -3.676  -4.810  -0.275  0.00  0.00    -0.343 N 
ATOM     20  H   UNL     1      -4.496  -4.296  -0.339  0.00  0.00    +0.146 HD
BRANCH  19  21
ATOM     21  C   UNL     1      -3.728  -6.274  -0.273  0.00  0.00    +0.032 C 
ATOM     22  C   UNL     1      -2.932  -6.814  -1.463  0.00  0.00    +0.029 C 
ATOM     23  C   UNL     1      -2.986  -8.343  -1.461  0.00  0.00    -0.008 C 
ATOM     24  C   UNL     1      -4.441  -8.802  -1.571  0.00  0.00    +0.007 C 
ATOM     25  C   UNL     1      -5.237  -8.262  -0.381  0.00  0.00    -0.008 C 
ATOM     26  C   UNL     1      -5.183  -6.733  -0.383  0.00  0.00    +0.029 C 
ATOM     27  C   UNL     1      -4.632  -8.793   0.920  0.00  0.00    +0.007 C 
ATOM     28  C   UNL     1      -3.177  -8.334   1.030  0.00  0.00    -0.008 C 
ATOM     29  C   UNL     1      -2.381  -8.873  -0.160  0.00  0.00    +0.007 C 
ATOM     30  C   UNL     1      -3.123  -6.804   1.028  0.00  0.00    +0.029 C 
ENDBRANCH  19  21
ENDBRANCH   5  19
TORSDOF 3
