REMARK  Name = ZINC29554064
REMARK  4 active torsions:
REMARK  status: ('A' for Active; 'I' for Inactive)
REMARK    1  A    between atoms: C_3  and  S_17
REMARK    2  A    between atoms: C_6  and  C_7
REMARK    3  A    between atoms: S_17  and  O_20
REMARK    4  A    between atoms: O_20  and  C_21
REMARK                            x       y       z     vdW  Elec       q    Type
REMARK                         _______ _______ _______ _____ _____    ______ ____
ROOT
ATOM      1  C   UNL     1      -0.554   5.654   1.362  0.00  0.00    +0.008 A 
ATOM      2  C   UNL     1       0.327   6.195   2.286  0.00  0.00    +0.048 A 
ATOM      3  C   UNL     1       1.328   5.399   2.809  0.00  0.00    +0.184 A 
ATOM      4  N   UNL     1       1.450   4.139   2.439  0.00  0.00    -0.345 N 
ATOM      5  C   UNL     1       0.626   3.589   1.568  0.00  0.00    +0.088 A 
ATOM      6  C   UNL     1      -0.395   4.325   0.999  0.00  0.00    -0.030 A 
ATOM      7  H   UNL     1       2.254   3.518   2.860  0.00  0.00    +0.167 HD
ENDROOT
BRANCH   6   8
ATOM      8  C   UNL     1      -1.328   3.691  -0.001  0.00  0.00    +0.005 C 
ATOM      9  C   UNL     1      -2.692   4.422  -0.019  0.00  0.00    -0.009 C 
ATOM     10  C   UNL     1      -2.798   4.959  -1.478  0.00  0.00    -0.071 C 
ATOM     11  C   UNL     1      -1.762   6.120  -1.558  0.00  0.00    -0.017 C 
ATOM     12  C   UNL     1      -0.395   5.392  -1.538  0.00  0.00    -0.017 C 
ATOM     13  C   UNL     1      -0.791   3.884  -1.451  0.00  0.00    -0.064 C 
ATOM     14  N   UNL     1      -2.077   3.876  -2.237  0.00  0.00    +0.383 N 
ATOM     15  H   UNL     1      -2.651   2.940  -2.174  0.00  0.00    -0.085 HD
ATOM     16  H   UNL     1      -1.975   4.173  -3.291  0.00  0.00    -0.085 HD
ENDBRANCH   6   8
BRANCH   3  17
ATOM     17  S   UNL     1       2.454   6.075   3.983  0.00  0.00    +0.134 S 
ATOM     18  O   UNL     1       3.607   6.477   3.255  0.00  0.00    -0.140 OA
ATOM     19  O   UNL     1       1.708   6.978   4.788  0.00  0.00    -0.140 OA
BRANCH  17  20
ATOM     20  O   UNL     1       2.891   4.937   4.895  0.00  0.00    -0.132 OA
BRANCH  20  21
ATOM     21  C   UNL     1       3.822   4.036   4.294  0.00  0.00    +0.546 C 
ATOM     22  F   UNL     1       4.976   4.735   3.925  0.00  0.00    -0.143 F 
ATOM     23  F   UNL     1       4.157   3.033   5.210  0.00  0.00    -0.143 F 
ATOM     24  F   UNL     1       3.245   3.457   3.159  0.00  0.00    -0.143 F 
ENDBRANCH  20  21
ENDBRANCH  17  20
ENDBRANCH   3  17
TORSDOF 4
