REMARK  Name = ZINC53647964
REMARK  5 active torsions:
REMARK  status: ('A' for Active; 'I' for Inactive)
REMARK    1  A    between atoms: C_1  and  C_2
REMARK    2  A    between atoms: C_5  and  C_19
REMARK    3  A    between atoms: C_6  and  N_8
REMARK    4  A    between atoms: C_10  and  C_13
REMARK    5  A    between atoms: C_13  and  C_15
REMARK                            x       y       z     vdW  Elec       q    Type
REMARK                         _______ _______ _______ _____ _____    ______ ____
ROOT
ATOM      1  N   UNL     1       0.485  -2.853   2.317  0.00  0.00    -0.219 N 
ATOM      2  C   UNL     1      -0.146  -2.703   3.501  0.00  0.00    +0.148 A 
ATOM      3  C   UNL     1       0.401  -3.634   4.360  0.00  0.00    +0.157 A 
ATOM      4  N   UNL     1       1.343  -4.323   3.689  0.00  0.00    -0.126 NA
ATOM      5  N   UNL     1       1.414  -3.890   2.478  0.00  0.00    -0.060 NA
ENDROOT
BRANCH   1  11
ATOM      6  C   UNL     1      -0.140   1.496   0.106  0.00  0.00    +0.044 C 
ATOM      7  C   UNL     1      -0.056  -0.007   0.048  0.00  0.00    -0.048 A 
ATOM      8  C   UNL     1      -0.208  -0.661  -1.161  0.00  0.00    +0.004 A 
ATOM      9  C   UNL     1      -0.132  -2.041  -1.218  0.00  0.00    +0.006 A 
ATOM     10  C   UNL     1       0.098  -2.769  -0.068  0.00  0.00    -0.025 A 
ATOM     11  C   UNL     1       0.252  -2.116   1.147  0.00  0.00    +0.070 A 
ATOM     12  C   UNL     1       0.179  -0.730   1.201  0.00  0.00    +0.031 A 
ATOM     13  C   UNL     1       0.181  -4.273  -0.131  0.00  0.00    +0.046 C 
ENDBRANCH   1  11
BRANCH   3  14
ATOM     14  C   UNL     1       0.022  -3.838   5.763  0.00  0.00    +0.287 C 
ATOM     15  O   UNL     1      -0.846  -3.152   6.263  0.00  0.00    -0.281 OA
BRANCH  14  16
ATOM     16  C   UNL     1       0.710  -4.898   6.583  0.00  0.00    +0.457 C 
ATOM     17  F   UNL     1      -0.235  -5.825   7.035  0.00  0.00    -0.163 F 
ATOM     18  F   UNL     1       1.664  -5.551   5.795  0.00  0.00    -0.163 F 
ATOM     19  F   UNL     1       1.340  -4.303   7.681  0.00  0.00    -0.163 F 
ENDBRANCH  14  16
ENDBRANCH   3  14
TORSDOF 3
