REMARK  Name = ZINC19594729
REMARK  5 active torsions:
REMARK  status: ('A' for Active; 'I' for Inactive)
REMARK    1  A    between atoms: C_3  and  C_8
REMARK    2  A    between atoms: C_17  and  C_25
REMARK    3  A    between atoms: C_18  and  N_24
REMARK    4  A    between atoms: C_19  and  C_20
REMARK    5  A    between atoms: C_19  and  C_22
REMARK                            x       y       z     vdW  Elec       q    Type
REMARK                         _______ _______ _______ _____ _____    ______ ____
ROOT
ATOM      1  C   UNL     1      -0.775   1.541  -1.238  0.00  0.00    +0.066 C 
ATOM      2  C   UNL     1       0.146   1.519  -0.017  0.00  0.00    +0.030 C 
ATOM      3  C   UNL     1       1.399   2.332  -0.241  0.00  0.00    +0.009 C 
ATOM      4  C   UNL     1       1.297   3.721   0.386  0.00  0.00    +0.005 C 
ATOM      5  C   UNL     1       1.052   3.555   1.891  0.00  0.00    +0.027 C 
ATOM      6  C   UNL     1      -0.252   2.821   2.067  0.00  0.00    -0.022 C 
ATOM      7  C   UNL     1      -0.666   1.942   1.171  0.00  0.00    -0.029 C 
ATOM      8  C   UNL     1      -2.018   1.339   1.310  0.00  0.00    +0.074 C 
ATOM      9  C   UNL     1      -2.569   0.691   0.254  0.00  0.00    +0.054 C 
ATOM     10  C   UNL     1      -1.879   0.522  -1.066  0.00  0.00    +0.188 C 
ENDROOT
BRANCH   1  13
ATOM     11  C   UNL     1       0.556   1.570  -4.771  0.00  0.00    +0.003 A 
ATOM     12  C   UNL     1      -0.171   1.895  -3.640  0.00  0.00    +0.004 A 
ATOM     13  C   UNL     1       0.013   1.181  -2.471  0.00  0.00    -0.038 A 
ATOM     14  C   UNL     1       0.915   0.135  -2.434  0.00  0.00    +0.042 A 
ATOM     15  C   UNL     1       1.639  -0.195  -3.567  0.00  0.00    +0.124 A 
ATOM     16  C   UNL     1       1.458   0.524  -4.736  0.00  0.00    +0.038 A 
ATOM     17  F   UNL     1       2.520  -1.219  -3.532  0.00  0.00    -0.205 F 
ENDBRANCH   1  13
BRANCH   9  18
ATOM     18  N   UNL     1      -3.822   0.165   0.400  0.00  0.00    -0.358 N 
ATOM     19  H   UNL     1      -4.297  -0.366  -0.438  0.00  0.00    +0.142 HD
ATOM     20  H   UNL     1      -4.356   0.273   1.356  0.00  0.00    +0.142 HD
ENDBRANCH   9  18
BRANCH  10  21
ATOM     21  C   UNL     1      -1.310  -0.834  -1.140  0.00  0.00    +0.091 C 
ATOM     22  N   UNL     1      -0.870  -1.880  -1.196  0.00  0.00    -0.194 NA
ENDBRANCH  10  21
BRANCH  10  23
ATOM     23  C   UNL     1      -2.863   0.689  -2.148  0.00  0.00    +0.091 C 
ATOM     24  N   UNL     1      -3.622   0.818  -2.983  0.00  0.00    -0.194 NA
ENDBRANCH  10  23
BRANCH   8  25
ATOM     25  C   UNL     1      -2.731   1.441   2.548  0.00  0.00    +0.101 C 
ATOM     26  N   UNL     1      -3.297   1.522   3.530  0.00  0.00    -0.191 NA
ENDBRANCH   8  25
TORSDOF 5
