REMARK  Name = ZINC40010754
REMARK  7 active torsions:
REMARK  status: ('A' for Active; 'I' for Inactive)
REMARK    1  A    between atoms: C_1  and  C_2
REMARK    2  A    between atoms: C_9  and  C_14
REMARK    3  A    between atoms: C_18  and  O_35
REMARK    4  A    between atoms: C_19  and  O_33
REMARK    5  A    between atoms: C_25  and  C_27
REMARK    6  A    between atoms: O_33  and  C_34
REMARK    7  A    between atoms: O_35  and  C_36
REMARK                            x       y       z     vdW  Elec       q    Type
REMARK                         _______ _______ _______ _____ _____    ______ ____
ROOT
ATOM      1  C   UNL     1       0.946  -4.929   2.500  0.00  0.00    +0.122 C 
ATOM      2  C   UNL     1       0.303  -4.385   3.752  0.00  0.00    -0.019 A 
ATOM      3  C   UNL     1       0.417  -3.022   3.995  0.00  0.00    +0.055 A 
ATOM      4  C   UNL     1      -0.158  -2.459   5.120  0.00  0.00    +0.162 A 
ATOM      5  C   UNL     1      -0.857  -3.268   6.011  0.00  0.00    +0.162 A 
ATOM      6  C   UNL     1      -0.965  -4.623   5.766  0.00  0.00    +0.053 A 
ATOM      7  C   UNL     1      -0.380  -5.187   4.638  0.00  0.00    -0.037 A 
ATOM      8  C   UNL     1      -0.517  -6.676   4.453  0.00  0.00    +0.054 C 
ATOM      9  C   UNL     1      -0.269  -7.069   2.998  0.00  0.00    +0.113 C 
ATOM     10  N   UNL     1       0.960  -6.395   2.550  0.00  0.00    -0.293 N 
ATOM     11  C   UNL     1       2.055  -7.098   2.200  0.00  0.00    +0.219 C 
ATOM     12  O   UNL     1       3.024  -6.525   1.747  0.00  0.00    -0.275 OA
ENDROOT
BRANCH   1  21
ATOM     13  C   UNL     1       0.763   1.429  -0.748  0.00  0.00    +0.044 C 
ATOM     14  C   UNL     1       0.866  -0.075  -0.737  0.00  0.00    -0.050 A 
ATOM     15  C   UNL     1       1.466  -0.726  -1.815  0.00  0.00    +0.005 A 
ATOM     16  C   UNL     1       1.595  -2.077  -1.876  0.00  0.00    +0.024 A 
ATOM     17  C   UNL     1       1.117  -2.888  -0.830  0.00  0.00    +0.040 A 
ATOM     18  N   UNL     1       1.250  -4.212  -0.900  0.00  0.00    -0.284 N 
ATOM     19  C   UNL     1       0.823  -5.032   0.046  0.00  0.00    +0.226 C 
ATOM     20  O   UNL     1       0.972  -6.233  -0.073  0.00  0.00    -0.275 OA
ATOM     21  C   UNL     1       0.149  -4.469   1.278  0.00  0.00    +0.123 C 
ATOM     22  C   UNL     1      -0.004  -2.963   1.362  0.00  0.00    -0.003 C 
ATOM     23  C   UNL     1       0.478  -2.227   0.321  0.00  0.00    -0.007 A 
ATOM     24  C   UNL     1       0.376  -0.767   0.324  0.00  0.00    +0.012 A 
ATOM     25  H   UNL     1       1.679  -4.593  -1.682  0.00  0.00    +0.155 HD
ENDBRANCH   1  21
BRANCH  11  26
ATOM     26  C   UNL     1       2.076  -8.595   2.370  0.00  0.00    +0.075 C 
ATOM     27  C   UNL     1       2.434  -8.938   3.817  0.00  0.00    +0.013 C 
ATOM     28  C   UNL     1       2.456 -10.458   3.990  0.00  0.00    +0.001 C 
ATOM     29  C   UNL     1       3.499 -11.064   3.049  0.00  0.00    +0.000 C 
ATOM     30  C   UNL     1       3.141 -10.721   1.602  0.00  0.00    +0.001 C 
ATOM     31  C   UNL     1       3.119  -9.201   1.429  0.00  0.00    +0.013 C 
ENDBRANCH  11  26
BRANCH   5  32
ATOM     32  O   UNL     1      -1.432  -2.726   7.118  0.00  0.00    -0.491 OA
ATOM     33  C   UNL     1      -2.134  -3.617   7.987  0.00  0.00    +0.277 C 
ENDBRANCH   5  32
BRANCH   4  34
ATOM     34  O   UNL     1      -0.041  -1.125   5.353  0.00  0.00    -0.491 OA
ATOM     35  C   UNL     1       0.692  -0.360   4.394  0.00  0.00    +0.277 C 
ENDBRANCH   4  34
TORSDOF 4
