REMARK  Name = ZINC20650462
REMARK  7 active torsions:
REMARK  status: ('A' for Active; 'I' for Inactive)
REMARK    1  A    between atoms: C_1  and  C_2
REMARK    2  A    between atoms: C_2  and  C_29
REMARK    3  A    between atoms: C_6  and  N_21
REMARK    4  A    between atoms: C_8  and  S_12
REMARK    5  A    between atoms: C_9  and  C_10
REMARK    6  A    between atoms: S_12  and  C_13
REMARK    7  A    between atoms: C_13  and  C_14
REMARK                            x       y       z     vdW  Elec       q    Type
REMARK                         _______ _______ _______ _____ _____    ______ ____
ROOT
ATOM      1  C   UNL     1      -8.593  -4.057  -3.921  0.00  0.00    +0.041 C 
ATOM      2  C   UNL     1      -7.486  -4.038  -2.865  0.00  0.00    +0.068 C 
ATOM      3  C   UNL     1      -6.334  -3.150  -3.343  0.00  0.00    +0.071 C 
ATOM      4  C   UNL     1      -5.380  -2.902  -2.207  0.00  0.00    -0.016 A 
ATOM      5  C   UNL     1      -5.738  -3.132  -0.900  0.00  0.00    +0.023 A 
ATOM      6  C   UNL     1      -4.814  -2.877   0.116  0.00  0.00    +0.128 A 
ATOM      7  N   UNL     1      -3.599  -2.428  -0.161  0.00  0.00    -0.224 NA
ATOM      8  C   UNL     1      -3.211  -2.189  -1.404  0.00  0.00    +0.117 A 
ATOM      9  C   UNL     1      -4.090  -2.420  -2.478  0.00  0.00    +0.087 A 
ATOM     10  C   UNL     1      -7.103  -3.654  -0.540  0.00  0.00    +0.199 C 
ATOM     11  O   UNL     1      -7.997  -3.498  -1.641  0.00  0.00    -0.369 OA
ATOM     12  C   UNL     1      -6.974  -5.459  -2.626  0.00  0.00    +0.041 C 
ENDROOT
BRANCH   6  13
ATOM     13  N   UNL     1      -5.172  -3.103   1.435  0.00  0.00    -0.318 N 
ATOM     14  C   UNL     1      -4.783  -4.455   1.861  0.00  0.00    +0.087 C 
ATOM     15  C   UNL     1      -5.266  -4.693   3.294  0.00  0.00    -0.063 C 
ATOM     16  N   UNL     1      -4.682  -3.676   4.180  0.00  0.00    +0.381 N 
ATOM     17  C   UNL     1      -5.071  -2.325   3.754  0.00  0.00    -0.063 C 
ATOM     18  C   UNL     1      -4.588  -2.087   2.321  0.00  0.00    +0.087 C 
ATOM     19  H   UNL     1      -5.037  -3.839   5.208  0.00  0.00    -0.086 HD
ATOM     20  H   UNL     1      -3.585  -3.754   4.155  0.00  0.00    -0.086 HD
ENDBRANCH   6  13
BRANCH   9  21
ATOM     21  C   UNL     1      -3.676  -2.168  -3.825  0.00  0.00    +0.102 C 
ATOM     22  N   UNL     1      -3.347  -1.968  -4.894  0.00  0.00    -0.191 NA
ENDBRANCH   9  21
BRANCH   8  23
ATOM     23  S   UNL     1      -1.585  -1.588  -1.716  0.00  0.00    -0.100 S 
BRANCH  23  24
ATOM     24  C   UNL     1      -0.955  -1.493  -0.022  0.00  0.00    +0.112 C 
BRANCH  24  25
ATOM     25  C   UNL     1       0.465  -0.987  -0.041  0.00  0.00    -0.019 A 
ATOM     26  C   UNL     1       1.516  -1.880  -0.136  0.00  0.00    +0.006 A 
ATOM     27  C   UNL     1       2.817  -1.416  -0.154  0.00  0.00    +0.000 A 
ATOM     28  C   UNL     1       3.070  -0.059  -0.078  0.00  0.00    +0.001 A 
ATOM     29  C   UNL     1       2.020   0.835   0.017  0.00  0.00    +0.020 A 
ATOM     30  C   UNL     1       0.716   0.371   0.035  0.00  0.00    +0.045 A 
ATOM     31 CL   UNL     1      -0.603   1.494   0.147  0.00  0.00    -0.083 Cl
ENDBRANCH  24  25
ENDBRANCH  23  24
ENDBRANCH   8  23
TORSDOF 5
