REMARK  Name = ZINC36124400
REMARK  9 active torsions:
REMARK  status: ('A' for Active; 'I' for Inactive)
REMARK    1  A    between atoms: C_6  and  C_7
REMARK    2  A    between atoms: N_9  and  C_10
REMARK    3  A    between atoms: N_9  and  C_18
REMARK    4  A    between atoms: C_10  and  C_11
REMARK    5  A    between atoms: C_11  and  N_12
REMARK    6  A    between atoms: C_18  and  C_19
REMARK    7  A    between atoms: C_22  and  C_24
REMARK    8  A    between atoms: C_24  and  O_25
REMARK    9  A    between atoms: O_25  and  C_26
REMARK                            x       y       z     vdW  Elec       q    Type
REMARK                         _______ _______ _______ _____ _____    ______ ____
ROOT
ATOM      1  C   UNL     1      -1.293  -0.743   0.084  0.00  0.00    +0.247 C 
ATOM      2  O   UNL     1      -0.266  -0.106  -0.053  0.00  0.00    -0.270 OA
ATOM      3  N   UNL     1      -1.255  -2.090   0.094  0.00  0.00    -0.293 N 
ENDROOT
BRANCH   1   9
ATOM      4  C   UNL     1      -3.703  -0.462  -0.479  0.00  0.00    +0.016 A 
ATOM      5  C   UNL     1      -4.904   0.198  -0.329  0.00  0.00    +0.039 A 
ATOM      6  C   UNL     1      -5.001   1.280   0.533  0.00  0.00    +0.123 A 
ATOM      7  C   UNL     1      -3.892   1.704   1.248  0.00  0.00    +0.039 A 
ATOM      8  C   UNL     1      -2.686   1.051   1.107  0.00  0.00    +0.016 A 
ATOM      9  C   UNL     1      -2.583  -0.039   0.240  0.00  0.00    +0.037 A 
ATOM     10  F   UNL     1      -6.180   1.923   0.675  0.00  0.00    -0.205 F 
ENDBRANCH   1   9
BRANCH   3  11
ATOM     11  C   UNL     1      -2.502  -2.858   0.118  0.00  0.00    +0.090 C 
BRANCH  11  12
ATOM     12  C   UNL     1      -2.841  -3.323  -1.300  0.00  0.00    -0.060 C 
BRANCH  12  13
ATOM     13  N   UNL     1      -4.161  -3.969  -1.301  0.00  0.00    +0.381 N 
ATOM     14  C   UNL     1      -4.107  -5.188  -0.486  0.00  0.00    -0.079 C 
ATOM     15  C   UNL     1      -5.499  -5.821  -0.417  0.00  0.00    -0.019 C 
ATOM     16  C   UNL     1      -5.965  -6.172  -1.833  0.00  0.00    -0.004 C 
ATOM     17  C   UNL     1      -5.945  -4.906  -2.694  0.00  0.00    -0.019 C 
ATOM     18  C   UNL     1      -4.537  -4.307  -2.679  0.00  0.00    -0.079 C 
ATOM     19  H   UNL     1      -4.844  -3.336  -0.912  0.00  0.00    -0.082 HD
ENDBRANCH  12  13
ENDBRANCH  11  12
ENDBRANCH   3  11
BRANCH   3  20
ATOM     20  C   UNL     1       0.034  -2.786   0.082  0.00  0.00    +0.163 C 
BRANCH  20  21
ATOM     21  C   UNL     1       0.553  -2.908   1.491  0.00  0.00    +0.066 A 
ATOM     22  C   UNL     1       0.339  -4.026   2.232  0.00  0.00    +0.072 A 
ATOM     23  S   UNL     1       1.166  -3.578   3.750  0.00  0.00    -0.077 S 
ATOM     24  C   UNL     1       1.685  -2.045   3.286  0.00  0.00    +0.116 A 
ATOM     25  N   UNL     1       1.240  -1.937   2.059  0.00  0.00    -0.244 NA
BRANCH  24  26
ATOM     26  C   UNL     1       2.475  -1.043   4.087  0.00  0.00    +0.291 C 
BRANCH  26  27
ATOM     27  O   UNL     1       1.579  -0.196   4.809  0.00  0.00    -0.484 OA
BRANCH  27  28
ATOM     28  C   UNL     1       2.134   0.770   5.587  0.00  0.00    +0.141 A 
ATOM     29  C   UNL     1       3.513   0.905   5.649  0.00  0.00    +0.067 A 
ATOM     30  C   UNL     1       4.075   1.889   6.441  0.00  0.00    +0.045 A 
ATOM     31  C   UNL     1       3.263   2.740   7.171  0.00  0.00    +0.021 A 
ATOM     32  C   UNL     1       1.888   2.607   7.110  0.00  0.00    +0.025 A 
ATOM     33  C   UNL     1       1.321   1.628   6.316  0.00  0.00    +0.083 A 
ATOM     34 CL   UNL     1      -0.405   1.467   6.235  0.00  0.00    -0.080 Cl
ATOM     35 CL   UNL     1       5.801   2.058   6.520  0.00  0.00    -0.083 Cl
ENDBRANCH  27  28
ENDBRANCH  26  27
ENDBRANCH  24  26
ENDBRANCH  20  21
ENDBRANCH   3  20
TORSDOF 9
