REMARK  Name = ZINC08413590
REMARK  3 active torsions:
REMARK  status: ('A' for Active; 'I' for Inactive)
REMARK    1  A    between atoms: C_1  and  C_2
REMARK    2  A    between atoms: C_9  and  C_25
REMARK    3  A    between atoms: C_29  and  O_31
REMARK                            x       y       z     vdW  Elec       q    Type
REMARK                         _______ _______ _______ _____ _____    ______ ____
ROOT
ATOM      1  C   UNL     1       4.545   9.167   0.022  0.00  0.00    +0.045 C 
ATOM      2  C   UNL     1       4.046   7.745   0.014  0.00  0.00    -0.032 A 
ATOM      3  C   UNL     1       4.940   6.689  -0.107  0.00  0.00    +0.008 A 
ATOM      4  C   UNL     1       4.441   5.399  -0.112  0.00  0.00    +0.044 A 
ATOM      5  C   UNL     1       3.068   5.204   0.005  0.00  0.00    +0.129 A 
ATOM      6  N   UNL     1       2.248   6.237   0.113  0.00  0.00    -0.240 NA
ATOM      7  C   UNL     1       2.696   7.478   0.126  0.00  0.00    +0.116 A 
ATOM      8  N   UNL     1       2.552   3.911   0.002  0.00  0.00    -0.238 N 
ATOM      9  C   UNL     1       3.335   2.669  -0.013  0.00  0.00    +0.151 C 
ATOM     10  C   UNL     1       2.331   1.546  -0.011  0.00  0.00    +0.072 A 
ATOM     11  C   UNL     1       2.472   0.087  -0.020  0.00  0.00    +0.199 A 
ATOM     12  O   UNL     1       3.566  -0.449  -0.034  0.00  0.00    -0.287 OA
ATOM     13  C   UNL     1       1.223  -0.700  -0.013  0.00  0.00    +0.067 A 
ATOM     14  C   UNL     1       1.243  -2.093  -0.022  0.00  0.00    +0.053 A 
ATOM     15  C   UNL     1       0.052  -2.790  -0.015  0.00  0.00    +0.124 A 
ATOM     16  C   UNL     1      -1.157  -2.104  -0.000  0.00  0.00    +0.042 A 
ATOM     17  C   UNL     1      -1.187  -0.727   0.009  0.00  0.00    +0.050 A 
ATOM     18  C   UNL     1       0.002  -0.004   0.002  0.00  0.00    +0.140 A 
ATOM     19  O   UNL     1      -0.016   1.341   0.009  0.00  0.00    -0.450 OA
ATOM     20  C   UNL     1       1.095   2.104   0.003  0.00  0.00    +0.199 A 
ATOM     21  C   UNL     1       1.249   3.579   0.011  0.00  0.00    +0.288 C 
ATOM     22  O   UNL     1       0.331   4.374   0.024  0.00  0.00    -0.266 OA
ATOM     23  F   UNL     1       0.061  -4.141  -0.024  0.00  0.00    -0.205 F 
ENDROOT
BRANCH   9  24
ATOM     24  C   UNL     1       4.205   2.589   1.214  0.00  0.00    -0.019 A 
ATOM     25  C   UNL     1       3.738   3.067   2.425  0.00  0.00    +0.006 A 
ATOM     26  C   UNL     1       4.534   2.994   3.553  0.00  0.00    +0.004 A 
ATOM     27  C   UNL     1       5.799   2.445   3.473  0.00  0.00    +0.045 A 
ATOM     28  C   UNL     1       6.270   1.966   2.260  0.00  0.00    +0.117 A 
ATOM     29  C   UNL     1       5.467   2.034   1.131  0.00  0.00    +0.051 A 
BRANCH  28  30
ATOM     30  O   UNL     1       7.514   1.425   2.179  0.00  0.00    -0.507 OA
ATOM     31  H   UNL     1       7.540   0.472   2.340  0.00  0.00    +0.292 HD
ENDBRANCH  28  30
ENDBRANCH   9  24
TORSDOF 2
