REMARK  Name = ZINC20697011
REMARK  9 active torsions:
REMARK  status: ('A' for Active; 'I' for Inactive)
REMARK    1  A    between atoms: C_1  and  C_2
REMARK    2  A    between atoms: C_2  and  N_3
REMARK    3  A    between atoms: N_3  and  C_4
REMARK    4  A    between atoms: N_3  and  C_6
REMARK    5  A    between atoms: C_4  and  C_5
REMARK    6  A    between atoms: C_9  and  C_12
REMARK    7  A    between atoms: C_23  and  S_28
REMARK    8  A    between atoms: S_28  and  N_31
REMARK    9  A    between atoms: N_34  and  C_37
REMARK                            x       y       z     vdW  Elec       q    Type
REMARK                         _______ _______ _______ _____ _____    ______ ____
ROOT
ATOM      1  C   UNL     1       2.032   1.570   1.345  0.00  0.00    +0.105 C 
ATOM      2  C   UNL     1       1.457   1.975  -0.001  0.00  0.00    +0.029 C 
ATOM      3  C   UNL     1       1.161   3.466  -0.214  0.00  0.00    +0.033 C 
ATOM      4  C   UNL     1      -0.002   3.410  -1.206  0.00  0.00    -0.030 C 
ATOM      5  C   UNL     1      -0.653   2.260  -1.078  0.00  0.00    -0.023 C 
ATOM      6  C   UNL     1      -0.018   1.474   0.010  0.00  0.00    +0.049 C 
ATOM      7  C   UNL     1       0.002  -0.004   0.002  0.00  0.00    -0.018 A 
ATOM      8  C   UNL     1      -0.948  -0.754  -0.656  0.00  0.00    +0.034 A 
ATOM      9  C   UNL     1      -0.894  -2.135  -0.622  0.00  0.00    +0.106 A 
ATOM     10  C   UNL     1       0.117  -2.770   0.076  0.00  0.00    +0.030 A 
ATOM     11  C   UNL     1       1.076  -2.029   0.734  0.00  0.00    +0.025 A 
ATOM     12  C   UNL     1       1.035  -0.640   0.700  0.00  0.00    +0.031 A 
ATOM     13  N   UNL     1       2.039   0.091   1.347  0.00  0.00    -0.336 N 
ATOM     14  H   UNL     1       2.843  -0.455   1.863  0.00  0.00    +0.147 HD
ENDROOT
BRANCH   1  18
ATOM     15  C   UNL     1       6.015   3.065   1.759  0.00  0.00    +0.030 A 
ATOM     16  C   UNL     1       4.966   3.685   2.425  0.00  0.00    +0.023 A 
ATOM     17  C   UNL     1       3.680   3.199   2.289  0.00  0.00    +0.007 A 
ATOM     18  C   UNL     1       3.437   2.097   1.491  0.00  0.00    -0.027 A 
ATOM     19  C   UNL     1       4.479   1.474   0.830  0.00  0.00    +0.007 A 
ATOM     20  C   UNL     1       5.767   1.958   0.957  0.00  0.00    +0.023 A 
BRANCH  15  21
ATOM     21  N   UNL     1       7.316   3.553   1.894  0.00  0.00    -0.330 N 
BRANCH  21  23
ATOM     22  C   UNL     1       8.599   3.538  -0.188  0.00  0.00    +0.024 C 
ATOM     23  C   UNL     1       8.422   2.898   1.190  0.00  0.00    +0.102 C 
ENDBRANCH  21  23
BRANCH  21  24
ATOM     24  C   UNL     1       7.577   4.721   2.740  0.00  0.00    +0.102 C 
ATOM     25  C   UNL     1       7.875   4.259   4.168  0.00  0.00    +0.024 C 
ENDBRANCH  21  24
ENDBRANCH  15  21
ENDBRANCH   1  18
BRANCH   9  26
ATOM     26  S   UNL     1      -2.113  -3.086  -1.467  0.00  0.00    +0.061 S 
ATOM     27  O   UNL     1      -2.154  -4.355  -0.828  0.00  0.00    -0.153 OA
ATOM     28  O   UNL     1      -3.261  -2.258  -1.589  0.00  0.00    -0.153 OA
BRANCH  26  29
ATOM     29  N   UNL     1      -1.552  -3.347  -3.003  0.00  0.00    -0.180 NA
ATOM     30  C   UNL     1      -1.863  -2.407  -4.090  0.00  0.00    +0.091 C 
ATOM     31  C   UNL     1      -0.548  -2.024  -4.787  0.00  0.00    -0.062 C 
ATOM     32  N   UNL     1       0.153  -3.246  -5.205  0.00  0.00    +0.380 N 
ATOM     33  C   UNL     1       0.531  -4.066  -4.046  0.00  0.00    -0.062 C 
ATOM     34  C   UNL     1      -0.735  -4.529  -3.318  0.00  0.00    +0.091 C 
ATOM     35  C   UNL     1       1.326  -2.925  -6.028  0.00  0.00    -0.096 C 
ATOM     36  H   UNL     1      -0.542  -3.836  -5.820  0.00  0.00    -0.082 HD
ENDBRANCH  26  29
ENDBRANCH   9  26
TORSDOF 6
