REMARK  Name = ZINC11963114
REMARK  11 active torsions:
REMARK  status: ('A' for Active; 'I' for Inactive)
REMARK    1  A    between atoms: C_1  and  C_2
REMARK    2  A    between atoms: C_4  and  C_11
REMARK    3  A    between atoms: C_5  and  C_10
REMARK    4  A    between atoms: C_7  and  O_8
REMARK    5  A    between atoms: O_8  and  C_9
REMARK    6  A    between atoms: C_11  and  N_65
REMARK    7  A    between atoms: C_15  and  C_25
REMARK    8  A    between atoms: C_16  and  O_23
REMARK    9  A    between atoms: O_23  and  C_24
REMARK   10  A    between atoms: N_27  and  C_28
REMARK   11  A    between atoms: C_28  and  C_29
REMARK                            x       y       z     vdW  Elec       q    Type
REMARK                         _______ _______ _______ _____ _____    ______ ____
ROOT
ATOM      1  C   UNL     1       0.585   0.286  -2.126  0.00  0.00    -0.072 C 
ATOM      2  C   UNL     1       2.033   0.432  -1.662  0.00  0.00    +0.036 C 
ATOM      3  C   UNL     1       2.206   1.629  -0.759  0.00  0.00    +0.036 A 
ATOM      4  C   UNL     1       3.447   2.247  -0.774  0.00  0.00    +0.098 A 
ATOM      5  C   UNL     1       3.693   3.393   0.102  0.00  0.00    +0.139 A 
ATOM      6  C   UNL     1       2.666   3.802   0.929  0.00  0.00    +0.116 A 
ATOM      7  C   UNL     1       1.446   3.127   0.877  0.00  0.00    +0.255 A 
ATOM      8  O   UNL     1       0.544   3.479   1.621  0.00  0.00    -0.268 OA
ATOM      9  N   UNL     1       1.229   2.094   0.030  0.00  0.00    -0.313 N 
ATOM     10  C   UNL     1      -0.126   1.532   0.020  0.00  0.00    +0.106 C 
ATOM     11  C   UNL     1      -0.094   0.010   0.175  0.00  0.00    -0.056 C 
ATOM     12  N   UNL     1      -0.106  -0.600  -1.168  0.00  0.00    +0.384 N 
ATOM     13  H   UNL     1       0.386  -1.501  -1.130  0.00  0.00    -0.081 HD
ENDROOT
BRANCH   4  14
ATOM     14  C   UNL     1       4.511   1.753  -1.665  0.00  0.00    +0.250 C 
ATOM     15  O   UNL     1       4.746   2.331  -2.710  0.00  0.00    -0.270 OA
ATOM     16  N   UNL     1       5.225   0.662  -1.323  0.00  0.00    -0.307 N 
ATOM     17  H   UNL     1       4.997   0.165  -0.522  0.00  0.00    +0.149 HD
BRANCH  16  18
ATOM     18  C   UNL     1       6.345   0.228  -2.161  0.00  0.00    +0.140 C 
BRANCH  18  19
ATOM     19  C   UNL     1       6.971  -1.006  -1.563  0.00  0.00    -0.023 A 
ATOM     20  C   UNL     1       8.006  -0.897  -0.653  0.00  0.00    +0.013 A 
ATOM     21  C   UNL     1       8.542  -2.027  -0.130  0.00  0.00    +0.045 A 
ATOM     22  S   UNL     1       7.586  -3.299  -0.938  0.00  0.00    -0.105 S 
ATOM     23  C   UNL     1       6.531  -2.239  -1.913  0.00  0.00    +0.050 A 
ENDBRANCH  18  19
ENDBRANCH  16  18
ENDBRANCH   4  14
BRANCH   5  24
ATOM     24  O   UNL     1       4.887   4.029   0.103  0.00  0.00    -0.494 OA
ATOM     25  C   UNL     1       5.031   5.137   0.994  0.00  0.00    +0.277 C 
ENDBRANCH   5  24
BRANCH  12  26
ATOM     26  C   UNL     1      -1.499  -0.832  -1.606  0.00  0.00    -0.043 C 
BRANCH  26  30
ATOM     27  C   UNL     1      -4.455  -2.857   1.887  0.00  0.00    +0.047 C 
ATOM     28  C   UNL     1      -3.450  -3.017   0.775  0.00  0.00    -0.009 A 
ATOM     29  C   UNL     1      -2.957  -1.903   0.123  0.00  0.00    +0.009 A 
ATOM     30  C   UNL     1      -2.035  -2.048  -0.896  0.00  0.00    -0.061 A 
ATOM     31  C   UNL     1      -1.607  -3.309  -1.270  0.00  0.00    -0.046 A 
ATOM     32  C   UNL     1      -2.093  -4.426  -0.618  0.00  0.00    +0.049 A 
ATOM     33  C   UNL     1      -3.019  -4.282   0.406  0.00  0.00    +0.123 A 
ATOM     34  C   UNL     1      -0.607  -3.465  -2.387  0.00  0.00    +0.044 C 
BRANCH  33  35
ATOM     35  O   UNL     1      -3.502  -5.380   1.045  0.00  0.00    -0.495 OA
ATOM     36  C   UNL     1      -3.014  -6.651   0.612  0.00  0.00    +0.277 C 
ENDBRANCH  33  35
ENDBRANCH  26  30
ENDBRANCH  12  26
TORSDOF 7
