REMARK  Name = ZINC09364308
REMARK  3 active torsions:
REMARK  status: ('A' for Active; 'I' for Inactive)
REMARK    1  A    between atoms: C_2  and  C_24
REMARK    2  A    between atoms: C_13  and  C_15
REMARK    3  A    between atoms: C_15  and  N_16
REMARK                            x       y       z     vdW  Elec       q    Type
REMARK                         _______ _______ _______ _____ _____    ______ ____
ROOT
ATOM      1  C   UNL     1      -1.077   4.267   4.636  0.00  0.00    +0.037 A 
ATOM      2  C   UNL     1      -2.436   4.548   4.691  0.00  0.00    +0.072 A 
ATOM      3  C   UNL     1      -3.220   4.317   3.579  0.00  0.00    +0.096 A 
ATOM      4  C   UNL     1      -1.405   3.552   2.376  0.00  0.00    +0.118 A 
ATOM      5  C   UNL     1      -0.556   3.755   3.460  0.00  0.00    +0.079 A 
ATOM      6 CL   UNL     1       1.134   3.378   3.337  0.00  0.00    -0.080 Cl
ATOM      7  N   UNL     1      -0.895   3.043   1.186  0.00  0.00    -0.313 N 
ATOM      8  C   UNL     1      -0.995   1.577   1.155  0.00  0.00    +0.125 C 
ATOM      9  C   UNL     1      -0.267   1.046  -0.084  0.00  0.00    +0.126 C 
ATOM     10  N   UNL     1      -0.794   1.734  -1.272  0.00  0.00    -0.297 N 
ATOM     11  C   UNL     1      -0.849   3.204  -1.257  0.00  0.00    +0.126 C 
ATOM     12  C   UNL     1      -1.558   3.651   0.026  0.00  0.00    +0.125 C 
ATOM     13  C   UNL     1      -1.214   1.037  -2.346  0.00  0.00    +0.233 C 
ATOM     14  O   UNL     1      -1.161  -0.174  -2.341  0.00  0.00    -0.274 OA
ATOM     15  N   UNL     1      -2.742   3.820   2.406  0.00  0.00    -0.348 N 
ATOM     16  H   UNL     1      -3.350   3.658   1.595  0.00  0.00    +0.167 HD
ENDROOT
BRANCH   2  17
ATOM     17  C   UNL     1      -3.048   5.102   5.952  0.00  0.00    +0.419 C 
ATOM     18  F   UNL     1      -4.419   5.300   5.757  0.00  0.00    -0.166 F 
ATOM     19  F   UNL     1      -2.852   4.198   7.001  0.00  0.00    -0.166 F 
ATOM     20  F   UNL     1      -2.441   6.322   6.268  0.00  0.00    -0.166 F 
ENDBRANCH   2  17
BRANCH  13  21
ATOM     21  C   UNL     1      -1.751   1.763  -3.552  0.00  0.00    +0.203 C 
BRANCH  21  22
ATOM     22  N   UNL     1      -2.139   0.789  -4.576  0.00  0.00    -0.293 N 
ATOM     23  C   UNL     1      -3.510   0.254  -4.593  0.00  0.00    +0.108 C 
ATOM     24  C   UNL     1      -3.472  -1.203  -4.127  0.00  0.00    +0.019 C 
ATOM     25  C   UNL     1      -3.190  -2.136  -5.290  0.00  0.00    +0.002 C 
ATOM     26  C   UNL     1      -1.797  -1.984  -5.874  0.00  0.00    +0.009 C 
ATOM     27  C   UNL     1      -1.637  -0.617  -6.544  0.00  0.00    +0.096 C 
ATOM     28  C   UNL     1      -1.249   0.398  -5.489  0.00  0.00    +0.216 C 
ATOM     29  O   UNL     1      -0.125   0.854  -5.472  0.00  0.00    -0.276 OA
ENDBRANCH  21  22
ENDBRANCH  13  21
TORSDOF 3
