REMARK  Name = ZINC00084878
REMARK  5 active torsions:
REMARK  status: ('A' for Active; 'I' for Inactive)
REMARK    1  A    between atoms: C_1  and  C_2
REMARK    2  A    between atoms: C_11  and  S_15
REMARK    3  A    between atoms: S_15  and  C_16
REMARK    4  A    between atoms: C_16  and  C_18
REMARK    5  A    between atoms: C_16  and  C_19
REMARK                            x       y       z     vdW  Elec       q    Type
REMARK                         _______ _______ _______ _____ _____    ______ ____
ROOT
ATOM      1  C   UNL     1      -1.395  -0.538   0.323  0.00  0.00    +0.008 C 
ATOM      2  C   UNL     1       0.002  -0.004   0.002  0.00  0.00    -0.009 C 
ATOM      3  C   UNL     1       0.996  -0.486   1.063  0.00  0.00    +0.008 C 
ATOM      4  C   UNL     1       2.424  -0.169   0.617  0.00  0.00    +0.037 C 
ATOM      5  C   UNL     1       2.514   1.312   0.261  0.00  0.00    -0.025 A 
ATOM      6  C   UNL     1       1.395   2.025  -0.000  0.00  0.00    -0.004 A 
ATOM      7  S   UNL     1       1.961   3.670  -0.358  0.00  0.00    -0.073 S 
ATOM      8  C   UNL     1       3.693   3.402  -0.160  0.00  0.00    +0.113 A 
ATOM      9  C   UNL     1       3.776   2.028   0.182  0.00  0.00    +0.043 A 
ATOM     10  C   UNL     1       5.081   1.500   0.409  0.00  0.00    +0.109 A 
ATOM     11  N   UNL     1       6.087   2.363   0.275  0.00  0.00    -0.229 NA
ATOM     12  C   UNL     1       5.932   3.631  -0.046  0.00  0.00    +0.223 A 
ATOM     13  N   UNL     1       4.746   4.186  -0.272  0.00  0.00    -0.228 NA
ATOM     14  C   UNL     1      -0.019   1.531   0.011  0.00  0.00    +0.046 C 
ENDROOT
BRANCH  10  15
ATOM     15  S   UNL     1       5.346  -0.188   0.840  0.00  0.00    -0.091 S 
BRANCH  15  16
ATOM     16  C   UNL     1       7.150  -0.197   0.979  0.00  0.00    +0.162 C 
ATOM     17  C   UNL     1       7.769   0.084  -0.392  0.00  0.00    +0.031 C 
BRANCH  16  18
ATOM     18  C   UNL     1       7.609  -1.546   1.470  0.00  0.00    +0.369 C 
ATOM     19  O   UNL     1       6.924  -2.523   1.281  0.00  0.00    -0.245 OA
ATOM     20  O   UNL     1       8.780  -1.662   2.117  0.00  0.00    -0.245 OA
ENDBRANCH  16  18
ENDBRANCH  15  16
ENDBRANCH  10  15
TORSDOF 3
