REMARK  Name = ZINC16494045
REMARK  8 active torsions:
REMARK  status: ('A' for Active; 'I' for Inactive)
REMARK    1  A    between atoms: C_1  and  C_2
REMARK    2  A    between atoms: C_5  and  S_8
REMARK    3  A    between atoms: S_8  and  N_11
REMARK    4  A    between atoms: N_11  and  C_12
REMARK    5  A    between atoms: C_12  and  C_13
REMARK    6  A    between atoms: C_13  and  N_58
REMARK    7  A    between atoms: C_21  and  C_24
REMARK    8  A    between atoms: C_24  and  C_25
REMARK                            x       y       z     vdW  Elec       q    Type
REMARK                         _______ _______ _______ _____ _____    ______ ____
ROOT
ATOM      1  C   UNL     1       3.996   1.986  -1.008  0.00  0.00    -0.059 C 
ATOM      2  C   UNL     1       5.272   2.830  -0.961  0.00  0.00    +0.088 C 
ATOM      3  N   UNL     1       6.366   2.029  -0.396  0.00  0.00    -0.312 N 
ATOM      4  C   UNL     1       6.034   1.571   0.961  0.00  0.00    +0.088 C 
ATOM      5  C   UNL     1       4.758   0.727   0.914  0.00  0.00    -0.059 C 
ATOM      6  C   UNL     1       7.555   2.736  -0.403  0.00  0.00    +0.180 A 
ATOM      7  N   UNL     1       8.185   3.306  -1.421  0.00  0.00    -0.208 NA
ATOM      8  C   UNL     1       9.315   3.933  -1.190  0.00  0.00    +0.145 A 
ATOM      9  N   UNL     1       9.794   3.984   0.030  0.00  0.00    -0.192 NA
ATOM     10  S   UNL     1       8.612   3.121   0.918  0.00  0.00    +0.049 S 
ATOM     11  N   UNL     1       3.662   1.552   0.364  0.00  0.00    +0.383 N 
ATOM     12  H   UNL     1       3.539   2.382   0.957  0.00  0.00    -0.082 HD
ENDROOT
BRANCH  11  13
ATOM     13  C   UNL     1       2.402   0.777   0.357  0.00  0.00    -0.062 C 
BRANCH  13  14
ATOM     14  C   UNL     1       1.248   1.716  -0.001  0.00  0.00    +0.087 C 
BRANCH  14  15
ATOM     15  N   UNL     1      -0.011   0.966   0.007  0.00  0.00    -0.192 NA
ATOM     16  H   UNL     1       0.002  -0.004   0.002  0.00  0.00    +0.148 HD
BRANCH  15  17
ATOM     17  S   UNL     1      -1.456   1.774   0.019  0.00  0.00    +0.058 S 
ATOM     18  O   UNL     1      -2.475   0.784  -0.009  0.00  0.00    -0.153 OA
ATOM     19  O   UNL     1      -1.369   2.749   1.049  0.00  0.00    -0.153 OA
BRANCH  17  24
ATOM     20  C   UNL     1      -1.849   4.800  -5.187  0.00  0.00    +0.044 C 
ATOM     21  C   UNL     1      -1.752   4.044  -3.887  0.00  0.00    -0.050 A 
ATOM     22  C   UNL     1      -2.238   2.753  -3.799  0.00  0.00    +0.005 A 
ATOM     23  C   UNL     1      -2.148   2.060  -2.607  0.00  0.00    +0.029 A 
ATOM     24  C   UNL     1      -1.571   2.658  -1.502  0.00  0.00    +0.105 A 
ATOM     25  C   UNL     1      -1.089   3.950  -1.588  0.00  0.00    +0.029 A 
ATOM     26  C   UNL     1      -1.175   4.642  -2.782  0.00  0.00    +0.005 A 
ENDBRANCH  17  24
ENDBRANCH  15  17
ENDBRANCH  14  15
ENDBRANCH  13  14
ENDBRANCH  11  13
BRANCH   8  27
ATOM     27  C   UNL     1      10.059   4.592  -2.322  0.00  0.00    +0.112 C 
BRANCH  27  28
ATOM     28  C   UNL     1       9.591   6.017  -2.470  0.00  0.00    -0.040 A 
ATOM     29  C   UNL     1       8.532   6.313  -3.307  0.00  0.00    +0.005 A 
ATOM     30  C   UNL     1       8.099   7.619  -3.439  0.00  0.00    +0.020 A 
ATOM     31  C   UNL     1       8.732   8.631  -2.740  0.00  0.00    +0.041 A 
ATOM     32  C   UNL     1       9.796   8.335  -1.907  0.00  0.00    +0.020 A 
ATOM     33  C   UNL     1      10.225   7.028  -1.772  0.00  0.00    +0.005 A 
ATOM     34 CL   UNL     1       8.193  10.272  -2.910  0.00  0.00    -0.084 Cl
ENDBRANCH  27  28
ENDBRANCH   8  27
TORSDOF 7
