REMARK  Name = ZINC19645100
REMARK  9 active torsions:
REMARK  status: ('A' for Active; 'I' for Inactive)
REMARK    1  A    between atoms: C_1  and  C_2
REMARK    2  A    between atoms: C_2  and  C_3
REMARK    3  A    between atoms: C_2  and  C_4
REMARK    4  A    between atoms: C_2  and  C_5
REMARK    5  A    between atoms: C_12  and  N_20
REMARK    6  A    between atoms: C_13  and  C_14
REMARK    7  A    between atoms: N_16  and  C_17
REMARK    8  A    between atoms: C_21  and  C_23
REMARK    9  A    between atoms: C_29  and  C_31
REMARK                            x       y       z     vdW  Elec       q    Type
REMARK                         _______ _______ _______ _____ _____    ______ ____
ROOT
ATOM      1  C   UNL     1      -0.991   4.159  -8.901  0.00  0.00    -0.000 C 
ATOM      2  C   UNL     1      -0.484   2.795  -9.378  0.00  0.00    +0.009 C 
ATOM      3  C   UNL     1       0.826   2.449  -8.668  0.00  0.00    +0.037 C 
ATOM      4  C   UNL     1       0.622   2.592  -7.165  0.00  0.00    -0.023 A 
ATOM      5  C   UNL     1      -0.413   3.304  -6.668  0.00  0.00    -0.004 A 
ATOM      6  S   UNL     1      -0.245   3.181  -4.910  0.00  0.00    -0.077 S 
ATOM      7  C   UNL     1       1.187   2.208  -4.834  0.00  0.00    +0.084 A 
ATOM      8  C   UNL     1       1.495   1.994  -6.170  0.00  0.00    +0.069 A 
ATOM      9  C   UNL     1      -1.468   4.028  -7.447  0.00  0.00    +0.046 C 
ENDROOT
BRANCH   1  11
ATOM     10  C   UNL     1      -2.667   5.970  -9.293  0.00  0.00    +0.011 C 
ATOM     11  C   UNL     1      -2.155   4.614  -9.783  0.00  0.00    -0.035 C 
ATOM     12  C   UNL     1      -1.677   4.743 -11.231  0.00  0.00    +0.011 C 
ATOM     13  C   UNL     1      -3.284   3.584  -9.709  0.00  0.00    +0.011 C 
ENDBRANCH   1  11
BRANCH   8  14
ATOM     14  C   UNL     1       2.660   1.195  -6.562  0.00  0.00    +0.247 C 
ATOM     15  O   UNL     1       2.547  -0.006  -6.725  0.00  0.00    -0.270 OA
ATOM     16  N   UNL     1       3.855   1.790  -6.744  0.00  0.00    -0.308 N 
ATOM     17  H   UNL     1       3.957   2.875  -6.597  0.00  0.00    +0.149 HD
BRANCH  16  18
ATOM     18  C   UNL     1       5.019   0.991  -7.136  0.00  0.00    +0.073 C 
ATOM     19  C   UNL     1       6.343   1.273  -6.422  0.00  0.00    +0.024 C 
ATOM     20  C   UNL     1       6.150   1.707  -7.877  0.00  0.00    +0.024 C 
ENDBRANCH  16  18
ENDBRANCH   8  14
BRANCH   7  21
ATOM     21  N   UNL     1       1.857   1.748  -3.710  0.00  0.00    -0.279 N 
ATOM     22  C   UNL     1       1.404   2.061  -2.480  0.00  0.00    +0.221 C 
ATOM     23  O   UNL     1       0.410   2.744  -2.356  0.00  0.00    -0.275 OA
ATOM     24  H   UNL     1       2.759   1.129  -3.823  0.00  0.00    +0.155 HD
BRANCH  22  25
ATOM     25  C   UNL     1       2.133   1.562  -1.259  0.00  0.00    +0.089 C 
ATOM     26  C   UNL     1       2.154   0.032  -1.268  0.00  0.00    +0.013 C 
ATOM     27  C   UNL     1       0.718  -0.497  -1.257  0.00  0.00    +0.001 C 
ATOM     28  C   UNL     1       0.002  -0.004   0.002  0.00  0.00    +0.001 C 
ATOM     29  C   UNL     1      -0.019   1.526   0.010  0.00  0.00    +0.015 C 
ATOM     30  C   UNL     1       1.417   2.055  -0.000  0.00  0.00    +0.114 C 
BRANCH  30  31
ATOM     31  C   UNL     1       1.396   3.562   0.008  0.00  0.00    +0.360 C 
ATOM     32  O   UNL     1       1.903   4.178  -0.900  0.00  0.00    -0.246 OA
ATOM     33  O   UNL     1       0.816   4.220   1.024  0.00  0.00    -0.246 OA
ENDBRANCH  30  31
ENDBRANCH  22  25
ENDBRANCH   7  21
TORSDOF 6
