REMARK  Name = ZINC09695979
REMARK  8 active torsions:
REMARK  status: ('A' for Active; 'I' for Inactive)
REMARK    1  A    between atoms: C_1  and  O_2
REMARK    2  A    between atoms: O_2  and  C_3
REMARK    3  A    between atoms: C_8  and  C_9
REMARK    4  A    between atoms: N_11  and  C_12
REMARK    5  A    between atoms: C_12  and  N_14
REMARK    6  A    between atoms: N_14  and  C_15
REMARK    7  A    between atoms: C_18  and  S_21
REMARK    8  A    between atoms: S_21  and  N_24
REMARK                            x       y       z     vdW  Elec       q    Type
REMARK                         _______ _______ _______ _____ _____    ______ ____
ROOT
ATOM      1  C   UNL     1       4.091   8.260   0.775  0.00  0.00    +0.033 A 
ATOM      2  C   UNL     1       4.365   9.243   1.717  0.00  0.00    +0.025 A 
ATOM      3  C   UNL     1       5.641   9.761   1.822  0.00  0.00    +0.031 A 
ATOM      4  C   UNL     1       6.643   9.310   0.983  0.00  0.00    +0.111 A 
ATOM      5  C   UNL     1       6.373   8.335   0.040  0.00  0.00    +0.031 A 
ATOM      6  C   UNL     1       5.100   7.809  -0.066  0.00  0.00    +0.025 A 
ENDROOT
BRANCH   4   7
ATOM      7  S   UNL     1       8.268   9.978   1.115  0.00  0.00    +0.080 S 
ATOM      8  O   UNL     1       8.393  10.482   2.438  0.00  0.00    -0.148 OA
ATOM      9  O   UNL     1       9.153   9.000   0.586  0.00  0.00    -0.148 OA
BRANCH   7  10
ATOM     10  N   UNL     1       8.345  11.284   0.101  0.00  0.00    -0.228 N 
ATOM     11  C   UNL     1       7.568  12.392   0.347  0.00  0.00    +0.186 C 
ATOM     12  N   UNL     1       7.632  13.477  -0.495  0.00  0.00    -0.370 N 
ATOM     13  H   UNL     1       8.937  11.268  -0.667  0.00  0.00    +0.191 HD
ATOM     14  H   UNL     1       6.186  13.149   1.637  0.00  0.00    +0.159 HD
ATOM     15  H   UNL     1       8.224  13.461  -1.263  0.00  0.00    +0.159 HD
ATOM     16  H   UNL     1       7.084  14.258  -0.322  0.00  0.00    +0.159 HD
ATOM     17  N   UNL     1       6.780  12.351   1.412  0.00  0.00    -0.370 N 
ATOM     18  H   UNL     1       6.769  11.517   2.010  0.00  0.00    +0.159 HD
ENDBRANCH   7  10
ENDBRANCH   4   7
BRANCH   1  19
ATOM     19  N   UNL     1       2.801   7.730   0.670  0.00  0.00    -0.297 N 
ATOM     20  H   UNL     1       2.032   8.321   0.674  0.00  0.00    +0.154 HD
BRANCH  19  21
ATOM     21  C   UNL     1       2.627   6.398   0.564  0.00  0.00    +0.141 C 
ATOM     22  S   UNL     1       3.986   5.363   0.448  0.00  0.00    -0.018 S 
BRANCH  21  25
ATOM     23  C   UNL     1       1.208   4.548   0.442  0.00  0.00    +0.253 C 
ATOM     24  O   UNL     1       2.173   3.813   0.360  0.00  0.00    -0.270 OA
ATOM     25  N   UNL     1       1.383   5.880   0.548  0.00  0.00    -0.263 N 
ATOM     26  H   UNL     1       0.613   6.466   0.614  0.00  0.00    +0.157 HD
BRANCH  23  32
ATOM     27  C   UNL     1      -0.339   2.597   0.315  0.00  0.00    +0.132 A 
ATOM     28  C   UNL     1      -1.624   2.075   0.299  0.00  0.00    +0.047 A 
ATOM     29  C   UNL     1      -2.715   2.917   0.387  0.00  0.00    +0.019 A 
ATOM     30  C   UNL     1      -2.535   4.287   0.502  0.00  0.00    +0.019 A 
ATOM     31  C   UNL     1      -1.265   4.823   0.519  0.00  0.00    +0.032 A 
ATOM     32  C   UNL     1      -0.153   3.982   0.425  0.00  0.00    +0.080 A 
ATOM     33 BR   UNL     1      -4.040   5.426   0.628  0.00  0.00    -0.050 Br
BRANCH  27  35
ATOM     34  C   UNL     1       0.466   0.371   0.113  0.00  0.00    +0.277 C 
ATOM     35  O   UNL     1       0.733   1.771   0.223  0.00  0.00    -0.494 OA
ENDBRANCH  27  35
ENDBRANCH  23  32
ENDBRANCH  21  25
ENDBRANCH  19  21
ENDBRANCH   1  19
TORSDOF 7
