REMARK  Name = ZINC15675772
REMARK  4 active torsions:
REMARK  status: ('A' for Active; 'I' for Inactive)
REMARK    1  A    between atoms: C_3  and  C_32
REMARK    2  A    between atoms: C_6  and  C_7
REMARK    3  A    between atoms: C_9  and  C_12
REMARK    4  A    between atoms: N_25  and  C_26
REMARK                            x       y       z     vdW  Elec       q    Type
REMARK                         _______ _______ _______ _____ _____    ______ ____
ROOT
ATOM      1  C   UNL     1      -3.167  -3.858   0.024  0.00  0.00    +0.172 C 
ATOM      2  C   UNL     1      -3.706  -4.206  -1.370  0.00  0.00    +0.087 C 
ATOM      3  C   UNL     1      -5.029  -3.513  -1.566  0.00  0.00    +0.040 A 
ATOM      4  C   UNL     1      -5.790  -3.009  -0.571  0.00  0.00    +0.054 A 
ATOM      5  N   UNL     1      -6.886  -2.477  -1.116  0.00  0.00    -0.348 N 
ATOM      6  C   UNL     1      -6.835  -2.627  -2.414  0.00  0.00    +0.171 A 
ATOM      7  N   UNL     1      -5.688  -3.270  -2.733  0.00  0.00    -0.349 N 
ATOM      8  H   UNL     1      -5.391  -3.511  -3.624  0.00  0.00    +0.166 HD
ATOM      9  C   UNL     1      -5.407  -3.065   0.889  0.00  0.00    +0.165 C 
ATOM     10  N   UNL     1      -4.254  -3.978   1.006  0.00  0.00    -0.268 N 
ATOM     11  C   UNL     1      -4.199  -4.901   1.986  0.00  0.00    +0.303 C 
ATOM     12  O   UNL     1      -3.291  -5.709   2.011  0.00  0.00    -0.253 OA
ATOM     13  N   UNL     1      -5.152  -4.929   2.940  0.00  0.00    -0.296 N 
ATOM     14  H   UNL     1      -5.915  -4.333   2.881  0.00  0.00    +0.151 HD
ATOM     15  H   UNL     1      -7.606  -2.047  -0.627  0.00  0.00    +0.166 HD
ENDROOT
BRANCH  13  16
ATOM     16  C   UNL     1      -5.035  -5.860   4.065  0.00  0.00    +0.074 C 
ATOM     17  C   UNL     1      -5.605  -7.221   3.662  0.00  0.00    +0.022 C 
ATOM     18  C   UNL     1      -5.483  -8.194   4.837  0.00  0.00    +0.002 C 
ATOM     19  C   UNL     1      -6.264  -7.648   6.034  0.00  0.00    +0.000 C 
ATOM     20  C   UNL     1      -5.694  -6.286   6.437  0.00  0.00    +0.002 C 
ATOM     21  C   UNL     1      -5.816  -5.314   5.262  0.00  0.00    +0.022 C 
ENDBRANCH  13  16
BRANCH   1  24
ATOM     22  C   UNL     1      -1.280  -0.757   0.017  0.00  0.00    +0.202 A 
ATOM     23  N   UNL     1      -1.387  -2.098   0.017  0.00  0.00    -0.190 NA
ATOM     24  C   UNL     1      -2.643  -2.445   0.022  0.00  0.00    +0.249 A 
ATOM     25  O   UNL     1      -3.390  -1.333   0.027  0.00  0.00    -0.336 OA
ATOM     26  N   UNL     1      -2.483  -0.241   0.029  0.00  0.00    -0.056 NA
BRANCH  22  32
ATOM     27  C   UNL     1      -0.032   1.402   0.019  0.00  0.00    +0.012 A 
ATOM     28  C   UNL     1       1.153   2.110   0.014  0.00  0.00    +0.013 A 
ATOM     29  C   UNL     1       2.362   1.438   0.002  0.00  0.00    +0.055 A 
ATOM     30  C   UNL     1       2.391   0.055  -0.005  0.00  0.00    +0.013 A 
ATOM     31  C   UNL     1       1.212  -0.662  -0.001  0.00  0.00    +0.012 A 
ATOM     32  C   UNL     1      -0.009   0.009   0.012  0.00  0.00    +0.022 A 
BRANCH  29  33
ATOM     33  C   UNL     1       3.653   2.216  -0.004  0.00  0.00    +0.417 C 
ATOM     34  F   UNL     1       4.062   2.451   1.313  0.00  0.00    -0.166 F 
ATOM     35  F   UNL     1       4.637   1.482  -0.674  0.00  0.00    -0.166 F 
ATOM     36  F   UNL     1       3.458   3.438  -0.656  0.00  0.00    -0.166 F 
ENDBRANCH  29  33
ENDBRANCH  22  32
ENDBRANCH   1  24
TORSDOF 4
