REMARK  Name = ZINC16448822
REMARK  13 active torsions:
REMARK  status: ('A' for Active; 'I' for Inactive)
REMARK    1  A    between atoms: C_1  and  C_2
REMARK    2  A    between atoms: C_5  and  N_8
REMARK    3  A    between atoms: C_9  and  C_11
REMARK    4  A    between atoms: C_11  and  O_12
REMARK    5  A    between atoms: O_12  and  C_13
REMARK    6  A    between atoms: C_14  and  O_25
REMARK    7  A    between atoms: C_16  and  C_20
REMARK    8  A    between atoms: C_20  and  N_53
REMARK    9  A    between atoms: C_21  and  C_22
REMARK   10  A    between atoms: C_21  and  N_53
REMARK   11  A    between atoms: C_22  and  C_23
REMARK   12  A    between atoms: C_22  and  C_24
REMARK   13  A    between atoms: O_25  and  C_26
REMARK                            x       y       z     vdW  Elec       q    Type
REMARK                         _______ _______ _______ _____ _____    ______ ____
ROOT
ATOM      1  C   UNL     1      -2.023   2.453   3.527  0.00  0.00    +0.176 A 
ATOM      2  C   UNL     1      -1.009   3.214   2.953  0.00  0.00    +0.163 A 
ATOM      3  C   UNL     1      -0.362   2.757   1.817  0.00  0.00    +0.051 A 
ATOM      4  C   UNL     1      -0.731   1.552   1.248  0.00  0.00    -0.060 A 
ATOM      5  C   UNL     1      -1.737   0.795   1.818  0.00  0.00    +0.021 A 
ATOM      6  C   UNL     1      -2.384   1.242   2.956  0.00  0.00    +0.063 A 
ATOM      7 BR   UNL     1      -3.761   0.204   3.732  0.00  0.00    -0.046 Br
ENDROOT
BRANCH   2   8
ATOM      8  O   UNL     1      -0.651   4.402   3.510  0.00  0.00    -0.491 OA
ATOM      9  C   UNL     1       0.397   5.131   2.867  0.00  0.00    +0.277 C 
ENDBRANCH   2   8
BRANCH   1  10
ATOM     10  O   UNL     1      -2.658   2.895   4.646  0.00  0.00    -0.478 OA
BRANCH  10  11
ATOM     11  C   UNL     1      -2.101   2.507   5.904  0.00  0.00    +0.325 C 
BRANCH  11  13
ATOM     12  N   UNL     1      -2.593   2.850   8.303  0.00  0.00    -0.283 N 
ATOM     13  C   UNL     1      -2.931   3.086   7.020  0.00  0.00    +0.255 C 
ATOM     14  O   UNL     1      -3.904   3.763   6.764  0.00  0.00    -0.272 OA
ATOM     15  H   UNL     1      -1.856   2.255   8.509  0.00  0.00    +0.155 HD
BRANCH  12  20
ATOM     16  C   UNL     1      -5.481   5.345  12.501  0.00  0.00    +0.044 C 
ATOM     17  C   UNL     1      -4.714   4.682  11.386  0.00  0.00    -0.050 A 
ATOM     18  C   UNL     1      -5.371   4.292  10.234  0.00  0.00    +0.005 A 
ATOM     19  C   UNL     1      -4.670   3.685   9.210  0.00  0.00    +0.023 A 
ATOM     20  C   UNL     1      -3.305   3.466   9.339  0.00  0.00    +0.034 A 
ATOM     21  C   UNL     1      -2.649   3.853  10.500  0.00  0.00    +0.023 A 
ATOM     22  C   UNL     1      -3.354   4.466  11.518  0.00  0.00    +0.005 A 
ENDBRANCH  12  20
ENDBRANCH  11  13
ENDBRANCH  10  11
ENDBRANCH   1  10
BRANCH   4  23
ATOM     23  C   UNL     1      -0.030   1.060   0.008  0.00  0.00    -0.047 C 
BRANCH  23  24
ATOM     24  N   UNL     1      -0.746   1.556  -1.182  0.00  0.00    +0.382 N 
ATOM     25  H   UNL     1      -0.752   2.583  -1.169  0.00  0.00    -0.085 HD
ATOM     26  H   UNL     1      -1.712   1.208  -1.166  0.00  0.00    -0.085 HD
BRANCH  24  27
ATOM     27  C   UNL     1      -0.081   1.089  -2.412  0.00  0.00    -0.079 C 
BRANCH  27  28
ATOM     28  C   UNL     1      -0.844   1.619  -3.627  0.00  0.00    -0.034 C 
ATOM     29  C   UNL     1      -0.747   3.146  -3.665  0.00  0.00    +0.005 C 
ATOM     30  C   UNL     1      -0.236   1.038  -4.905  0.00  0.00    +0.005 C 
ENDBRANCH  27  28
ENDBRANCH  24  27
ENDBRANCH  23  24
ENDBRANCH   4  23
TORSDOF 9
