REMARK  Name = ZINC12565776
REMARK  11 active torsions:
REMARK  status: ('A' for Active; 'I' for Inactive)
REMARK    1  A    between atoms: C_4  and  C_7
REMARK    2  A    between atoms: C_7  and  C_9
REMARK    3  A    between atoms: C_9  and  O_10
REMARK    4  A    between atoms: O_10  and  C_11
REMARK    5  A    between atoms: C_11  and  C_13
REMARK    6  A    between atoms: C_14  and  C_15
REMARK    7  A    between atoms: C_18  and  S_21
REMARK    8  A    between atoms: S_21  and  N_24
REMARK    9  A    between atoms: N_24  and  C_25
REMARK   10  A    between atoms: C_29  and  S_31
REMARK   11  A    between atoms: S_31  and  N_34
REMARK                            x       y       z     vdW  Elec       q    Type
REMARK                         _______ _______ _______ _____ _____    ______ ____
ROOT
ATOM      1  C   UNL     1       8.198  -6.385  -0.115  0.00  0.00    -0.025 A 
ATOM      2  C   UNL     1       9.296  -5.518  -0.116  0.00  0.00    +0.010 A 
ATOM      3  C   UNL     1      10.575  -6.031  -0.131  0.00  0.00    +0.029 A 
ATOM      4  C   UNL     1      10.775  -7.401  -0.146  0.00  0.00    +0.110 A 
ATOM      5  C   UNL     1       9.694  -8.265  -0.146  0.00  0.00    +0.029 A 
ATOM      6  C   UNL     1       8.409  -7.768  -0.124  0.00  0.00    +0.010 A 
ENDROOT
BRANCH   4   7
ATOM      7  S   UNL     1      12.415  -8.047  -0.167  0.00  0.00    +0.092 S 
ATOM      8  O   UNL     1      12.331  -9.349  -0.730  0.00  0.00    -0.148 OA
ATOM      9  O   UNL     1      13.244  -7.032  -0.716  0.00  0.00    -0.148 OA
BRANCH   7  10
ATOM     10  N   UNL     1      12.884  -8.242   1.409  0.00  0.00    -0.098 NA
BRANCH  10  11
ATOM     11  C   UNL     1      14.154  -8.745   1.702  0.00  0.00    +0.076 A 
ATOM     12  C   UNL     1      15.026  -9.076   0.673  0.00  0.00    +0.027 A 
ATOM     13  C   UNL     1      16.281  -9.572   0.967  0.00  0.00    +0.004 A 
ATOM     14  C   UNL     1      16.669  -9.740   2.283  0.00  0.00    +0.028 A 
ATOM     15  C   UNL     1      15.803  -9.412   3.310  0.00  0.00    +0.107 A 
ATOM     16  C   UNL     1      14.549  -8.909   3.023  0.00  0.00    +0.055 A 
BRANCH  15  17
ATOM     17  S   UNL     1      16.303  -9.628   4.986  0.00  0.00    +0.056 S 
ATOM     18  O   UNL     1      15.113  -9.761   5.750  0.00  0.00    -0.153 OA
ATOM     19  O   UNL     1      17.320 -10.620   4.981  0.00  0.00    -0.153 OA
BRANCH  17  20
ATOM     20  N   UNL     1      17.021  -8.216   5.469  0.00  0.00    -0.204 NA
ATOM     21  H   UNL     1      16.977  -7.943   6.399  0.00  0.00    +0.144 HD
ATOM     22  H   UNL     1      17.485  -7.662   4.822  0.00  0.00    +0.144 HD
ENDBRANCH  17  20
ENDBRANCH  15  17
ENDBRANCH  10  11
ENDBRANCH   7  10
ENDBRANCH   4   7
BRANCH   1  24
ATOM     23  C   UNL     1       6.630  -4.511  -0.089  0.00  0.00    +0.092 C 
ATOM     24  C   UNL     1       6.830  -5.845  -0.098  0.00  0.00    +0.015 C 
BRANCH  23  25
ATOM     25  C   UNL     1       5.270  -3.974  -0.072  0.00  0.00    +0.332 C 
ATOM     26  O   UNL     1       4.318  -4.731  -0.066  0.00  0.00    -0.246 OA
BRANCH  25  27
ATOM     27  O   UNL     1       5.071  -2.640  -0.063  0.00  0.00    -0.453 OA
BRANCH  27  28
ATOM     28  C   UNL     1       3.716  -2.186  -0.046  0.00  0.00    +0.311 C 
BRANCH  28  29
ATOM     29  C   UNL     1       3.691  -0.679  -0.038  0.00  0.00    +0.200 C 
ATOM     30  O   UNL     1       4.731  -0.056  -0.045  0.00  0.00    -0.288 OA
BRANCH  29  34
ATOM     31  C   UNL     1      -0.017   1.380   0.010  0.00  0.00    +0.000 A 
ATOM     32  C   UNL     1       1.168   2.095   0.002  0.00  0.00    +0.001 A 
ATOM     33  C   UNL     1       2.377   1.433  -0.013  0.00  0.00    +0.011 A 
ATOM     34  C   UNL     1       2.405   0.035  -0.021  0.00  0.00    +0.021 A 
ATOM     35  C   UNL     1       1.203  -0.681  -0.013  0.00  0.00    +0.011 A 
ATOM     36  C   UNL     1       0.002  -0.004   0.002  0.00  0.00    +0.001 A 
ENDBRANCH  29  34
ENDBRANCH  28  29
ENDBRANCH  27  28
ENDBRANCH  25  27
ENDBRANCH  23  25
ENDBRANCH   1  24
TORSDOF 11
