REMARK  Name = ZINC16031025
REMARK  6 active torsions:
REMARK  status: ('A' for Active; 'I' for Inactive)
REMARK    1  A    between atoms: C_1  and  C_2
REMARK    2  A    between atoms: C_15  and  O_33
REMARK    3  A    between atoms: C_18  and  C_31
REMARK    4  A    between atoms: C_23  and  C_25
REMARK    5  A    between atoms: C_25  and  C_30
REMARK    6  A    between atoms: C_31  and  O_32
REMARK                            x       y       z     vdW  Elec       q    Type
REMARK                         _______ _______ _______ _____ _____    ______ ____
ROOT
ATOM      1  C   UNL     1      -0.052  -2.764   1.257  0.00  0.00    +0.012 C 
ATOM      2  C   UNL     1      -1.187  -2.763   0.237  0.00  0.00    -0.023 C 
ATOM      3  C   UNL     1      -1.660  -4.215   0.036  0.00  0.00    +0.012 C 
ATOM      4  C   UNL     1      -2.084  -4.823   1.366  0.00  0.00    +0.065 C 
ATOM      5  C   UNL     1      -3.181  -4.009   2.042  0.00  0.00    +0.170 C 
ATOM      6  C   UNL     1      -2.815  -2.531   2.136  0.00  0.00    +0.069 C 
ATOM      7  C   UNL     1      -2.389  -1.988   0.778  0.00  0.00    +0.000 C 
ATOM      8  C   UNL     1      -2.051  -0.501   0.881  0.00  0.00    +0.004 C 
ATOM      9  C   UNL     1      -1.802   0.029  -0.530  0.00  0.00    +0.004 C 
ATOM     10  C   UNL     1      -0.616  -0.688  -1.172  0.00  0.00    -0.001 C 
ATOM     11  C   UNL     1      -0.735  -2.201  -1.107  0.00  0.00    +0.027 C 
ATOM     12  C   UNL     1       0.495  -2.927  -1.630  0.00  0.00    +0.119 C 
ATOM     13  C   UNL     1       1.844  -2.330  -1.237  0.00  0.00    +0.041 C 
ATOM     14  C   UNL     1       1.863  -0.833  -1.385  0.00  0.00    +0.007 C 
ATOM     15  C   UNL     1       0.691  -0.222  -0.585  0.00  0.00    +0.001 C 
ATOM     16  C   UNL     1       0.990   1.282  -0.693  0.00  0.00    +0.005 C 
ATOM     17  C   UNL     1       2.531   1.346  -0.522  0.00  0.00    +0.010 C 
ATOM     18  C   UNL     1       3.068  -0.080  -0.807  0.00  0.00    +0.057 C 
ATOM     19  O   UNL     1      -4.412  -4.160   1.316  0.00  0.00    -0.346 OA
ATOM     20  C   UNL     1      -5.061  -5.299   1.931  0.00  0.00    +0.191 C 
ATOM     21  C   UNL     1      -4.697  -5.102   3.424  0.00  0.00    +0.191 C 
ATOM     22  O   UNL     1      -3.382  -4.518   3.373  0.00  0.00    -0.346 OA
ENDROOT
BRANCH  18  23
ATOM     23  C   UNL     1       3.578  -0.721   0.485  0.00  0.00    +0.171 C 
ATOM     24  O   UNL     1       4.676   0.046   1.004  0.00  0.00    -0.346 OA
ATOM     25  C   UNL     1       5.575  -0.934   1.576  0.00  0.00    +0.191 C 
ATOM     26  C   UNL     1       5.425  -2.115   0.585  0.00  0.00    +0.191 C 
ATOM     27  O   UNL     1       4.033  -2.054   0.214  0.00  0.00    -0.346 OA
ATOM     28  C   UNL     1       2.450  -0.763   1.518  0.00  0.00    +0.074 C 
ENDBRANCH  18  23
BRANCH  12  29
ATOM     29  O   UNL     1       0.404  -3.029  -3.058  0.00  0.00    -0.391 OA
ATOM     30  H   UNL     1       1.154  -3.481  -3.468  0.00  0.00    +0.210 HD
ENDBRANCH  12  29
BRANCH  14  31
ATOM     31  C   UNL     1       1.776  -0.457  -2.871  0.00  0.00    +0.163 C 
BRANCH  31  32
ATOM     32  O   UNL     1       2.875  -1.039  -3.575  0.00  0.00    -0.394 OA
ATOM     33  H   UNL     1       2.885  -0.842  -4.521  0.00  0.00    +0.209 HD
ENDBRANCH  31  32
ENDBRANCH  14  31
TORSDOF 4
