REMARK  Name = ZINC16500400
REMARK  11 active torsions:
REMARK  status: ('A' for Active; 'I' for Inactive)
REMARK    1  A    between atoms: C_1  and  C_2
REMARK    2  A    between atoms: C_2  and  N_3
REMARK    3  A    between atoms: N_3  and  C_4
REMARK    4  A    between atoms: N_3  and  S_6
REMARK    5  A    between atoms: C_4  and  C_5
REMARK    6  A    between atoms: S_6  and  C_9
REMARK    7  A    between atoms: C_12  and  C_15
REMARK    8  A    between atoms: C_15  and  N_16
REMARK    9  A    between atoms: C_17  and  C_19
REMARK   10  A    between atoms: C_20  and  C_29
REMARK   11  A    between atoms: C_22  and  C_24
REMARK                            x       y       z     vdW  Elec       q    Type
REMARK                         _______ _______ _______ _____ _____    ______ ____
ROOT
ATOM      1  C   UNL     1       0.002  -0.004   0.002  0.00  0.00    +0.139 C 
ENDROOT
BRANCH   1   5
ATOM      2  C   UNL     1      -4.005  -1.483   0.032  0.00  0.00    +0.105 A 
ATOM      3  C   UNL     1      -3.369  -1.237  -1.170  0.00  0.00    +0.029 A 
ATOM      4  C   UNL     1      -2.072  -0.758  -1.179  0.00  0.00    +0.007 A 
ATOM      5  C   UNL     1      -1.412  -0.526   0.013  0.00  0.00    -0.030 A 
ATOM      6  C   UNL     1      -2.047  -0.777   1.215  0.00  0.00    +0.007 A 
ATOM      7  C   UNL     1      -3.345  -1.251   1.224  0.00  0.00    +0.029 A 
BRANCH   2   8
ATOM      8  S   UNL     1      -5.659  -2.092   0.045  0.00  0.00    +0.061 S 
ATOM      9  O   UNL     1      -6.218  -1.723   1.298  0.00  0.00    -0.153 OA
ATOM     10  O   UNL     1      -6.242  -1.708  -1.192  0.00  0.00    -0.153 OA
BRANCH   8  11
ATOM     11  N   UNL     1      -5.572  -3.745   0.034  0.00  0.00    -0.177 NA
BRANCH  11  13
ATOM     12  C   UNL     1      -6.933  -4.926   1.688  0.00  0.00    +0.022 C 
ATOM     13  C   UNL     1      -5.521  -4.485   1.298  0.00  0.00    +0.106 C 
ENDBRANCH  11  13
BRANCH  11  14
ATOM     14  C   UNL     1      -5.546  -4.469  -1.240  0.00  0.00    +0.106 C 
ATOM     15  C   UNL     1      -4.096  -4.755  -1.634  0.00  0.00    +0.022 C 
ENDBRANCH  11  14
ENDBRANCH   8  11
ENDBRANCH   2   8
ENDBRANCH   1   5
BRANCH   1  16
ATOM     16  N   UNL     1      -0.018   1.461   0.010  0.00  0.00    -0.307 N 
ATOM     17  C   UNL     1       1.140   2.151   0.003  0.00  0.00    +0.253 C 
ATOM     18  O   UNL     1       2.202   1.556  -0.011  0.00  0.00    -0.270 OA
ATOM     19  H   UNL     1      -0.864   1.934   0.017  0.00  0.00    +0.149 HD
BRANCH  17  20
ATOM     20  C   UNL     1       1.120   3.614   0.011  0.00  0.00    +0.097 A 
ATOM     21  C   UNL     1       2.177   4.516   0.005  0.00  0.00    +0.058 A 
ATOM     22  N   UNL     1       1.891   5.790   0.015  0.00  0.00    -0.243 NA
ATOM     23  C   UNL     1       0.635   6.219   0.029  0.00  0.00    +0.110 A 
ATOM     24  S   UNL     1      -0.270   4.737   0.022  0.00  0.00    -0.062 S 
ATOM     25  C   UNL     1       3.606   4.040  -0.010  0.00  0.00    +0.067 C 
BRANCH  23  26
ATOM     26  C   UNL     1       0.134   7.606   0.041  0.00  0.00    +0.014 A 
ATOM     27  C   UNL     1       1.037   8.728   0.039  0.00  0.00    +0.018 A 
ATOM     28  C   UNL     1       0.483   9.959   0.050  0.00  0.00    +0.046 A 
ATOM     29  S   UNL     1      -1.263   9.608   0.064  0.00  0.00    -0.104 S 
ATOM     30  C   UNL     1      -1.206   7.878   0.049  0.00  0.00    +0.055 A 
ENDBRANCH  23  26
ENDBRANCH  17  20
ENDBRANCH   1  16
TORSDOF 8
