REMARK  Name = ZINC39936570
REMARK  9 active torsions:
REMARK  status: ('A' for Active; 'I' for Inactive)
REMARK    1  A    between atoms: C_1  and  C_2
REMARK    2  A    between atoms: C_4  and  C_9
REMARK    3  A    between atoms: C_5  and  C_8
REMARK    4  A    between atoms: C_9  and  C_10
REMARK    5  A    between atoms: C_10  and  C_11
REMARK    6  A    between atoms: N_13  and  C_14
REMARK    7  A    between atoms: C_17  and  S_20
REMARK    8  A    between atoms: S_20  and  C_21
REMARK    9  A    between atoms: C_21  and  C_22
REMARK                            x       y       z     vdW  Elec       q    Type
REMARK                         _______ _______ _______ _____ _____    ______ ____
ROOT
ATOM      1  C   UNL     1      -0.881   0.147  -6.483  0.00  0.00    +0.250 A 
ATOM      2  N   UNL     1      -1.749  -0.558  -7.186  0.00  0.00    -0.184 NA
ATOM      3  H   UNL     1       0.246   1.810  -7.038  0.00  0.00    +0.192 HD
ATOM      4  C   UNL     1      -1.841  -0.055  -8.420  0.00  0.00    +0.211 A 
ATOM      5  N   UNL     1      -1.035   0.976  -8.524  0.00  0.00    -0.144 NA
ATOM      6  N   UNL     1      -0.405   1.132  -7.279  0.00  0.00    -0.242 N 
ENDROOT
BRANCH   1   9
ATOM      7  C   UNL     1      -1.071  -1.060  -4.525  0.00  0.00    +0.250 C 
ATOM      8  O   UNL     1      -1.974  -1.859  -5.125  0.00  0.00    -0.271 OA
ATOM      9  N   UNL     1      -0.532  -0.076  -5.185  0.00  0.00    -0.176 NA
BRANCH   7  10
ATOM     10  C   UNL     1      -0.685  -1.306  -3.089  0.00  0.00    +0.105 C 
BRANCH  10  11
ATOM     11  C   UNL     1       0.349  -0.266  -2.654  0.00  0.00    +0.044 C 
BRANCH  11  14
ATOM     12  C   UNL     1      -0.019   1.526   0.010  0.00  0.00    +0.045 C 
ATOM     13  C   UNL     1       0.002  -0.004   0.002  0.00  0.00    +0.173 C 
ATOM     14  C   UNL     1       0.735  -0.512  -1.218  0.00  0.00    -0.018 C 
ATOM     15  C   UNL     1       1.772  -1.208  -0.801  0.00  0.00    +0.038 C 
ATOM     16  N   UNL     1       1.832  -1.235   0.581  0.00  0.00    -0.270 N 
ATOM     17  O   UNL     1       0.748  -0.498   1.124  0.00  0.00    -0.267 OA
ATOM     18  C   UNL     1       2.763  -1.888  -1.710  0.00  0.00    +0.065 C 
ATOM     19  H   UNL     1       2.513  -1.690   1.100  0.00  0.00    +0.194 HD
ENDBRANCH  11  14
ENDBRANCH  10  11
ENDBRANCH   7  10
ENDBRANCH   1   9
BRANCH   4  20
ATOM     20  S   UNL     1      -2.877  -0.675  -9.703  0.00  0.00    -0.080 S 
BRANCH  20  21
ATOM     21  C   UNL     1      -2.547   0.426 -11.106  0.00  0.00    +0.112 C 
BRANCH  21  22
ATOM     22  C   UNL     1      -3.381  -0.001 -12.287  0.00  0.00    -0.037 A 
ATOM     23  C   UNL     1      -2.884  -0.925 -13.186  0.00  0.00    +0.006 A 
ATOM     24  C   UNL     1      -3.648  -1.316 -14.269  0.00  0.00    +0.020 A 
ATOM     25  C   UNL     1      -4.911  -0.782 -14.453  0.00  0.00    +0.041 A 
ATOM     26  C   UNL     1      -5.408   0.143 -13.552  0.00  0.00    +0.020 A 
ATOM     27  C   UNL     1      -4.645   0.529 -12.466  0.00  0.00    +0.006 A 
ATOM     28 CL   UNL     1      -5.872  -1.273 -15.813  0.00  0.00    -0.084 Cl
ENDBRANCH  21  22
ENDBRANCH  20  21
ENDBRANCH   4  20
TORSDOF 7
