REMARK  Name = ZINC60383102
REMARK  9 active torsions:
REMARK  status: ('A' for Active; 'I' for Inactive)
REMARK    1  A    between atoms: C_4  and  C_7
REMARK    2  A    between atoms: C_7  and  N_8
REMARK    3  A    between atoms: N_8  and  C_9
REMARK    4  A    between atoms: N_8  and  C_16
REMARK    5  A    between atoms: C_9  and  C_10
REMARK    6  A    between atoms: C_16  and  C_17
REMARK    7  A    between atoms: N_19  and  C_20
REMARK    8  A    between atoms: C_24  and  S_26
REMARK    9  A    between atoms: S_26  and  N_29
REMARK                            x       y       z     vdW  Elec       q    Type
REMARK                         _______ _______ _______ _____ _____    ______ ____
ROOT
ATOM      1  C   UNL     1       5.173  -1.076   1.552  0.00  0.00    +0.020 C 
ENDROOT
BRANCH   1   2
ATOM      2  C   UNL     1       6.103   0.110   1.522  0.00  0.00    +0.201 C 
ATOM      3  O   UNL     1       5.864   1.049   0.794  0.00  0.00    -0.278 OA
ATOM      4  N   UNL     1       7.200   0.125   2.305  0.00  0.00    -0.287 N 
ATOM      5  H   UNL     1       7.434  -0.657   2.829  0.00  0.00    +0.155 HD
BRANCH   4   6
ATOM      6  C   UNL     1       8.002   1.270   2.363  0.00  0.00    +0.035 A 
ATOM      7  C   UNL     1       7.422   2.530   2.289  0.00  0.00    +0.023 A 
ATOM      8  C   UNL     1       8.217   3.659   2.346  0.00  0.00    +0.004 A 
ATOM      9  C   UNL     1       9.588   3.535   2.477  0.00  0.00    +0.028 A 
ATOM     10  C   UNL     1      10.168   2.282   2.550  0.00  0.00    +0.107 A 
ATOM     11  C   UNL     1       9.379   1.149   2.500  0.00  0.00    +0.051 A 
BRANCH  10  12
ATOM     12  S   UNL     1      11.916   2.130   2.715  0.00  0.00    +0.056 S 
ATOM     13  O   UNL     1      12.261   0.846   2.213  0.00  0.00    -0.153 OA
ATOM     14  O   UNL     1      12.479   3.327   2.196  0.00  0.00    -0.153 OA
BRANCH  12  15
ATOM     15  N   UNL     1      12.255   2.111   4.335  0.00  0.00    -0.204 NA
ATOM     16  H   UNL     1      11.535   2.179   4.982  0.00  0.00    +0.144 HD
ATOM     17  H   UNL     1      13.173   2.033   4.638  0.00  0.00    +0.144 HD
ENDBRANCH  12  15
ENDBRANCH  10  12
ENDBRANCH   4   6
ENDBRANCH   1   2
BRANCH   1  18
ATOM     18  N   UNL     1       4.126  -0.903   0.536  0.00  0.00    +0.391 N 
ATOM     19  H   UNL     1       3.648  -0.028   0.691  0.00  0.00    -0.080 HD
BRANCH  18  20
ATOM     20  C   UNL     1       4.737  -0.897  -0.800  0.00  0.00    -0.042 C 
BRANCH  20  24
ATOM     21  C   UNL     1       1.748  -0.047  -3.731  0.00  0.00    +0.000 A 
ATOM     22  C   UNL     1       2.457   0.986  -3.147  0.00  0.00    +0.000 A 
ATOM     23  C   UNL     1       3.424   0.711  -2.199  0.00  0.00    +0.002 A 
ATOM     24  C   UNL     1       3.682  -0.597  -1.833  0.00  0.00    -0.064 A 
ATOM     25  C   UNL     1       2.971  -1.630  -2.416  0.00  0.00    +0.002 A 
ATOM     26  C   UNL     1       2.005  -1.355  -3.365  0.00  0.00    +0.000 A 
ENDBRANCH  20  24
ENDBRANCH  18  20
BRANCH  18  27
ATOM     27  C   UNL     1       3.164  -2.009   0.630  0.00  0.00    -0.042 C 
BRANCH  27  28
ATOM     28  C   UNL     1       2.425  -1.921   1.940  0.00  0.00    -0.064 A 
ATOM     29  C   UNL     1       2.848  -2.668   3.024  0.00  0.00    +0.002 A 
ATOM     30  C   UNL     1       2.169  -2.587   4.226  0.00  0.00    +0.000 A 
ATOM     31  C   UNL     1       1.068  -1.760   4.344  0.00  0.00    +0.000 A 
ATOM     32  C   UNL     1       0.645  -1.014   3.260  0.00  0.00    +0.000 A 
ATOM     33  C   UNL     1       1.326  -1.091   2.060  0.00  0.00    +0.002 A 
ENDBRANCH  27  28
ENDBRANCH  18  27
ENDBRANCH   1  18
TORSDOF 9
