REMARK  Name = ZINC64002483
REMARK  8 active torsions:
REMARK  status: ('A' for Active; 'I' for Inactive)
REMARK    1  A    between atoms: C_1  and  C_2
REMARK    2  A    between atoms: C_7  and  C_8
REMARK    3  A    between atoms: C_23  and  C_25
REMARK    4  A    between atoms: C_28  and  C_30
REMARK    5  A    between atoms: C_31  and  C_32
REMARK    6  A    between atoms: C_32  and  C_33
REMARK    7  A    between atoms: C_32  and  C_34
REMARK    8  A    between atoms: C_32  and  O_35
REMARK                            x       y       z     vdW  Elec       q    Type
REMARK                         _______ _______ _______ _____ _____    ______ ____
ROOT
ATOM      1  C   UNL     1       0.201   0.189   2.439  0.00  0.00    +0.133 C 
ATOM      2  C   UNL     1       1.604   0.787   2.589  0.00  0.00    +0.131 C 
ATOM      3  C   UNL     1       2.542  -0.374   2.890  0.00  0.00    -0.035 C 
ATOM      4  C   UNL     1       3.490  -0.341   1.961  0.00  0.00    -0.001 A 
ATOM      5  C   UNL     1       4.700  -1.155   1.766  0.00  0.00    +0.010 A 
ATOM      6  C   UNL     1       5.460  -0.851   0.681  0.00  0.00    +0.001 A 
ATOM      7  C   UNL     1       5.141   0.170  -0.220  0.00  0.00    +0.002 A 
ATOM      8  C   UNL     1       4.050   0.971  -0.116  0.00  0.00    +0.026 A 
ATOM      9  C   UNL     1       3.177   0.751   0.989  0.00  0.00    +0.043 A 
ATOM     10  N   UNL     1       2.075   1.390   1.341  0.00  0.00    -0.375 N 
ATOM     11  C   UNL     1       2.287  -1.354   4.009  0.00  0.00    +0.052 C 
ATOM     12  C   UNL     1       0.837  -1.843   3.848  0.00  0.00    +0.113 C 
ATOM     13  N   UNL     1      -0.040  -0.694   3.592  0.00  0.00    -0.285 N 
ATOM     14  C   UNL     1      -1.073  -0.444   4.420  0.00  0.00    +0.283 C 
ATOM     15  O   UNL     1      -1.866   0.441   4.153  0.00  0.00    -0.267 OA
ATOM     16  H   UNL     1       1.647   2.119   0.866  0.00  0.00    +0.160 HD
ENDROOT
BRANCH   1  23
ATOM     17  C   UNL     1      -1.638   0.982   0.357  0.00  0.00    +0.044 C 
ATOM     18  C   UNL     1      -0.760  -0.227   0.166  0.00  0.00    -0.045 A 
ATOM     19  C   UNL     1      -0.830  -0.954  -1.008  0.00  0.00    +0.004 A 
ATOM     20  C   UNL     1      -0.025  -2.063  -1.184  0.00  0.00    +0.000 A 
ATOM     21  C   UNL     1       0.852  -2.446  -0.185  0.00  0.00    +0.000 A 
ATOM     22  C   UNL     1       0.923  -1.719   0.988  0.00  0.00    +0.006 A 
ATOM     23  C   UNL     1       0.120  -0.607   1.162  0.00  0.00    -0.022 A 
ENDBRANCH   1  23
BRANCH  14  24
ATOM     24  C   UNL     1      -1.243  -1.236   5.640  0.00  0.00    +0.191 A 
ATOM     25  C   UNL     1      -2.192  -1.021   6.616  0.00  0.00    +0.056 A 
ATOM     26  C   UNL     1      -1.997  -2.001   7.593  0.00  0.00    +0.059 A 
ATOM     27  C   UNL     1      -0.937  -2.777   7.178  0.00  0.00    +0.179 A 
ATOM     28  O   UNL     1      -0.501  -2.304   5.997  0.00  0.00    -0.442 OA
BRANCH  27  29
ATOM     29  C   UNL     1      -0.396  -3.900   7.882  0.00  0.00    -0.026 C 
ATOM     30  C   UNL     1       0.048  -4.822   8.459  0.00  0.00    -0.060 C 
BRANCH  30  31
ATOM     31  C   UNL     1       0.604  -5.976   9.183  0.00  0.00    +0.121 C 
ATOM     32  C   UNL     1       1.772  -6.563   8.386  0.00  0.00    +0.055 C 
ATOM     33  C   UNL     1       1.100  -5.526  10.558  0.00  0.00    +0.055 C 
BRANCH  31  34
ATOM     34  O   UNL     1      -0.409  -6.971   9.344  0.00  0.00    -0.377 OA
ATOM     35  H   UNL     1      -0.770  -7.303   8.511  0.00  0.00    +0.211 HD
ENDBRANCH  31  34
ENDBRANCH  30  31
ENDBRANCH  27  29
ENDBRANCH  14  24
TORSDOF 5
