REMARK  Name = ZINC17098283
REMARK  7 active torsions:
REMARK  status: ('A' for Active; 'I' for Inactive)
REMARK    1  A    between atoms: C_1  and  C_2
REMARK    2  A    between atoms: C_2  and  C_3
REMARK    3  A    between atoms: C_3  and  C_4
REMARK    4  A    between atoms: C_12  and  N_16
REMARK    5  A    between atoms: N_16  and  C_17
REMARK    6  A    between atoms: C_17  and  N_19
REMARK    7  A    between atoms: C_20  and  C_22
REMARK                            x       y       z     vdW  Elec       q    Type
REMARK                         _______ _______ _______ _____ _____    ______ ____
ROOT
ATOM      1  C   UNL     1      -1.469  -2.035   0.160  0.00  0.00    +0.219 C 
ATOM      2  O   UNL     1      -0.474  -2.603  -0.238  0.00  0.00    -0.275 OA
ATOM      3  N   UNL     1      -2.559  -2.749   0.504  0.00  0.00    -0.265 N 
ATOM      4  C   UNL     1      -2.543  -4.131   0.404  0.00  0.00    +0.165 A 
ATOM      5  N   UNL     1      -1.570  -4.916   0.006  0.00  0.00    -0.225 NA
ATOM      6  C   UNL     1      -1.694  -6.261  -0.041  0.00  0.00    +0.080 A 
ATOM      7  C   UNL     1      -0.730  -7.212  -0.447  0.00  0.00    +0.031 A 
ATOM      8  C   UNL     1      -1.013  -8.542  -0.438  0.00  0.00    +0.025 A 
ATOM      9  C   UNL     1      -2.256  -9.021  -0.030  0.00  0.00    +0.034 A 
ATOM     10  C   UNL     1      -3.229  -8.117   0.377  0.00  0.00    +0.040 A 
ATOM     11  C   UNL     1      -2.946  -6.774   0.368  0.00  0.00    +0.043 A 
ATOM     12  S   UNL     1      -3.840  -5.298   0.792  0.00  0.00    -0.052 S 
ATOM     13  H   UNL     1      -3.355  -2.295   0.822  0.00  0.00    +0.157 HD
ENDROOT
BRANCH   9  14
ATOM     14  N   UNL     1      -2.522 -10.396  -0.031  0.00  0.00    -0.297 N 
ATOM     15  H   UNL     1      -2.264 -10.939  -0.792  0.00  0.00    +0.154 HD
BRANCH  14  16
ATOM     16  C   UNL     1      -3.135 -10.964   1.026  0.00  0.00    +0.141 C 
ATOM     17  S   UNL     1      -3.687  -9.990   2.321  0.00  0.00    -0.018 S 
BRANCH  16  18
ATOM     18  N   UNL     1      -3.314 -12.300   1.064  0.00  0.00    -0.264 N 
ATOM     19  C   UNL     1      -3.927 -12.868   2.121  0.00  0.00    +0.250 C 
ATOM     20  O   UNL     1      -4.319 -12.176   3.040  0.00  0.00    -0.270 OA
ATOM     21  H   UNL     1      -3.001 -12.851   0.330  0.00  0.00    +0.157 HD
BRANCH  19  22
ATOM     22  C   UNL     1      -4.123 -14.331   2.162  0.00  0.00    +0.037 A 
ATOM     23  C   UNL     1      -3.669 -15.129   1.109  0.00  0.00    +0.014 A 
ATOM     24  C   UNL     1      -3.855 -16.495   1.154  0.00  0.00    +0.021 A 
ATOM     25  C   UNL     1      -4.491 -17.075   2.239  0.00  0.00    +0.041 A 
ATOM     26  C   UNL     1      -4.943 -16.289   3.285  0.00  0.00    +0.021 A 
ATOM     27  C   UNL     1      -4.758 -14.923   3.256  0.00  0.00    +0.014 A 
ATOM     28 CL   UNL     1      -4.722 -18.795   2.287  0.00  0.00    -0.084 Cl
ENDBRANCH  19  22
ENDBRANCH  16  18
ENDBRANCH  14  16
ENDBRANCH   9  14
BRANCH   1  29
ATOM     29  C   UNL     1      -1.486  -0.532   0.268  0.00  0.00    +0.096 C 
BRANCH  29  31
ATOM     30  C   UNL     1      -0.153   1.553  -0.070  0.00  0.00    +0.004 C 
ATOM     31  C   UNL     1      -0.135   0.027  -0.181  0.00  0.00    +0.006 C 
ENDBRANCH  29  31
ENDBRANCH   1  29
TORSDOF 6
