REMARK  Name = ZINC09609488
REMARK  7 active torsions:
REMARK  status: ('A' for Active; 'I' for Inactive)
REMARK    1  A    between atoms: C_1  and  C_2
REMARK    2  A    between atoms: C_5  and  S_8
REMARK    3  A    between atoms: S_8  and  N_11
REMARK    4  A    between atoms: N_11  and  C_12
REMARK    5  A    between atoms: N_11  and  C_13
REMARK    6  A    between atoms: C_16  and  C_19
REMARK    7  A    between atoms: C_30  and  N_55
REMARK                            x       y       z     vdW  Elec       q    Type
REMARK                         _______ _______ _______ _____ _____    ______ ____
ROOT
ATOM      1  C   UNL     1      -3.519  -8.512   1.220  0.00  0.00    +0.051 A 
ATOM      2  C   UNL     1      -4.525  -7.627   1.597  0.00  0.00    +0.025 A 
ATOM      3  C   UNL     1      -4.239  -6.292   1.773  0.00  0.00    +0.015 A 
ATOM      4  C   UNL     1      -2.936  -5.826   1.572  0.00  0.00    +0.037 A 
ATOM      5  C   UNL     1      -1.929  -6.716   1.187  0.00  0.00    +0.015 A 
ATOM      6  C   UNL     1      -2.221  -8.051   1.019  0.00  0.00    +0.025 A 
ENDROOT
BRANCH   4   7
ATOM      7  C   UNL     1      -2.626  -4.396   1.759  0.00  0.00    +0.250 C 
ATOM      8  O   UNL     1      -3.503  -3.622   2.089  0.00  0.00    -0.270 OA
ATOM      9  N   UNL     1      -1.370  -3.948   1.565  0.00  0.00    -0.261 N 
ATOM     10  C   UNL     1      -1.077  -2.602   1.742  0.00  0.00    +0.165 A 
ATOM     11  N   UNL     1       0.076  -1.979   1.601  0.00  0.00    -0.229 NA
ATOM     12  C   UNL     1       0.202  -0.673   1.806  0.00  0.00    +0.050 A 
ATOM     13  C   UNL     1      -0.929  -0.012   2.171  0.00  0.00    -0.002 A 
ATOM     14  S   UNL     1      -2.139  -1.305   2.205  0.00  0.00    -0.059 S 
ATOM     15  C   UNL     1      -1.069   1.442   2.462  0.00  0.00    -0.034 C 
ATOM     16  C   UNL     1       1.162   1.592   1.529  0.00  0.00    -0.073 C 
ATOM     17  C   UNL     1       1.505   0.105   1.654  0.00  0.00    +0.038 C 
ATOM     18  C   UNL     1       0.233   3.472   2.739  0.00  0.00    -0.096 C 
ATOM     19  H   UNL     1      -0.670  -4.566   1.302  0.00  0.00    +0.157 HD
ATOM     20  N   UNL     1       0.295   1.998   2.653  0.00  0.00    +0.381 N 
ATOM     21  H   UNL     1       0.686   1.629   3.528  0.00  0.00    -0.082 HD
ENDBRANCH   4   7
BRANCH   1  22
ATOM     22  N   UNL     1      -3.811  -9.860   1.043  0.00  0.00    -0.206 N 
ATOM     23  C   UNL     1      -4.935 -10.466   1.762  0.00  0.00    +0.157 C 
BRANCH  22  24
ATOM     24  S   UNL     1      -2.890 -10.780   0.019  0.00  0.00    +0.074 S 
ATOM     25  O   UNL     1      -3.714 -11.853  -0.415  0.00  0.00    -0.150 OA
ATOM     26  O   UNL     1      -2.270  -9.880  -0.889  0.00  0.00    -0.150 OA
BRANCH  24  31
ATOM     27  C   UNL     1       1.534 -13.226   3.313  0.00  0.00    +0.044 C 
ATOM     28  C   UNL     1       0.429 -12.616   2.491  0.00  0.00    -0.050 A 
ATOM     29  C   UNL     1      -0.816 -13.215   2.451  0.00  0.00    +0.005 A 
ATOM     30  C   UNL     1      -1.829 -12.655   1.696  0.00  0.00    +0.029 A 
ATOM     31  C   UNL     1      -1.598 -11.494   0.982  0.00  0.00    +0.109 A 
ATOM     32  C   UNL     1      -0.352 -10.897   1.017  0.00  0.00    +0.029 A 
ATOM     33  C   UNL     1       0.660 -11.455   1.776  0.00  0.00    +0.005 A 
ENDBRANCH  24  31
ENDBRANCH  22  24
ENDBRANCH   1  22
TORSDOF 4
