REMARK  Name = ZINC36496074
REMARK  15 active torsions:
REMARK  status: ('A' for Active; 'I' for Inactive)
REMARK    1  A    between atoms: C_1  and  C_2
REMARK    2  A    between atoms: C_2  and  C_3
REMARK    3  A    between atoms: C_3  and  C_4
REMARK    4  A    between atoms: C_4  and  C_5
REMARK    5  A    between atoms: C_5  and  C_6
REMARK    6  A    between atoms: C_7  and  C_8
REMARK    7  A    between atoms: N_10  and  C_11
REMARK    8  A    between atoms: N_10  and  C_17
REMARK    9  A    between atoms: C_11  and  C_12
REMARK   10  A    between atoms: C_17  and  C_19
REMARK   11  A    between atoms: C_17  and  C_27
REMARK   12  A    between atoms: N_29  and  C_30
REMARK   13  A    between atoms: C_30  and  C_31
REMARK   14  A    between atoms: C_31  and  C_32
REMARK   15  A    between atoms: C_32  and  C_33
REMARK                            x       y       z     vdW  Elec       q    Type
REMARK                         _______ _______ _______ _____ _____    ______ ____
ROOT
ATOM      1  C   UNL     1      -3.697  -7.705   2.021  0.00  0.00    +0.196 C 
ENDROOT
BRANCH   1   2
ATOM      2  C   UNL     1      -2.476  -8.583   2.118  0.00  0.00    +0.018 A 
ATOM      3  C   UNL     1      -1.591  -8.423   3.168  0.00  0.00    +0.048 A 
ATOM      4  C   UNL     1      -0.470  -9.230   3.257  0.00  0.00    +0.020 A 
ATOM      5  C   UNL     1      -0.235 -10.194   2.295  0.00  0.00    +0.003 A 
ATOM      6  C   UNL     1      -1.119 -10.354   1.245  0.00  0.00    +0.020 A 
ATOM      7  C   UNL     1      -2.243  -9.552   1.159  0.00  0.00    +0.048 A 
ATOM      8 CL   UNL     1      -3.358  -9.759  -0.156  0.00  0.00    -0.083 Cl
ATOM      9 CL   UNL     1      -1.885  -7.211   4.376  0.00  0.00    -0.083 Cl
ENDBRANCH   1   2
BRANCH   1  10
ATOM     10  C   UNL     1      -4.655  -8.051   3.132  0.00  0.00    +0.238 C 
ATOM     11  O   UNL     1      -5.465  -7.233   3.511  0.00  0.00    -0.273 OA
ATOM     12  N   UNL     1      -4.610  -9.271   3.704  0.00  0.00    -0.313 N 
ATOM     13  H   UNL     1      -3.962  -9.925   3.401  0.00  0.00    +0.149 HD
BRANCH  12  14
ATOM     14  C   UNL     1      -5.541  -9.608   4.784  0.00  0.00    +0.104 C 
BRANCH  14  15
ATOM     15  C   UNL     1      -5.280 -11.041   5.253  0.00  0.00    +0.018 C 
BRANCH  15  16
ATOM     16  C   UNL     1      -6.253 -11.393   6.380  0.00  0.00    -0.002 C 
ATOM     17  C   UNL     1      -5.992 -12.826   6.849  0.00  0.00    +0.004 C 
ENDBRANCH  15  16
ENDBRANCH  14  15
ENDBRANCH  12  14
ENDBRANCH   1  10
BRANCH   1  20
ATOM     18  C   UNL     1      -2.456  -5.759   1.238  0.00  0.00    +0.240 C 
ATOM     19  O   UNL     1      -2.027  -6.438   0.325  0.00  0.00    -0.271 OA
ATOM     20  N   UNL     1      -3.299  -6.300   2.140  0.00  0.00    -0.275 N 
BRANCH  18  22
ATOM     21  C   UNL     1      -1.225  -3.815   0.467  0.00  0.00    -0.022 C 
ATOM     22  C   UNL     1      -2.057  -4.349   1.357  0.00  0.00    +0.063 C 
BRANCH  21  23
ATOM     23  C   UNL     1      -0.816  -2.370   0.590  0.00  0.00    +0.027 C 
BRANCH  23  24
ATOM     24  C   UNL     1       0.711  -2.274   0.622  0.00  0.00    +0.004 C 
BRANCH  24  25
ATOM     25  C   UNL     1       1.127  -0.807   0.746  0.00  0.00    +0.000 C 
BRANCH  25  27
ATOM     26  C   UNL     1       3.069   0.757   0.903  0.00  0.00    +0.004 C 
ATOM     27  C   UNL     1       2.653  -0.710   0.778  0.00  0.00    -0.003 C 
ENDBRANCH  25  27
ENDBRANCH  24  25
ENDBRANCH  23  24
ENDBRANCH  21  23
ENDBRANCH  18  22
BRANCH  20  28
ATOM     28  C   UNL     1      -3.817  -5.483   3.240  0.00  0.00    +0.183 C 
BRANCH  28  29
ATOM     29  C   UNL     1      -4.955  -4.630   2.740  0.00  0.00    +0.122 A 
ATOM     30  C   UNL     1      -6.263  -4.862   2.952  0.00  0.00    +0.046 A 
ATOM     31  C   UNL     1      -6.972  -3.821   2.309  0.00  0.00    +0.041 A 
ATOM     32  C   UNL     1      -6.055  -3.015   1.744  0.00  0.00    +0.195 A 
ATOM     33  O   UNL     1      -4.834  -3.507   2.013  0.00  0.00    -0.466 OA
ENDBRANCH  28  29
ENDBRANCH  20  28
ENDBRANCH   1  20
TORSDOF 13
