REMARK  Name = ZINC64044440
REMARK  6 active torsions:
REMARK  status: ('A' for Active; 'I' for Inactive)
REMARK    1  A    between atoms: C_1  and  C_2
REMARK    2  A    between atoms: C_5  and  N_9
REMARK    3  A    between atoms: C_7  and  C_8
REMARK    4  A    between atoms: C_10  and  O_34
REMARK    5  A    between atoms: C_13  and  O_33
REMARK    6  A    between atoms: C_14  and  C_18
REMARK                            x       y       z     vdW  Elec       q    Type
REMARK                         _______ _______ _______ _____ _____    ______ ____
ROOT
ATOM      1  N   UNL     1       0.059  -4.170  -0.021  0.00  0.00    -0.225 N 
ATOM      2  C   UNL     1       0.180  -4.874   1.247  0.00  0.00    +0.338 C 
ATOM      3  N   UNL     1      -0.279  -6.250   1.155  0.00  0.00    -0.204 NA
ATOM      4  C   UNL     1      -0.384  -6.900   0.062  0.00  0.00    +0.200 C 
ATOM      5  C   UNL     1      -0.044  -6.308  -1.274  0.00  0.00    +0.179 C 
ATOM      6  C   UNL     1      -0.042  -4.808  -1.194  0.00  0.00    +0.237 C 
ATOM      7  O   UNL     1      -0.128  -4.160  -2.216  0.00  0.00    -0.274 OA
ENDROOT
BRANCH   5   8
ATOM      8  C   UNL     1       1.341  -6.795  -1.706  0.00  0.00    +0.101 C 
ATOM      9  C   UNL     1       1.312  -8.310  -1.918  0.00  0.00    +0.124 C 
ATOM     10  C   UNL     1       2.754  -8.732  -2.175  0.00  0.00    -0.036 C 
ATOM     11  C   UNL     1       2.751  -9.402  -3.319  0.00  0.00    -0.001 A 
ATOM     12  C   UNL     1       3.814 -10.123  -4.038  0.00  0.00    +0.010 A 
ATOM     13  C   UNL     1       3.457 -10.697  -5.218  0.00  0.00    +0.001 A 
ATOM     14  C   UNL     1       2.165 -10.627  -5.748  0.00  0.00    +0.002 A 
ATOM     15  C   UNL     1       1.125  -9.991  -5.152  0.00  0.00    +0.026 A 
ATOM     16  C   UNL     1       1.375  -9.353  -3.902  0.00  0.00    +0.043 A 
ATOM     17  N   UNL     1       0.552  -8.698  -3.106  0.00  0.00    -0.376 N 
ATOM     18  C   UNL     1       3.879  -8.305  -1.264  0.00  0.00    +0.048 C 
ATOM     19  C   UNL     1       3.704  -6.791  -1.046  0.00  0.00    +0.085 C 
ATOM     20  N   UNL     1       2.323  -6.493  -0.653  0.00  0.00    -0.310 NA
ATOM     21  H   UNL     1       2.235  -5.539  -0.338  0.00  0.00    +0.122 HD
ATOM     22  H   UNL     1      -0.383  -8.500  -3.271  0.00  0.00    +0.160 HD
ENDBRANCH   5   8
BRANCH   1  27
ATOM     23  C   UNL     1      -0.017   1.503   0.008  0.00  0.00    +0.044 C 
ATOM     24  C   UNL     1       0.003  -0.004   0.001  0.00  0.00    -0.047 A 
ATOM     25  C   UNL     1       1.203  -0.677  -0.142  0.00  0.00    +0.005 A 
ATOM     26  C   UNL     1       1.224  -2.058  -0.149  0.00  0.00    +0.024 A 
ATOM     27  C   UNL     1       0.040  -2.771  -0.013  0.00  0.00    +0.041 A 
ATOM     28  C   UNL     1      -1.163  -2.091   0.130  0.00  0.00    +0.027 A 
ATOM     29  C   UNL     1      -1.177  -0.710   0.142  0.00  0.00    -0.046 A 
ATOM     30  C   UNL     1      -2.481   0.028   0.303  0.00  0.00    +0.044 C 
ENDBRANCH   1  27
BRANCH   4  31
ATOM     31  O   UNL     1      -0.819  -8.176   0.110  0.00  0.00    -0.495 OA
ATOM     32  H   UNL     1      -1.019  -8.491   1.002  0.00  0.00    +0.293 HD
ENDBRANCH   4  31
BRANCH   2  33
ATOM     33  O   UNL     1       1.551  -4.870   1.651  0.00  0.00    -0.356 OA
ATOM     34  H   UNL     1       1.715  -5.322   2.490  0.00  0.00    +0.214 HD
ENDBRANCH   2  33
TORSDOF 4
