REMARK  Name = ZINC38551047
REMARK  8 active torsions:
REMARK  status: ('A' for Active; 'I' for Inactive)
REMARK    1  A    between atoms: C_1  and  C_2
REMARK    2  A    between atoms: N_8  and  C_9
REMARK    3  A    between atoms: C_9  and  C_11
REMARK    4  A    between atoms: C_9  and  C_19
REMARK    5  A    between atoms: C_15  and  O_17
REMARK    6  A    between atoms: O_17  and  C_18
REMARK    7  A    between atoms: C_23  and  N_24
REMARK    8  A    between atoms: C_25  and  C_27
REMARK                            x       y       z     vdW  Elec       q    Type
REMARK                         _______ _______ _______ _____ _____    ______ ____
ROOT
ATOM      1  C   UNL     1      -0.241  -1.708   3.862  0.00  0.00    +0.135 C 
ENDROOT
BRANCH   1   9
ATOM      2  C   UNL     1      -2.728   1.563   0.800  0.00  0.00    +0.044 C 
ATOM      3  C   UNL     1      -2.412   0.090   0.755  0.00  0.00    -0.046 A 
ATOM      4  C   UNL     1      -2.832  -0.693  -0.312  0.00  0.00    +0.021 A 
ATOM      5  C   UNL     1      -2.526  -2.039  -0.324  0.00  0.00    +0.084 A 
ATOM      6  N   UNL     1      -1.842  -2.587   0.662  0.00  0.00    -0.350 N 
ATOM      7  C   UNL     1      -1.424  -1.874   1.697  0.00  0.00    +0.097 A 
ATOM      8  C   UNL     1      -1.692  -0.510   1.772  0.00  0.00    +0.045 A 
ATOM      9  N   UNL     1      -0.707  -2.491   2.715  0.00  0.00    -0.320 N 
ATOM     10  H   UNL     1      -0.514  -3.441   2.665  0.00  0.00    +0.148 HD
ATOM     11  H   UNL     1      -1.640  -3.535   0.629  0.00  0.00    +0.166 HD
ENDBRANCH   1   9
BRANCH   1  12
ATOM     12  C   UNL     1       0.724  -2.533   4.675  0.00  0.00    +0.009 A 
ATOM     13  C   UNL     1       1.914  -1.966   5.133  0.00  0.00    -0.030 A 
ATOM     14  C   UNL     1       2.733  -2.773   5.859  0.00  0.00    -0.005 A 
ATOM     15  S   UNL     1       1.867  -4.319   5.915  0.00  0.00    -0.078 S 
ATOM     16  C   UNL     1       0.435  -3.829   4.967  0.00  0.00    +0.078 A 
ATOM     17  C   UNL     1       4.055  -2.424   6.462  0.00  0.00    +0.043 C 
ATOM     18  C   UNL     1       4.540  -1.108   5.834  0.00  0.00    +0.005 C 
ATOM     19  C   UNL     1       3.387  -0.100   5.855  0.00  0.00    +0.005 C 
ATOM     20  C   UNL     1       2.308  -0.518   4.854  0.00  0.00    +0.036 C 
BRANCH  16  21
ATOM     21  N   UNL     1      -0.688  -4.581   4.616  0.00  0.00    -0.273 N 
ATOM     22  C   UNL     1      -0.848  -5.824   5.112  0.00  0.00    +0.284 C 
ATOM     23  O   UNL     1      -0.015  -6.290   5.866  0.00  0.00    -0.266 OA
ATOM     24  H   UNL     1      -1.352  -4.209   4.015  0.00  0.00    +0.156 HD
BRANCH  22  25
ATOM     25  C   UNL     1      -2.027  -6.614   4.743  0.00  0.00    +0.189 A 
ATOM     26  C   UNL     1      -2.314  -7.877   5.176  0.00  0.00    +0.054 A 
ATOM     27  C   UNL     1      -3.530  -8.242   4.577  0.00  0.00    +0.042 A 
ATOM     28  C   UNL     1      -3.927  -7.199   3.815  0.00  0.00    +0.196 A 
ATOM     29  O   UNL     1      -3.022  -6.218   3.922  0.00  0.00    -0.458 OA
ENDBRANCH  22  25
ENDBRANCH  16  21
ENDBRANCH   1  12
BRANCH   1  30
ATOM     30  C   UNL     1      -1.420  -1.325   4.720  0.00  0.00    -0.019 A 
ATOM     31  C   UNL     1      -2.530  -2.148   4.777  0.00  0.00    +0.006 A 
ATOM     32  C   UNL     1      -3.612  -1.799   5.562  0.00  0.00    +0.004 A 
ATOM     33  C   UNL     1      -3.588  -0.627   6.293  0.00  0.00    +0.045 A 
ATOM     34  C   UNL     1      -2.476   0.201   6.237  0.00  0.00    +0.120 A 
ATOM     35  C   UNL     1      -1.388  -0.155   5.453  0.00  0.00    +0.051 A 
BRANCH  34  36
ATOM     36  O   UNL     1      -2.450   1.354   6.955  0.00  0.00    -0.495 OA
ATOM     37  C   UNL     1      -3.603   1.653   7.745  0.00  0.00    +0.277 C 
ENDBRANCH  34  36
ENDBRANCH   1  30
TORSDOF 6
