REMARK  Name = ZINC45693220
REMARK  10 active torsions:
REMARK  status: ('A' for Active; 'I' for Inactive)
REMARK    1  A    between atoms: C_1  and  C_2
REMARK    2  A    between atoms: C_2  and  N_3
REMARK    3  A    between atoms: N_3  and  C_4
REMARK    4  A    between atoms: N_3  and  C_6
REMARK    5  A    between atoms: C_4  and  C_5
REMARK    6  A    between atoms: C_6  and  C_7
REMARK    7  A    between atoms: C_10  and  C_13
REMARK    8  A    between atoms: C_13  and  N_14
REMARK    9  A    between atoms: N_17  and  C_18
REMARK   10  A    between atoms: C_22  and  C_24
REMARK                            x       y       z     vdW  Elec       q    Type
REMARK                         _______ _______ _______ _____ _____    ______ ____
ROOT
ATOM      1  N   UNL     1       1.861  -1.613   5.774  0.00  0.00    -0.295 N 
ATOM      2  C   UNL     1       2.541  -1.630   6.938  0.00  0.00    +0.304 C 
ATOM      3  O   UNL     1       2.705  -2.679   7.531  0.00  0.00    -0.252 OA
ATOM      4  N   UNL     1       3.037  -0.485   7.446  0.00  0.00    -0.269 N 
ATOM      5  H   UNL     1       1.730  -0.776   5.301  0.00  0.00    +0.151 HD
ATOM      6  H   UNL     1       2.843   0.362   7.013  0.00  0.00    +0.156 HD
ENDROOT
BRANCH   4   7
ATOM      7  C   UNL     1       3.835  -0.516   8.597  0.00  0.00    +0.036 A 
ATOM      8  C   UNL     1       4.694  -1.587   8.817  0.00  0.00    +0.026 A 
ATOM      9  C   UNL     1       5.484  -1.624   9.950  0.00  0.00    +0.041 A 
ATOM     10  C   UNL     1       5.424  -0.597  10.874  0.00  0.00    +0.136 A 
ATOM     11  C   UNL     1       4.562   0.484  10.661  0.00  0.00    +0.073 A 
ATOM     12  C   UNL     1       3.770   0.521   9.511  0.00  0.00    +0.039 A 
ATOM     13  F   UNL     1       6.197  -0.637  11.981  0.00  0.00    -0.205 F 
BRANCH  11  14
ATOM     14  C   UNL     1       4.495   1.584  11.644  0.00  0.00    +0.244 C 
ATOM     15  O   UNL     1       5.189   1.551  12.642  0.00  0.00    -0.270 OA
ATOM     16  N   UNL     1       3.663   2.624  11.436  0.00  0.00    -0.325 N 
ATOM     17  H   UNL     1       3.109   2.650  10.640  0.00  0.00    +0.145 HD
ATOM     18  H   UNL     1       3.619   3.346  12.082  0.00  0.00    +0.145 HD
ENDBRANCH  11  14
ENDBRANCH   4   7
BRANCH   1  19
ATOM     19  C   UNL     1       1.321  -2.858   5.223  0.00  0.00    +0.141 C 
BRANCH  19  23
ATOM     20  C   UNL     1      -0.690  -2.035   1.545  0.00  0.00    -0.064 A 
ATOM     21  C   UNL     1       0.657  -2.346   1.542  0.00  0.00    +0.002 A 
ATOM     22  C   UNL     1       1.308  -2.612   2.732  0.00  0.00    +0.005 A 
ATOM     23  C   UNL     1       0.612  -2.567   3.926  0.00  0.00    -0.030 A 
ATOM     24  C   UNL     1      -0.735  -2.256   3.929  0.00  0.00    +0.005 A 
ATOM     25  C   UNL     1      -1.385  -1.986   2.739  0.00  0.00    +0.002 A 
BRANCH  20  26
ATOM     26  C   UNL     1      -1.400  -1.745   0.248  0.00  0.00    -0.043 C 
BRANCH  26  27
ATOM     27  N   UNL     1      -1.315  -0.309  -0.046  0.00  0.00    +0.382 N 
ATOM     28  H   UNL     1      -1.676   0.216   0.736  0.00  0.00    -0.081 HD
BRANCH  27  30
ATOM     29  C   UNL     1       0.193   1.579  -0.446  0.00  0.00    -0.017 C 
ATOM     30  C   UNL     1       0.087   0.062  -0.279  0.00  0.00    -0.082 C 
ENDBRANCH  27  30
BRANCH  27  31
ATOM     31  C   UNL     1      -2.107  -0.007  -1.246  0.00  0.00    -0.082 C 
ATOM     32  C   UNL     1      -3.588  -0.257  -0.956  0.00  0.00    -0.017 C 
ENDBRANCH  27  31
ENDBRANCH  26  27
ENDBRANCH  20  26
ENDBRANCH  19  23
ENDBRANCH   1  19
TORSDOF 8
