REMARK  Name = ZINC11538395
REMARK  13 active torsions:
REMARK  status: ('A' for Active; 'I' for Inactive)
REMARK    1  A    between atoms: C_1  and  C_2
REMARK    2  A    between atoms: C_2  and  C_3
REMARK    3  A    between atoms: C_3  and  C_4
REMARK    4  A    between atoms: C_7  and  C_10
REMARK    5  A    between atoms: C_10  and  C_33
REMARK    6  A    between atoms: N_13  and  C_17
REMARK    7  A    between atoms: C_17  and  C_18
REMARK    8  A    between atoms: C_18  and  C_20
REMARK    9  A    between atoms: C_21  and  N_32
REMARK   10  A    between atoms: N_22  and  C_29
REMARK   11  A    between atoms: N_25  and  C_28
REMARK   12  A    between atoms: C_29  and  C_30
REMARK   13  A    between atoms: C_30  and  C_31
REMARK                            x       y       z     vdW  Elec       q    Type
REMARK                         _______ _______ _______ _____ _____    ______ ____
ROOT
ATOM      1  C   UNL     1      -4.441  -2.984   6.500  0.00  0.00    +0.135 C 
ATOM      2  C   UNL     1      -4.278  -2.253   5.183  0.00  0.00    +0.251 C 
ATOM      3  O   UNL     1      -5.146  -1.994   4.377  0.00  0.00    -0.272 OA
ATOM      4  N   UNL     1      -2.968  -1.950   5.094  0.00  0.00    -0.216 N 
ATOM      5  C   UNL     1      -2.287  -2.389   6.159  0.00  0.00    +0.310 C 
ATOM      6  O   UNL     1      -1.090  -2.238   6.303  0.00  0.00    -0.252 OA
ATOM      7  N   UNL     1      -3.076  -3.011   7.053  0.00  0.00    -0.281 N 
ATOM      8  C   UNL     1      -4.956  -4.406   6.267  0.00  0.00    +0.047 C 
ATOM      9  H   UNL     1      -2.800  -3.404   7.895  0.00  0.00    +0.152 HD
ENDROOT
BRANCH   1  13
ATOM     10  C   UNL     1      -7.070  -0.837   9.095  0.00  0.00    -0.047 A 
ATOM     11  C   UNL     1      -6.058  -1.615   9.626  0.00  0.00    +0.004 A 
ATOM     12  C   UNL     1      -5.207  -2.310   8.786  0.00  0.00    +0.006 A 
ATOM     13  C   UNL     1      -5.369  -2.227   7.415  0.00  0.00    -0.015 A 
ATOM     14  C   UNL     1      -6.378  -1.445   6.885  0.00  0.00    +0.006 A 
ATOM     15  C   UNL     1      -7.231  -0.754   7.724  0.00  0.00    +0.004 A 
BRANCH  10  16
ATOM     16  C   UNL     1      -7.997  -0.080  10.010  0.00  0.00    +0.035 C 
BRANCH  16  18
ATOM     17  C   UNL     1      -8.362   2.079  11.213  0.00  0.00    +0.004 C 
ATOM     18  C   UNL     1      -7.420   1.310  10.284  0.00  0.00    +0.001 C 
ENDBRANCH  16  18
ENDBRANCH  10  16
ENDBRANCH   1  13
BRANCH   4  19
ATOM     19  C   UNL     1      -2.363  -1.235   3.967  0.00  0.00    +0.197 C 
BRANCH  19  20
ATOM     20  C   UNL     1      -2.397   0.247   4.236  0.00  0.00    +0.189 C 
ATOM     21  O   UNL     1      -2.880   0.666   5.269  0.00  0.00    -0.290 OA
BRANCH  20  22
ATOM     22  C   UNL     1      -1.868   1.149   3.288  0.00  0.00    +0.121 A 
ATOM     23  C   UNL     1      -1.997   2.538   3.458  0.00  0.00    +0.116 A 
ATOM     24  N   UNL     1      -1.468   3.371   2.514  0.00  0.00    -0.281 N 
ATOM     25  C   UNL     1      -0.829   2.888   1.437  0.00  0.00    +0.333 A 
ATOM     26  O   UNL     1      -0.373   3.671   0.627  0.00  0.00    -0.246 OA
ATOM     27  N   UNL     1      -0.680   1.571   1.218  0.00  0.00    -0.263 N 
ATOM     28  C   UNL     1      -1.166   0.666   2.092  0.00  0.00    +0.269 A 
ATOM     29  O   UNL     1      -1.025  -0.527   1.894  0.00  0.00    -0.267 OA
ATOM     30  C   UNL     1       0.024   1.113   0.019  0.00  0.00    +0.157 C 
BRANCH  23  31
ATOM     31  N   UNL     1      -2.637   3.045   4.547  0.00  0.00    -0.344 N 
ATOM     32  H   UNL     1      -2.428   3.939   4.859  0.00  0.00    +0.144 HD
ATOM     33  H   UNL     1      -3.302   2.513   5.010  0.00  0.00    +0.144 HD
ENDBRANCH  23  31
BRANCH  24  34
ATOM     34  C   UNL     1      -1.597   4.821   2.682  0.00  0.00    +0.128 C 
BRANCH  34  35
ATOM     35  C   UNL     1      -0.394   5.353   3.462  0.00  0.00    +0.018 C 
ATOM     36  C   UNL     1      -0.528   6.867   3.638  0.00  0.00    +0.005 C 
ENDBRANCH  34  35
ENDBRANCH  24  34
ENDBRANCH  20  22
ENDBRANCH  19  20
ENDBRANCH   4  19
TORSDOF 9
