REMARK  Name = ZINC12701894
REMARK  9 active torsions:
REMARK  status: ('A' for Active; 'I' for Inactive)
REMARK    1  A    between atoms: C_1  and  C_2
REMARK    2  A    between atoms: C_5  and  C_8
REMARK    3  A    between atoms: C_8  and  C_10
REMARK    4  A    between atoms: C_8  and  N_18
REMARK    5  A    between atoms: N_12  and  C_13
REMARK    6  A    between atoms: N_18  and  C_19
REMARK    7  A    between atoms: C_24  and  C_26
REMARK    8  A    between atoms: C_27  and  N_34
REMARK    9  A    between atoms: C_28  and  C_31
REMARK                            x       y       z     vdW  Elec       q    Type
REMARK                         _______ _______ _______ _____ _____    ______ ____
ROOT
ATOM      1  N   UNL     1       2.235   4.388   0.174  0.00  0.00    -0.278 N 
ATOM      2  C   UNL     1       2.554   4.973   1.346  0.00  0.00    +0.258 C 
ATOM      3  O   UNL     1       1.773   4.935   2.278  0.00  0.00    -0.269 OA
ENDROOT
BRANCH   1   4
ATOM      4  C   UNL     1       3.166   4.454  -0.955  0.00  0.00    +0.077 C 
ATOM      5  C   UNL     1       2.513   3.847  -2.214  0.00  0.00    +0.022 C 
ATOM      6  C   UNL     1       3.675   3.110  -2.926  0.00  0.00    +0.002 C 
ATOM      7  C   UNL     1       4.480   2.516  -1.744  0.00  0.00    +0.002 C 
ATOM      8  C   UNL     1       4.416   3.608  -0.656  0.00  0.00    +0.022 C 
ENDBRANCH   1   4
BRANCH   2   9
ATOM      9  C   UNL     1       3.842   5.653   1.498  0.00  0.00    +0.115 A 
ATOM     10  C   UNL     1       4.435   6.180   2.647  0.00  0.00    +0.076 A 
ATOM     11  C   UNL     1       5.679   6.756   2.390  0.00  0.00    +0.155 A 
ATOM     12  N   UNL     1       6.149   6.750   1.162  0.00  0.00    -0.203 NA
ATOM     13  S   UNL     1       5.075   6.023   0.267  0.00  0.00    +0.019 S 
BRANCH  11  14
ATOM     14  C   UNL     1       6.458   7.365   3.483  0.00  0.00    +0.262 C 
ATOM     15  O   UNL     1       6.017   7.367   4.616  0.00  0.00    -0.269 OA
ATOM     16  N   UNL     1       7.659   7.920   3.227  0.00  0.00    -0.324 N 
ATOM     17  H   UNL     1       8.011   7.919   2.323  0.00  0.00    +0.145 HD
ATOM     18  H   UNL     1       8.172   8.321   3.946  0.00  0.00    +0.145 HD
ENDBRANCH  11  14
BRANCH  10  19
ATOM     19  N   UNL     1       3.851   6.135   3.905  0.00  0.00    -0.355 N 
ATOM     20  H   UNL     1       2.982   5.720   4.023  0.00  0.00    +0.142 HD
ATOM     21  H   UNL     1       4.312   6.518   4.668  0.00  0.00    +0.142 HD
ENDBRANCH  10  19
ENDBRANCH   2   9
BRANCH   1  22
ATOM     22  C   UNL     1       0.956   3.688   0.030  0.00  0.00    +0.193 C 
BRANCH  22  27
ATOM     23  C   UNL     1      -1.905   5.818  -4.517  0.00  0.00    +0.044 C 
ATOM     24  C   UNL     1      -1.158   5.262  -3.332  0.00  0.00    -0.050 A 
ATOM     25  C   UNL     1      -0.999   3.896  -3.193  0.00  0.00    +0.004 A 
ATOM     26  C   UNL     1      -0.315   3.387  -2.105  0.00  0.00    +0.006 A 
ATOM     27  C   UNL     1       0.210   4.244  -1.156  0.00  0.00    -0.018 A 
ATOM     28  C   UNL     1       0.047   5.610  -1.292  0.00  0.00    +0.006 A 
ATOM     29  C   UNL     1      -0.633   6.119  -2.382  0.00  0.00    +0.004 A 
ENDBRANCH  22  27
BRANCH  22  30
ATOM     30  C   UNL     1       1.209   2.218  -0.180  0.00  0.00    +0.238 C 
ATOM     31  O   UNL     1       2.346   1.796  -0.206  0.00  0.00    -0.273 OA
ATOM     32  N   UNL     1       0.173   1.371  -0.338  0.00  0.00    -0.311 N 
ATOM     33  H   UNL     1      -0.736   1.709  -0.321  0.00  0.00    +0.149 HD
BRANCH  32  34
ATOM     34  C   UNL     1       0.419  -0.059  -0.542  0.00  0.00    +0.073 C 
ATOM     35  C   UNL     1       0.608  -0.353  -2.045  0.00  0.00    +0.022 C 
ATOM     36  C   UNL     1      -0.076  -1.728  -2.251  0.00  0.00    +0.002 C 
ATOM     37  C   UNL     1      -1.313  -1.637  -1.324  0.00  0.00    +0.002 C 
ATOM     38  C   UNL     1      -0.802  -0.875  -0.084  0.00  0.00    +0.022 C 
ENDBRANCH  32  34
ENDBRANCH  22  30
ENDBRANCH   1  22
TORSDOF 8
