REMARK  Name = ZINC53647978
REMARK  4 active torsions:
REMARK  status: ('A' for Active; 'I' for Inactive)
REMARK    1  A    between atoms: C_1  and  C_2
REMARK    2  A    between atoms: C_6  and  N_8
REMARK    3  A    between atoms: C_10  and  C_13
REMARK    4  A    between atoms: C_13  and  C_15
REMARK                            x       y       z     vdW  Elec       q    Type
REMARK                         _______ _______ _______ _____ _____    ______ ____
ROOT
ATOM      1  N   UNL     1       0.051  -2.797   2.398  0.00  0.00    -0.217 N 
ATOM      2  C   UNL     1       0.076  -4.138   2.543  0.00  0.00    +0.148 A 
ATOM      3  C   UNL     1       0.083  -4.389   3.900  0.00  0.00    +0.157 A 
ATOM      4  N   UNL     1       0.064  -3.207   4.545  0.00  0.00    -0.126 NA
ATOM      5  N   UNL     1       0.051  -2.247   3.687  0.00  0.00    -0.060 NA
ENDROOT
BRANCH   1  11
ATOM      6  C   UNL     1      -0.018   1.503   0.010  0.00  0.00    +0.044 C 
ATOM      7  C   UNL     1       0.002  -0.004   0.002  0.00  0.00    -0.048 A 
ATOM      8  C   UNL     1       0.006  -0.688  -1.200  0.00  0.00    +0.006 A 
ATOM      9  C   UNL     1       0.024  -2.070  -1.213  0.00  0.00    +0.041 A 
ATOM     10  C   UNL     1       0.040  -2.773  -0.022  0.00  0.00    +0.149 A 
ATOM     11  C   UNL     1       0.036  -2.088   1.188  0.00  0.00    +0.102 A 
ATOM     12  C   UNL     1       0.023  -0.700   1.195  0.00  0.00    +0.034 A 
ATOM     13  F   UNL     1       0.057  -4.124  -0.034  0.00  0.00    -0.203 F 
ENDBRANCH   1  11
BRANCH   3  14
ATOM     14  C   UNL     1       0.108  -5.713   4.531  0.00  0.00    +0.287 C 
ATOM     15  O   UNL     1       0.124  -6.713   3.844  0.00  0.00    -0.281 OA
BRANCH  14  16
ATOM     16  C   UNL     1       0.114  -5.832   6.034  0.00  0.00    +0.457 C 
ATOM     17  F   UNL     1       0.138  -7.184   6.394  0.00  0.00    -0.163 F 
ATOM     18  F   UNL     1       1.246  -5.192   6.548  0.00  0.00    -0.163 F 
ATOM     19  F   UNL     1      -1.038  -5.232   6.553  0.00  0.00    -0.163 F 
ENDBRANCH  14  16
ENDBRANCH   3  14
TORSDOF 3
