REMARK  Name = ZINC35402650
REMARK  6 active torsions:
REMARK  status: ('A' for Active; 'I' for Inactive)
REMARK    1  A    between atoms: C_6  and  C_7
REMARK    2  A    between atoms: N_14  and  C_19
REMARK    3  A    between atoms: C_19  and  C_20
REMARK    4  A    between atoms: N_22  and  C_23
REMARK    5  A    between atoms: C_23  and  C_24
REMARK    6  A    between atoms: C_24  and  C_25
REMARK                            x       y       z     vdW  Elec       q    Type
REMARK                         _______ _______ _______ _____ _____    ______ ____
ROOT
ATOM      1  C   UNL     1       0.397   1.460  -0.644  0.00  0.00    +0.014 A 
ATOM      2  C   UNL     1       1.578   2.135  -0.426  0.00  0.00    +0.017 A 
ATOM      3  C   UNL     1       2.749   1.428  -0.185  0.00  0.00    +0.030 A 
ATOM      4  C   UNL     1       2.748   0.029  -0.163  0.00  0.00    +0.051 A 
ATOM      5  C   UNL     1       1.559  -0.648  -0.380  0.00  0.00    +0.037 A 
ATOM      6  C   UNL     1       0.381   0.063  -0.621  0.00  0.00    +0.039 A 
ATOM      7  N   UNL     1       3.915  -0.696   0.068  0.00  0.00    -0.261 N 
ATOM      8  C   UNL     1       5.013  -0.249   0.671  0.00  0.00    +0.230 C 
ATOM      9  O   UNL     1       5.945  -1.014   0.803  0.00  0.00    -0.274 OA
ATOM     10  C   UNL     1       5.163   1.152   1.197  0.00  0.00    +0.170 C 
ATOM     11  S   UNL     1       4.263   2.289   0.100  0.00  0.00    -0.114 S 
ENDROOT
BRANCH   6  12
ATOM     12  C   UNL     1      -0.882  -0.663  -0.852  0.00  0.00    +0.247 C 
ATOM     13  O   UNL     1      -0.874  -1.872  -0.980  0.00  0.00    -0.270 OA
ATOM     14  N   UNL     1      -2.045   0.015  -0.922  0.00  0.00    -0.298 N 
ATOM     15  C   UNL     1      -2.187   1.478  -0.901  0.00  0.00    +0.108 C 
ATOM     16  C   UNL     1      -3.696   1.793  -0.978  0.00  0.00    +0.020 C 
ATOM     17  C   UNL     1      -4.351   0.482  -0.467  0.00  0.00    +0.020 C 
ATOM     18  C   UNL     1      -3.385  -0.589  -1.038  0.00  0.00    +0.108 C 
ENDBRANCH   6  12
BRANCH   7  19
ATOM     19  C   UNL     1       3.934  -2.084  -0.399  0.00  0.00    +0.209 C 
BRANCH  19  20
ATOM     20  C   UNL     1       3.533  -2.999   0.729  0.00  0.00    +0.231 C 
ATOM     21  O   UNL     1       3.257  -2.537   1.816  0.00  0.00    -0.274 OA
ATOM     22  N   UNL     1       3.479  -4.331   0.530  0.00  0.00    -0.314 N 
ATOM     23  H   UNL     1       3.700  -4.701  -0.339  0.00  0.00    +0.149 HD
BRANCH  22  24
ATOM     24  C   UNL     1       3.089  -5.221   1.627  0.00  0.00    +0.108 C 
BRANCH  24  25
ATOM     25  C   UNL     1       3.109  -6.671   1.139  0.00  0.00    +0.049 C 
BRANCH  25  26
ATOM     26  C   UNL     1       2.708  -7.586   2.267  0.00  0.00    -0.072 C 
ATOM     27  C   UNL     1       1.467  -7.947   2.343  0.00  0.00    -0.028 C 
ATOM     28  C   UNL     1       0.916  -8.843   3.413  0.00  0.00    +0.027 C 
ATOM     29  C   UNL     1       2.054  -9.589   4.113  0.00  0.00    +0.004 C 
ATOM     30  C   UNL     1       3.131  -8.570   4.509  0.00  0.00    +0.005 C 
ATOM     31  C   UNL     1       3.772  -8.027   3.229  0.00  0.00    +0.030 C 
ENDBRANCH  25  26
ENDBRANCH  24  25
ENDBRANCH  22  24
ENDBRANCH  19  20
ENDBRANCH   7  19
TORSDOF 6
