REMARK  Name = ZINC20922724
REMARK  8 active torsions:
REMARK  status: ('A' for Active; 'I' for Inactive)
REMARK    1  A    between atoms: C_3  and  C_21
REMARK    2  A    between atoms: C_5  and  N_7
REMARK    3  A    between atoms: C_8  and  C_10
REMARK    4  A    between atoms: C_10  and  C_11
REMARK    5  A    between atoms: C_11  and  S_12
REMARK    6  A    between atoms: S_12  and  C_13
REMARK    7  A    between atoms: N_17  and  N_18
REMARK    8  A    between atoms: N_19  and  N_20
REMARK                            x       y       z     vdW  Elec       q    Type
REMARK                         _______ _______ _______ _____ _____    ______ ____
ROOT
ATOM      1  C   UNL     1       0.260   3.691   7.020  0.00  0.00    +0.107 C 
ENDROOT
BRANCH   1   3
ATOM      2  N   UNL     1       0.072   2.800   4.720  0.00  0.00    -0.285 N 
ATOM      3  C   UNL     1      -0.542   3.330   5.797  0.00  0.00    +0.218 C 
ATOM      4  O   UNL     1      -1.740   3.517   5.781  0.00  0.00    -0.275 OA
ATOM      5  H   UNL     1       1.144   2.560   4.761  0.00  0.00    +0.155 HD
BRANCH   2  10
ATOM      6  C   UNL     1      -2.696   1.905   2.471  0.00  0.00    +0.002 A 
ATOM      7  C   UNL     1      -2.095   2.076   1.236  0.00  0.00    +0.012 A 
ATOM      8  C   UNL     1      -0.775   2.478   1.157  0.00  0.00    +0.057 A 
ATOM      9  C   UNL     1      -0.054   2.721   2.310  0.00  0.00    +0.035 A 
ATOM     10  C   UNL     1      -0.656   2.555   3.550  0.00  0.00    +0.034 A 
ATOM     11  C   UNL     1      -1.981   2.146   3.627  0.00  0.00    +0.023 A 
BRANCH   8  12
ATOM     12  C   UNL     1      -0.123   2.659  -0.190  0.00  0.00    +0.417 C 
ATOM     13  F   UNL     1       0.469   1.455  -0.587  0.00  0.00    -0.166 F 
ATOM     14  F   UNL     1       0.856   3.654  -0.105  0.00  0.00    -0.166 F 
ATOM     15  F   UNL     1      -1.090   3.034  -1.130  0.00  0.00    -0.166 F 
ENDBRANCH   8  12
ENDBRANCH   2  10
ENDBRANCH   1   3
BRANCH   1  16
ATOM     16  C   UNL     1      -0.670   4.269   8.088  0.00  0.00    +0.086 C 
BRANCH  16  17
ATOM     17  S   UNL     1       0.296   4.703   9.561  0.00  0.00    -0.084 S 
BRANCH  17  18
ATOM     18  C   UNL     1      -0.902   5.346  10.682  0.00  0.00    +0.210 A 
ATOM     19  N   UNL     1      -2.187   5.466  10.452  0.00  0.00    -0.119 NA
ATOM     20  N   UNL     1      -2.782   6.015  11.595  0.00  0.00    -0.110 NA
ATOM     21  C   UNL     1      -1.840   6.219  12.484  0.00  0.00    +0.248 A 
ATOM     22  N   UNL     1      -0.654   5.811  11.943  0.00  0.00    -0.211 N 
ATOM     23  N   UNL     1      -2.018   6.756  13.752  0.00  0.00    -0.251 N 
ATOM     24  H   UNL     1      -1.154   6.884  14.421  0.00  0.00    +0.169 HD
BRANCH  22  25
ATOM     25  N   UNL     1       0.566   5.859  12.556  0.00  0.00    -0.294 N 
ATOM     26  H   UNL     1       0.653   6.255  13.579  0.00  0.00    +0.163 HD
ATOM     27  H   UNL     1       1.462   5.502  12.026  0.00  0.00    +0.163 HD
ENDBRANCH  22  25
BRANCH  23  28
ATOM     28  N   UNL     1      -3.265   7.125  14.170  0.00  0.00    -0.254 NA
ATOM     29  H   UNL     1      -3.206   7.525  15.193  0.00  0.00    +0.140 HD
ATOM     30  H   UNL     1      -3.664   7.897  13.496  0.00  0.00    +0.140 HD
ENDBRANCH  23  28
ENDBRANCH  17  18
ENDBRANCH  16  17
ENDBRANCH   1  16
TORSDOF 8
