REMARK  Name = ZINC25496842
REMARK  2 active torsions:
REMARK  status: ('A' for Active; 'I' for Inactive)
REMARK    1  A    between atoms: C_2  and  C_9
REMARK    2  A    between atoms: N_14  and  C_17
REMARK                            x       y       z     vdW  Elec       q    Type
REMARK                         _______ _______ _______ _____ _____    ______ ____
ROOT
ATOM      1  C   UNL     1       1.774   2.932  -0.900  0.00  0.00    +0.247 C 
ATOM      2  O   UNL     1       2.455   3.743  -0.303  0.00  0.00    -0.270 OA
ATOM      3  N   UNL     1       1.861   1.623  -0.593  0.00  0.00    -0.295 N 
ATOM      4  C   UNL     1       0.987   0.635  -1.244  0.00  0.00    +0.127 C 
ATOM      5  C   UNL     1       1.860  -0.498  -1.795  0.00  0.00    +0.124 C 
ATOM      6  N   UNL     1       2.703  -1.030  -0.716  0.00  0.00    -0.324 N 
ATOM      7  C   UNL     1       3.631  -0.009  -0.212  0.00  0.00    +0.124 C 
ATOM      8  C   UNL     1       2.831   1.144   0.403  0.00  0.00    +0.127 C 
ENDROOT
BRANCH   6   9
ATOM      9  C   UNL     1       3.387  -2.160  -1.133  0.00  0.00    +0.074 A 
ATOM     10  C   UNL     1       4.279  -2.091  -2.223  0.00  0.00    +0.157 A 
ATOM     11  N   UNL     1       4.925  -3.153  -2.617  0.00  0.00    -0.177 NA
ATOM     12  N   UNL     1       4.751  -4.382  -1.973  0.00  0.00    -0.242 N 
ATOM     13  H   UNL     1       5.304  -5.268  -2.319  0.00  0.00    +0.192 HD
ATOM     14  C   UNL     1       3.908  -4.495  -0.927  0.00  0.00    +0.285 A 
ATOM     15  O   UNL     1       3.761  -5.571  -0.369  0.00  0.00    -0.265 OA
ATOM     16  C   UNL     1       3.205  -3.366  -0.480  0.00  0.00    +0.129 A 
ATOM     17 CL   UNL     1       2.120  -3.482   0.870  0.00  0.00    -0.076 Cl
ENDBRANCH   6   9
BRANCH   1  19
ATOM     18  C   UNL     1       1.298   4.253  -2.958  0.00  0.00    +0.033 A 
ATOM     19  C   UNL     1       0.850   3.383  -1.963  0.00  0.00    +0.040 A 
ATOM     20  C   UNL     1      -0.471   2.934  -1.979  0.00  0.00    +0.033 A 
ATOM     21  C   UNL     1      -1.331   3.362  -2.971  0.00  0.00    +0.043 A 
ATOM     22  C   UNL     1      -0.881   4.227  -3.955  0.00  0.00    +0.040 A 
ATOM     23  C   UNL     1       0.430   4.671  -3.948  0.00  0.00    +0.043 A 
ATOM     24 CL   UNL     1       0.985   5.754  -5.185  0.00  0.00    -0.083 Cl
ATOM     25 CL   UNL     1      -2.977   2.810  -2.990  0.00  0.00    -0.083 Cl
ENDBRANCH   1  19
TORSDOF 2
