REMARK  Name = ZINC63362484
REMARK  8 active torsions:
REMARK  status: ('A' for Active; 'I' for Inactive)
REMARK    1  A    between atoms: C_1  and  C_2
REMARK    2  A    between atoms: C_2  and  C_3
REMARK    3  A    between atoms: C_6  and  N_9
REMARK    4  A    between atoms: C_10  and  C_12
REMARK    5  A    between atoms: C_15  and  N_18
REMARK    6  A    between atoms: C_21  and  C_39
REMARK    7  A    between atoms: C_27  and  O_32
REMARK    8  A    between atoms: O_32  and  C_33
REMARK                            x       y       z     vdW  Elec       q    Type
REMARK                         _______ _______ _______ _____ _____    ______ ____
ROOT
ATOM      1  N   UNL     1       4.896  -3.500  10.433  0.00  0.00    -0.192 N 
ATOM      2  C   UNL     1       4.309  -3.777  11.615  0.00  0.00    +0.253 C 
ATOM      3  O   UNL     1       3.125  -3.731  11.872  0.00  0.00    -0.272 OA
ATOM      4  C   UNL     1       5.433  -4.157  12.553  0.00  0.00    +0.137 C 
ATOM      5  C   UNL     1       5.498  -3.170  13.725  0.00  0.00    +0.139 C 
ATOM      6  C   UNL     1       6.910  -3.266  14.291  0.00  0.00    -0.034 C 
ATOM      7  C   UNL     1       6.777  -3.589  15.573  0.00  0.00    +0.003 A 
ATOM      8  C   UNL     1       7.766  -3.765  16.647  0.00  0.00    +0.055 A 
ATOM      9  C   UNL     1       7.283  -4.117  17.871  0.00  0.00    +0.121 A 
ATOM     10  C   UNL     1       5.923  -4.314  18.149  0.00  0.00    +0.047 A 
ATOM     11  C   UNL     1       4.928  -4.173  17.236  0.00  0.00    +0.029 A 
ATOM     12  C   UNL     1       5.326  -3.790  15.875  0.00  0.00    +0.043 A 
ATOM     13  N   UNL     1       4.596  -3.568  14.809  0.00  0.00    -0.375 N 
ATOM     14  C   UNL     1       8.152  -3.080  13.454  0.00  0.00    +0.052 C 
ATOM     15  C   UNL     1       8.022  -4.014  12.234  0.00  0.00    +0.115 C 
ATOM     16  N   UNL     1       6.646  -3.932  11.736  0.00  0.00    -0.268 N 
ATOM     17  C   UNL     1       6.228  -3.623  10.502  0.00  0.00    +0.316 C 
ATOM     18  O   UNL     1       6.973  -3.467   9.553  0.00  0.00    -0.252 OA
ATOM     19  C   UNL     1       5.319  -5.608  13.024  0.00  0.00    +0.044 C 
ATOM     20  H   UNL     1       3.632  -3.652  14.742  0.00  0.00    +0.160 HD
ENDROOT
BRANCH   1  24
ATOM     21  C   UNL     1       2.820  -2.417   6.984  0.00  0.00    +0.037 A 
ATOM     22  C   UNL     1       4.198  -2.642   6.930  0.00  0.00    +0.015 A 
ATOM     23  C   UNL     1       4.880  -2.999   8.071  0.00  0.00    +0.025 A 
ATOM     24  C   UNL     1       4.200  -3.137   9.276  0.00  0.00    +0.045 A 
ATOM     25  C   UNL     1       2.828  -2.914   9.333  0.00  0.00    +0.025 A 
ATOM     26  C   UNL     1       2.140  -2.551   8.197  0.00  0.00    +0.015 A 
BRANCH  21  28
ATOM     27  N   UNL     1       2.742  -1.905   4.593  0.00  0.00    -0.282 N 
ATOM     28  C   UNL     1       2.085  -2.034   5.762  0.00  0.00    +0.248 C 
ATOM     29  O   UNL     1       0.886  -1.834   5.812  0.00  0.00    -0.270 OA
ATOM     30  H   UNL     1       3.682  -2.139   4.536  0.00  0.00    +0.155 HD
BRANCH  27  34
ATOM     31  C   UNL     1       0.736  -0.507   1.220  0.00  0.00    -0.048 A 
ATOM     32  C   UNL     1       1.749  -1.438   1.084  0.00  0.00    +0.005 A 
ATOM     33  C   UNL     1       2.416  -1.904   2.200  0.00  0.00    +0.023 A 
ATOM     34  C   UNL     1       2.069  -1.436   3.460  0.00  0.00    +0.034 A 
ATOM     35  C   UNL     1       1.051  -0.500   3.594  0.00  0.00    +0.023 A 
ATOM     36  C   UNL     1       0.392  -0.034   2.474  0.00  0.00    +0.005 A 
BRANCH  31  38
ATOM     37  C   UNL     1       0.731   1.232  -0.547  0.00  0.00    +0.009 C 
ATOM     38  C   UNL     1       0.010  -0.001   0.000  0.00  0.00    +0.032 C 
ENDBRANCH  31  38
ENDBRANCH  27  34
ENDBRANCH  21  28
ENDBRANCH   1  24
BRANCH   9  39
ATOM     39  O   UNL     1       8.173  -4.288  18.884  0.00  0.00    -0.495 OA
ATOM     40  C   UNL     1       7.643  -4.657  20.158  0.00  0.00    +0.277 C 
ENDBRANCH   9  39
TORSDOF 5
