REMARK  Name = ZINC01512732
REMARK  2 active torsions:
REMARK  status: ('A' for Active; 'I' for Inactive)
REMARK    1  A    between atoms: C_14  and  N_31
REMARK    2  A    between atoms: N_21  and  C_24
REMARK                            x       y       z     vdW  Elec       q    Type
REMARK                         _______ _______ _______ _____ _____    ______ ____
ROOT
ATOM      1  C   UNL     1       0.451  -0.302   0.155  0.00  0.00    +0.000 A 
ATOM      2  C   UNL     1      -0.629   0.544  -0.018  0.00  0.00    +0.000 A 
ATOM      3  C   UNL     1      -0.437   1.914  -0.136  0.00  0.00    +0.007 A 
ATOM      4  C   UNL     1       0.835   2.408  -0.079  0.00  0.00    -0.006 A 
ATOM      5  C   UNL     1       1.923   1.556   0.095  0.00  0.00    -0.033 A 
ATOM      6  C   UNL     1       1.742   0.207   0.213  0.00  0.00    +0.004 A 
ATOM      7  C   UNL     1       3.271   2.258   0.139  0.00  0.00    +0.062 C 
ATOM      8  C   UNL     1       3.133   3.325   1.212  0.00  0.00    -0.033 A 
ATOM      9  C   UNL     1       3.978   3.478   2.274  0.00  0.00    +0.004 A 
ATOM     10  C   UNL     1       3.733   4.499   3.183  0.00  0.00    +0.000 A 
ATOM     11  C   UNL     1       2.652   5.344   3.012  0.00  0.00    +0.000 A 
ATOM     12  C   UNL     1       1.797   5.184   1.930  0.00  0.00    +0.007 A 
ATOM     13  C   UNL     1       2.044   4.178   1.040  0.00  0.00    -0.006 A 
ATOM     14  C   UNL     1       1.201   3.879  -0.190  0.00  0.00    +0.183 C 
ATOM     15  C   UNL     1       2.173   3.970  -1.387  0.00  0.00    +0.130 C 
ATOM     16  C   UNL     1       3.376   3.029  -1.196  0.00  0.00    +0.103 C 
ATOM     17  C   UNL     1       3.243   2.044  -2.337  0.00  0.00    +0.231 C 
ATOM     18  O   UNL     1       3.997   1.122  -2.560  0.00  0.00    -0.274 OA
ATOM     19  N   UNL     1       2.159   2.353  -3.060  0.00  0.00    -0.210 N 
ATOM     20  C   UNL     1       1.482   3.419  -2.615  0.00  0.00    +0.233 C 
ATOM     21  O   UNL     1       0.475   3.871  -3.116  0.00  0.00    -0.274 OA
ENDROOT
BRANCH  19  22
ATOM     22  C   UNL     1       1.766   1.621  -4.190  0.00  0.00    +0.044 A 
ATOM     23  C   UNL     1       2.550   1.636  -5.335  0.00  0.00    +0.027 A 
ATOM     24  C   UNL     1       2.164   0.910  -6.445  0.00  0.00    +0.040 A 
ATOM     25  C   UNL     1       0.990   0.175  -6.419  0.00  0.00    +0.124 A 
ATOM     26  C   UNL     1       0.204   0.163  -5.279  0.00  0.00    +0.040 A 
ATOM     27  C   UNL     1       0.590   0.883  -4.165  0.00  0.00    +0.027 A 
ATOM     28  F   UNL     1       0.611  -0.530  -7.507  0.00  0.00    -0.205 F 
ENDBRANCH  19  22
BRANCH  14  29
ATOM     29  N   UNL     1       0.044   4.769  -0.322  0.00  0.00    +0.038 N 
ATOM     30  O   UNL     1      -0.008   5.567  -1.240  0.00  0.00    -0.130 OA
ATOM     31  O   UNL     1      -0.865   4.709   0.486  0.00  0.00    -0.130 OA
ENDBRANCH  14  29
TORSDOF 2
