REMARK  Name = ZINC23330018
REMARK  8 active torsions:
REMARK  status: ('A' for Active; 'I' for Inactive)
REMARK    1  A    between atoms: C_1  and  C_2
REMARK    2  A    between atoms: C_2  and  C_4
REMARK    3  A    between atoms: C_2  and  N_14
REMARK    4  A    between atoms: C_7  and  C_9
REMARK    5  A    between atoms: N_17  and  C_20
REMARK    6  A    between atoms: C_20  and  C_21
REMARK    7  A    between atoms: N_23  and  C_24
REMARK    8  A    between atoms: C_28  and  C_30
REMARK                            x       y       z     vdW  Elec       q    Type
REMARK                         _______ _______ _______ _____ _____    ______ ____
ROOT
ATOM      1  N   UNL     1       4.803   0.585   0.826  0.00  0.00    -0.295 NA
ATOM      2  C   UNL     1       4.774   1.581  -0.254  0.00  0.00    +0.066 C 
ATOM      3  C   UNL     1       3.587   2.524  -0.043  0.00  0.00    -0.063 C 
ATOM      4  N   UNL     1       2.343   1.743  -0.016  0.00  0.00    +0.387 N 
ATOM      5  C   UNL     1       2.372   0.747   1.064  0.00  0.00    -0.063 C 
ATOM      6  C   UNL     1       3.559  -0.196   0.852  0.00  0.00    +0.066 C 
ATOM      7  H   UNL     1       2.259   1.205  -0.972  0.00  0.00    -0.081 HD
ENDROOT
BRANCH   1   9
ATOM      8  C   UNL     1       5.886  -1.413   1.739  0.00  0.00    +0.034 C 
ATOM      9  C   UNL     1       5.974  -0.294   0.700  0.00  0.00    +0.142 C 
BRANCH   9  10
ATOM     10  C   UNL     1       7.230   0.507   0.929  0.00  0.00    +0.234 A 
ATOM     11  N   UNL     1       7.436   1.353   1.898  0.00  0.00    -0.110 NA
ATOM     12  N   UNL     1       8.617   1.853   1.790  0.00  0.00    -0.107 NA
ATOM     13  C   UNL     1       9.208   1.344   0.731  0.00  0.00    +0.255 A 
ATOM     14  O   UNL     1       8.338   0.481   0.166  0.00  0.00    -0.418 OA
BRANCH  13  15
ATOM     15  C   UNL     1      10.562   1.657   0.252  0.00  0.00    +0.076 A 
ATOM     16  C   UNL     1      11.495   2.527   0.785  0.00  0.00    +0.021 A 
ATOM     17  C   UNL     1      12.710   2.653   0.151  0.00  0.00    +0.008 A 
ATOM     18  C   UNL     1      12.953   1.924  -0.970  0.00  0.00    +0.046 A 
ATOM     19  S   UNL     1      11.434   1.007  -1.164  0.00  0.00    -0.092 S 
ENDBRANCH  13  15
ENDBRANCH   9  10
ENDBRANCH   1   9
BRANCH   4  20
ATOM     20  C   UNL     1       1.172   2.622   0.110  0.00  0.00    +0.019 C 
BRANCH  20  21
ATOM     21  C   UNL     1      -0.084   1.820  -0.112  0.00  0.00    +0.201 C 
ATOM     22  O   UNL     1      -0.012   0.633  -0.352  0.00  0.00    -0.278 OA
ATOM     23  N   UNL     1      -1.288   2.422  -0.050  0.00  0.00    -0.287 N 
ATOM     24  H   UNL     1      -1.359   3.480   0.245  0.00  0.00    +0.155 HD
BRANCH  23  25
ATOM     25  C   UNL     1      -2.448   1.703  -0.360  0.00  0.00    +0.034 A 
ATOM     26  C   UNL     1      -2.410   0.705  -1.326  0.00  0.00    +0.025 A 
ATOM     27  C   UNL     1      -3.554  -0.007  -1.626  0.00  0.00    +0.022 A 
ATOM     28  C   UNL     1      -4.741   0.280  -0.974  0.00  0.00    +0.053 A 
ATOM     29  C   UNL     1      -4.782   1.277  -0.015  0.00  0.00    +0.075 A 
ATOM     30  C   UNL     1      -3.639   1.988   0.293  0.00  0.00    +0.037 A 
ATOM     31 CL   UNL     1      -6.179  -0.612  -1.359  0.00  0.00    -0.083 Cl
BRANCH  29  32
ATOM     32  C   UNL     1      -6.076   1.587   0.693  0.00  0.00    +0.419 C 
ATOM     33  F   UNL     1      -5.869   2.623   1.610  0.00  0.00    -0.166 F 
ATOM     34  F   UNL     1      -7.039   1.978  -0.243  0.00  0.00    -0.166 F 
ATOM     35  F   UNL     1      -6.521   0.446   1.371  0.00  0.00    -0.166 F 
ENDBRANCH  29  32
ENDBRANCH  23  25
ENDBRANCH  20  21
ENDBRANCH   4  20
TORSDOF 7
