REMARK  Name = ZINC21242524
REMARK  9 active torsions:
REMARK  status: ('A' for Active; 'I' for Inactive)
REMARK    1  A    between atoms: C_1  and  C_2
REMARK    2  A    between atoms: C_11  and  N_32
REMARK    3  A    between atoms: C_13  and  S_15
REMARK    4  A    between atoms: S_15  and  C_16
REMARK    5  A    between atoms: C_16  and  C_18
REMARK    6  A    between atoms: C_16  and  C_19
REMARK    7  A    between atoms: N_21  and  C_22
REMARK    8  A    between atoms: C_25  and  S_28
REMARK    9  A    between atoms: S_28  and  N_31
REMARK                            x       y       z     vdW  Elec       q    Type
REMARK                         _______ _______ _______ _____ _____    ______ ____
ROOT
ATOM      1  S   UNL     1       2.275   1.417   0.302  0.00  0.00    -0.073 S 
ENDROOT
BRANCH   1  13
ATOM      2  C   UNL     1       4.169  -1.358  -9.364  0.00  0.00    +0.008 C 
ATOM      3  C   UNL     1       3.585  -0.818  -8.057  0.00  0.00    -0.009 C 
ATOM      4  C   UNL     1       2.962  -1.967  -7.259  0.00  0.00    +0.008 C 
ATOM      5  C   UNL     1       2.165  -1.408  -6.080  0.00  0.00    +0.037 C 
ATOM      6  C   UNL     1       3.061  -0.463  -5.283  0.00  0.00    -0.025 A 
ATOM      7  C   UNL     1       4.178   0.053  -5.833  0.00  0.00    -0.004 A 
ATOM      8  S   UNL     1       4.886   1.075  -4.569  0.00  0.00    -0.073 S 
ATOM      9  C   UNL     1       3.676   0.807  -3.300  0.00  0.00    +0.115 A 
ATOM     10  C   UNL     1       2.757  -0.073  -3.904  0.00  0.00    +0.051 A 
ATOM     11  C   UNL     1       1.657  -0.465  -3.091  0.00  0.00    +0.129 A 
ATOM     12  N   UNL     1       1.565   0.005  -1.858  0.00  0.00    -0.207 NA
ATOM     13  C   UNL     1       2.469   0.835  -1.350  0.00  0.00    +0.192 A 
ATOM     14  N   UNL     1       3.512   1.237  -2.064  0.00  0.00    -0.214 NA
ATOM     15  C   UNL     1       4.704  -0.186  -7.215  0.00  0.00    +0.046 C 
BRANCH  11  16
ATOM     16  N   UNL     1       0.696  -1.327  -3.584  0.00  0.00    -0.343 N 
ATOM     17  H   UNL     1      -0.152  -1.626  -2.950  0.00  0.00    +0.144 HD
ATOM     18  H   UNL     1       0.778  -1.715  -4.610  0.00  0.00    +0.144 HD
ENDBRANCH  11  16
ENDBRANCH   1  13
BRANCH   1  19
ATOM     19  C   UNL     1       0.738   0.575   0.754  0.00  0.00    +0.137 C 
ATOM     20  C   UNL     1      -0.407   1.103  -0.113  0.00  0.00    +0.029 C 
BRANCH  19  21
ATOM     21  C   UNL     1       0.431   0.836   2.206  0.00  0.00    +0.230 C 
ATOM     22  O   UNL     1       0.864   1.830   2.748  0.00  0.00    -0.274 OA
ATOM     23  N   UNL     1      -0.326  -0.036   2.902  0.00  0.00    -0.285 N 
ATOM     24  H   UNL     1      -0.647  -0.980   2.436  0.00  0.00    +0.155 HD
BRANCH  23  25
ATOM     25  C   UNL     1      -0.704   0.259   4.216  0.00  0.00    +0.034 A 
ATOM     26  C   UNL     1      -0.849  -0.763   5.145  0.00  0.00    +0.025 A 
ATOM     27  C   UNL     1      -1.215  -0.468   6.443  0.00  0.00    +0.030 A 
ATOM     28  C   UNL     1      -1.450   0.843   6.816  0.00  0.00    +0.105 A 
ATOM     29  C   UNL     1      -1.312   1.863   5.892  0.00  0.00    +0.030 A 
ATOM     30  C   UNL     1      -0.940   1.575   4.594  0.00  0.00    +0.025 A 
BRANCH  28  31
ATOM     31  S   UNL     1      -1.925   1.215   8.471  0.00  0.00    +0.056 S 
ATOM     32  O   UNL     1      -1.454   0.145   9.279  0.00  0.00    -0.153 OA
ATOM     33  O   UNL     1      -1.554   2.567   8.706  0.00  0.00    -0.153 OA
BRANCH  31  34
ATOM     34  N   UNL     1      -3.579   1.161   8.530  0.00  0.00    -0.204 NA
ATOM     35  H   UNL     1      -3.917   1.388   9.552  0.00  0.00    +0.144 HD
ATOM     36  H   UNL     1      -3.923   0.155   8.245  0.00  0.00    +0.144 HD
ENDBRANCH  31  34
ENDBRANCH  28  31
ENDBRANCH  23  25
ENDBRANCH  19  21
ENDBRANCH   1  19
TORSDOF 7
