REMARK  Name = ZINC00438863
REMARK  6 active torsions:
REMARK  status: ('A' for Active; 'I' for Inactive)
REMARK    1  A    between atoms: C_1  and  C_2
REMARK    2  A    between atoms: C_5  and  N_9
REMARK    3  A    between atoms: C_7  and  C_8
REMARK    4  A    between atoms: C_10  and  C_11
REMARK    5  A    between atoms: C_16  and  O_17
REMARK    6  A    between atoms: O_17  and  C_18
REMARK                            x       y       z     vdW  Elec       q    Type
REMARK                         _______ _______ _______ _____ _____    ______ ____
ROOT
ATOM      1  N   UNL     1      -1.172  -0.708   0.009  0.00  0.00    -0.255 NA
ATOM      2  C   UNL     1      -1.328  -1.723  -0.793  0.00  0.00    +0.123 C 
ENDROOT
BRANCH   1   7
ATOM      3  C   UNL     1       3.670   2.194  -0.022  0.00  0.00    +0.044 C 
ATOM      4  C   UNL     1       2.378   1.419  -0.013  0.00  0.00    -0.047 A 
ATOM      5  C   UNL     1       2.404   0.036  -0.021  0.00  0.00    +0.006 A 
ATOM      6  C   UNL     1       1.225  -0.679  -0.013  0.00  0.00    +0.028 A 
ATOM      7  C   UNL     1       0.002  -0.004   0.002  0.00  0.00    +0.064 A 
ATOM      8  C   UNL     1      -0.017   1.392   0.010  0.00  0.00    +0.031 A 
ATOM      9  C   UNL     1       1.170   2.095   0.002  0.00  0.00    -0.046 A 
ATOM     10  C   UNL     1       1.152   3.602   0.010  0.00  0.00    +0.044 C 
ENDBRANCH   1   7
BRANCH   2  11
ATOM     11  C   UNL     1      -2.589  -2.479  -0.786  0.00  0.00    +0.036 A 
ATOM     12  C   UNL     1      -2.763  -3.566  -1.649  0.00  0.00    +0.028 A 
ATOM     13  C   UNL     1      -3.947  -4.273  -1.633  0.00  0.00    +0.019 A 
ATOM     14  C   UNL     1      -4.969  -3.905  -0.772  0.00  0.00    +0.019 A 
ATOM     15  C   UNL     1      -4.812  -2.830   0.082  0.00  0.00    +0.047 A 
ATOM     16  C   UNL     1      -3.627  -2.111   0.083  0.00  0.00    +0.129 A 
ATOM     17 BR   UNL     1      -4.179  -5.747  -2.795  0.00  0.00    -0.050 Br
BRANCH  16  18
ATOM     18  O   UNL     1      -3.472  -1.055   0.922  0.00  0.00    -0.494 OA
ATOM     19  C   UNL     1      -4.572  -0.739   1.778  0.00  0.00    +0.277 C 
ENDBRANCH  16  18
ENDBRANCH   2  11
TORSDOF 3
