REMARK  Name = ZINC64774678
REMARK  10 active torsions:
REMARK  status: ('A' for Active; 'I' for Inactive)
REMARK    1  A    between atoms: C_1  and  C_2
REMARK    2  A    between atoms: C_5  and  N_28
REMARK    3  A    between atoms: C_6  and  C_8
REMARK    4  A    between atoms: C_12  and  S_15
REMARK    5  A    between atoms: S_15  and  C_16
REMARK    6  A    between atoms: C_16  and  C_17
REMARK    7  A    between atoms: N_19  and  C_20
REMARK    8  A    between atoms: C_21  and  C_27
REMARK    9  A    between atoms: C_25  and  C_26
REMARK   10  A    between atoms: C_29  and  C_31
REMARK                            x       y       z     vdW  Elec       q    Type
REMARK                         _______ _______ _______ _____ _____    ______ ____
ROOT
ATOM      1  C   UNL     1      -0.715  -3.854   2.459  0.00  0.00    +0.161 A 
ATOM      2  C   UNL     1      -1.675  -3.195   3.249  0.00  0.00    +0.300 A 
ATOM      3  O   UNL     1      -2.346  -2.120   2.769  0.00  0.00    -0.263 OA
ATOM      4  N   UNL     1      -1.910  -3.650   4.473  0.00  0.00    -0.180 NA
ATOM      5  C   UNL     1      -1.237  -4.706   4.918  0.00  0.00    +0.213 A 
ATOM      6  N   UNL     1      -0.336  -5.312   4.156  0.00  0.00    -0.122 NA
ATOM      7  N   UNL     1      -0.082  -4.907   2.961  0.00  0.00    -0.141 NA
ENDROOT
BRANCH   1  13
ATOM      8  C   UNL     1       0.298  -0.129  -0.703  0.00  0.00    +0.044 C 
ATOM      9  C   UNL     1       0.067  -1.594  -0.441  0.00  0.00    -0.050 A 
ATOM     10  C   UNL     1       0.132  -2.500  -1.485  0.00  0.00    +0.005 A 
ATOM     11  C   UNL     1      -0.078  -3.846  -1.255  0.00  0.00    +0.024 A 
ATOM     12  C   UNL     1      -0.355  -4.297   0.027  0.00  0.00    +0.043 A 
ATOM     13  C   UNL     1      -0.420  -3.383   1.085  0.00  0.00    +0.029 A 
ATOM     14  C   UNL     1      -0.201  -2.029   0.842  0.00  0.00    +0.015 A 
BRANCH  12  15
ATOM     15  N   UNL     1      -0.569  -5.658   0.262  0.00  0.00    -0.285 N 
ATOM     16  C   UNL     1      -0.120  -6.572  -0.621  0.00  0.00    +0.214 C 
ATOM     17  O   UNL     1       0.538  -6.220  -1.577  0.00  0.00    -0.276 OA
ATOM     18  C   UNL     1      -0.436  -8.032  -0.420  0.00  0.00    +0.109 C 
ATOM     19  H   UNL     1      -1.039  -5.945   1.060  0.00  0.00    +0.155 HD
ENDBRANCH  12  15
ENDBRANCH   1  13
BRANCH   5  20
ATOM     20  S   UNL     1      -1.547  -5.310   6.544  0.00  0.00    -0.075 S 
BRANCH  20  21
ATOM     21  C   UNL     1      -0.426  -6.727   6.707  0.00  0.00    +0.173 C 
BRANCH  21  22
ATOM     22  C   UNL     1      -0.592  -7.344   8.071  0.00  0.00    +0.228 C 
ATOM     23  O   UNL     1      -1.388  -6.875   8.856  0.00  0.00    -0.275 OA
ATOM     24  N   UNL     1       0.144  -8.418   8.419  0.00  0.00    -0.284 N 
ATOM     25  H   UNL     1       0.839  -8.743   7.824  0.00  0.00    +0.155 HD
BRANCH  24  26
ATOM     26  C   UNL     1      -0.093  -9.065   9.637  0.00  0.00    +0.039 A 
ATOM     27  C   UNL     1      -0.401 -10.419   9.658  0.00  0.00    -0.029 A 
ATOM     28  C   UNL     1      -0.635 -11.054  10.861  0.00  0.00    +0.005 A 
ATOM     29  C   UNL     1      -0.563 -10.343  12.045  0.00  0.00    +0.001 A 
ATOM     30  C   UNL     1      -0.257  -8.994  12.028  0.00  0.00    +0.005 A 
ATOM     31  C   UNL     1      -0.016  -8.355  10.828  0.00  0.00    -0.029 A 
ATOM     32  C   UNL     1       0.325  -6.887  10.810  0.00  0.00    +0.045 C 
ATOM     33  C   UNL     1      -0.481 -11.194   8.368  0.00  0.00    +0.045 C 
ENDBRANCH  24  26
ENDBRANCH  21  22
ENDBRANCH  20  21
ENDBRANCH   5  20
TORSDOF 6
