REMARK  Name = ZINC08072055
REMARK  10 active torsions:
REMARK  status: ('A' for Active; 'I' for Inactive)
REMARK    1  A    between atoms: C_1  and  C_2
REMARK    2  A    between atoms: C_2  and  C_3
REMARK    3  A    between atoms: C_2  and  C_4
REMARK    4  A    between atoms: N_6  and  C_7
REMARK    5  A    between atoms: C_10  and  N_13
REMARK    6  A    between atoms: C_14  and  C_16
REMARK    7  A    between atoms: C_16  and  C_17
REMARK    8  A    between atoms: C_16  and  C_18
REMARK    9  A    between atoms: C_16  and  O_19
REMARK   10  A    between atoms: O_19  and  C_20
REMARK                            x       y       z     vdW  Elec       q    Type
REMARK                         _______ _______ _______ _____ _____    ______ ____
ROOT
ATOM      1  N   UNL     1      -7.391  -2.329  -0.728  0.00  0.00    -0.282 N 
ATOM      2  C   UNL     1      -8.284  -2.143  -1.720  0.00  0.00    +0.261 C 
ATOM      3  O   UNL     1      -7.928  -1.662  -2.775  0.00  0.00    -0.271 OA
ATOM      4  H   UNL     1      -7.686  -2.661   0.135  0.00  0.00    +0.155 HD
ENDROOT
BRANCH   1   8
ATOM      5  C   UNL     1      -3.360  -1.477  -1.365  0.00  0.00    +0.034 A 
ATOM      6  C   UNL     1      -3.724  -2.544  -0.555  0.00  0.00    +0.025 A 
ATOM      7  C   UNL     1      -5.059  -2.826  -0.344  0.00  0.00    +0.025 A 
ATOM      8  C   UNL     1      -6.037  -2.043  -0.942  0.00  0.00    +0.034 A 
ATOM      9  C   UNL     1      -5.673  -0.975  -1.752  0.00  0.00    +0.025 A 
ATOM     10  C   UNL     1      -4.338  -0.690  -1.958  0.00  0.00    +0.025 A 
BRANCH   5  13
ATOM     11  C   UNL     1      -1.597   0.089  -1.696  0.00  0.00    +0.220 C 
ATOM     12  O   UNL     1      -2.410   0.988  -1.685  0.00  0.00    -0.275 OA
ATOM     13  N   UNL     1      -2.005  -1.191  -1.580  0.00  0.00    -0.285 N 
ATOM     14  H   UNL     1      -1.361  -1.913  -1.644  0.00  0.00    +0.155 HD
BRANCH  11  16
ATOM     15  C   UNL     1       0.416  -0.277  -3.097  0.00  0.00    +0.017 C 
ATOM     16  C   UNL     1      -0.130   0.401  -1.839  0.00  0.00    +0.069 C 
ATOM     17  C   UNL     1       0.061   1.915  -1.952  0.00  0.00    +0.017 C 
ENDBRANCH  11  16
ENDBRANCH   5  13
ENDBRANCH   1   8
BRANCH   2  18
ATOM     18  C   UNL     1      -9.726  -2.534  -1.519  0.00  0.00    +0.180 C 
ATOM     19  C   UNL     1      -9.811  -4.032  -1.221  0.00  0.00    +0.065 C 
ATOM     20  C   UNL     1     -10.309  -1.746  -0.345  0.00  0.00    +0.065 C 
BRANCH  18  21
ATOM     21  O   UNL     1     -10.468  -2.241  -2.705  0.00  0.00    -0.477 OA
BRANCH  21  22
ATOM     22  C   UNL     1     -10.502  -0.944  -3.107  0.00  0.00    +0.122 A 
ATOM     23  C   UNL     1      -9.749   0.011  -2.438  0.00  0.00    +0.047 A 
ATOM     24  C   UNL     1      -9.785   1.329  -2.848  0.00  0.00    +0.019 A 
ATOM     25  C   UNL     1     -10.572   1.698  -3.925  0.00  0.00    +0.018 A 
ATOM     26  C   UNL     1     -11.323   0.748  -4.593  0.00  0.00    +0.019 A 
ATOM     27  C   UNL     1     -11.285  -0.572  -4.190  0.00  0.00    +0.047 A 
ATOM     28 BR   UNL     1     -10.619   3.504  -4.485  0.00  0.00    -0.050 Br
ENDBRANCH  21  22
ENDBRANCH  18  21
ENDBRANCH   2  18
TORSDOF 6
