REMARK  Name = ZINC37053975
REMARK  5 active torsions:
REMARK  status: ('A' for Active; 'I' for Inactive)
REMARK    1  A    between atoms: C_3  and  N_9
REMARK    2  A    between atoms: N_9  and  S_10
REMARK    3  A    between atoms: S_10  and  C_13
REMARK    4  A    between atoms: C_16  and  N_21
REMARK    5  A    between atoms: C_18  and  C_19
REMARK                            x       y       z     vdW  Elec       q    Type
REMARK                         _______ _______ _______ _____ _____    ______ ____
ROOT
ATOM      1  S   UNL     1       5.026   1.322   0.086  0.00  0.00    +0.093 S 
ATOM      2  O   UNL     1       5.017   0.635   1.330  0.00  0.00    -0.148 OA
ATOM      3  O   UNL     1       5.210   0.651  -1.153  0.00  0.00    -0.148 OA
ENDROOT
BRANCH   1   4
ATOM      4  C   UNL     1       6.294   2.540   0.192  0.00  0.00    +0.128 A 
ATOM      5  C   UNL     1       7.060   2.641   1.336  0.00  0.00    +0.032 A 
ATOM      6  C   UNL     1       8.056   3.595   1.424  0.00  0.00    +0.025 A 
ATOM      7  C   UNL     1       8.294   4.459   0.362  0.00  0.00    +0.026 A 
ATOM      8  C   UNL     1       7.531   4.366  -0.792  0.00  0.00    +0.043 A 
ATOM      9  C   UNL     1       6.529   3.399  -0.884  0.00  0.00    +0.080 A 
BRANCH   7  10
ATOM     10  N   UNL     1       9.302   5.422   0.457  0.00  0.00    -0.358 N 
ATOM     11  H   UNL     1       9.835   5.488   1.264  0.00  0.00    +0.142 HD
ATOM     12  H   UNL     1       9.468   6.025  -0.285  0.00  0.00    +0.142 HD
ENDBRANCH   7  10
BRANCH   9  13
ATOM     13  C   UNL     1       5.741   3.292  -2.074  0.00  0.00    +0.101 C 
ATOM     14  N   UNL     1       5.115   3.207  -3.019  0.00  0.00    -0.191 NA
ENDBRANCH   9  13
ENDBRANCH   1   4
BRANCH   1  15
ATOM     15  N   UNL     1       3.582   2.126  -0.021  0.00  0.00    -0.096 NA
BRANCH  15  18
ATOM     16  C   UNL     1       1.212  -0.683  -0.090  0.00  0.00    +0.003 A 
ATOM     17  C   UNL     1       2.400   0.022  -0.082  0.00  0.00    +0.028 A 
ATOM     18  C   UNL     1       2.382   1.410  -0.029  0.00  0.00    +0.094 A 
ATOM     19  C   UNL     1       1.168   2.085   0.017  0.00  0.00    +0.084 A 
ATOM     20  C   UNL     1      -0.017   1.373   0.009  0.00  0.00    +0.061 A 
ATOM     21  C   UNL     1       0.006  -0.010  -0.044  0.00  0.00    +0.021 A 
ATOM     22 CL   UNL     1      -1.535   2.213   0.067  0.00  0.00    -0.082 Cl
ATOM     23 CL   UNL     1       1.139   3.819   0.084  0.00  0.00    -0.080 Cl
ENDBRANCH  15  18
ENDBRANCH   1  15
TORSDOF 5
