REMARK  Name = ZINC13398824
REMARK  6 active torsions:
REMARK  status: ('A' for Active; 'I' for Inactive)
REMARK    1  A    between atoms: C_1  and  C_2
REMARK    2  A    between atoms: C_5  and  C_26
REMARK    3  A    between atoms: C_5  and  O_28
REMARK    4  A    between atoms: C_17  and  C_25
REMARK    5  A    between atoms: C_22  and  C_23
REMARK    6  A    between atoms: C_22  and  O_24
REMARK                            x       y       z     vdW  Elec       q    Type
REMARK                         _______ _______ _______ _____ _____    ______ ____
ROOT
ATOM      1  C   UNL     1      -0.777   2.077   1.208  0.00  0.00    +0.012 C 
ATOM      2  C   UNL     1      -0.019   1.517   0.010  0.00  0.00    -0.026 C 
ATOM      3  C   UNL     1      -0.732   1.971  -1.272  0.00  0.00    +0.011 C 
ATOM      4  C   UNL     1      -0.765   3.490  -1.366  0.00  0.00    +0.048 C 
ATOM      5  C   UNL     1       0.630   4.101  -1.296  0.00  0.00    +0.126 C 
ATOM      6  C   UNL     1       1.401   3.591  -0.084  0.00  0.00    +0.052 C 
ATOM      7  C   UNL     1       1.407   2.071  -0.024  0.00  0.00    -0.001 C 
ATOM      8  C   UNL     1       2.170   1.594   1.211  0.00  0.00    +0.004 C 
ATOM      9  C   UNL     1       2.298   0.077   1.191  0.00  0.00    +0.004 C 
ATOM     10  C   UNL     1       0.960  -0.633   1.028  0.00  0.00    -0.004 C 
ATOM     11  C   UNL     1       0.037  -0.003   0.024  0.00  0.00    -0.001 C 
ATOM     12  C   UNL     1      -1.341  -0.646  -0.003  0.00  0.00    +0.005 C 
ATOM     13  C   UNL     1      -1.938  -0.834   1.378  0.00  0.00    +0.010 C 
ATOM     14  C   UNL     1      -1.027  -1.642   2.301  0.00  0.00    -0.000 C 
ATOM     15  C   UNL     1       0.391  -1.069   2.348  0.00  0.00    +0.001 C 
ATOM     16  C   UNL     1       0.452  -0.032   3.466  0.00  0.00    +0.007 C 
ATOM     17  C   UNL     1      -0.894  -0.123   4.217  0.00  0.00    +0.035 C 
ATOM     18  C   UNL     1      -1.561  -1.426   3.744  0.00  0.00    +0.069 C 
ATOM     19  C   UNL     1      -1.148  -2.593   4.639  0.00  0.00    +0.042 C 
ATOM     20  C   UNL     1      -1.031  -3.132   1.930  0.00  0.00    +0.014 C 
ENDROOT
BRANCH  18  21
ATOM     21  O   UNL     1      -2.980  -1.283   3.739  0.00  0.00    -0.388 OA
ATOM     22  H   UNL     1      -3.364  -1.145   4.615  0.00  0.00    +0.210 HD
ENDBRANCH  18  21
BRANCH   5  23
ATOM     23  C   UNL     1       1.376   3.805  -2.532  0.00  0.00    -0.071 C 
ATOM     24  C   UNL     1       1.970   3.570  -3.517  0.00  0.00    +0.007 C 
ENDBRANCH   5  23
BRANCH   5  25
ATOM     25  O   UNL     1       0.500   5.529  -1.182  0.00  0.00    -0.377 OA
ATOM     26  H   UNL     1       0.020   5.940  -1.914  0.00  0.00    +0.211 HD
ENDBRANCH   5  25
TORSDOF 3
