REMARK  Name = ZINC03876296
REMARK  2 active torsions:
REMARK  status: ('A' for Active; 'I' for Inactive)
REMARK    1  A    between atoms: C_1  and  C_2
REMARK    2  A    between atoms: C_9  and  C_12
REMARK                            x       y       z     vdW  Elec       q    Type
REMARK                         _______ _______ _______ _____ _____    ______ ____
ROOT
ATOM      1  C   UNL     1      -0.018   1.503   0.010  0.00  0.00    +0.044 C 
ATOM      2  C   UNL     1       0.002  -0.004   0.002  0.00  0.00    -0.047 C 
ATOM      3  C   UNL     1       0.005  -0.672  -1.188  0.00  0.00    +0.054 C 
ATOM      4  C   UNL     1       0.025  -2.073  -1.205  0.00  0.00    +0.188 C 
ATOM      5  O   UNL     1       0.028  -2.680  -2.270  0.00  0.00    -0.287 OA
ATOM      6  C   UNL     1       0.040  -2.780   0.023  0.00  0.00    +0.044 C 
ATOM      7  C   UNL     1       0.060  -4.244   0.034  0.00  0.00    +0.057 C 
ATOM      8  C   UNL     1       0.072  -5.074  -1.087  0.00  0.00    +0.050 C 
ATOM      9  C   UNL     1       0.090  -6.386  -0.648  0.00  0.00    +0.053 C 
ATOM     10  N   UNL     1       0.090  -6.377   0.723  0.00  0.00    -0.266 N 
ATOM     11  N   UNL     1       0.077  -5.043   1.149  0.00  0.00    -0.266 N 
ATOM     12  C   UNL     1       0.036  -2.062   1.226  0.00  0.00    +0.014 C 
ATOM     13  C   UNL     1       0.023  -0.697   1.206  0.00  0.00    +0.004 C 
ATOM     14  H   UNL     1       0.100  -7.159   1.297  0.00  0.00    +0.170 HD
ATOM     15  H   UNL     1       0.077  -4.737   2.070  0.00  0.00    +0.170 HD
ENDROOT
BRANCH   9  16
ATOM     16  C   UNL     1       0.107  -7.585  -1.506  0.00  0.00    -0.003 A 
ATOM     17  C   UNL     1       0.111  -7.453  -2.898  0.00  0.00    +0.011 A 
ATOM     18  C   UNL     1       0.127  -8.578  -3.694  0.00  0.00    +0.016 A 
ATOM     19  C   UNL     1       0.138  -9.838  -3.118  0.00  0.00    +0.018 A 
ATOM     20  C   UNL     1       0.134  -9.976  -1.740  0.00  0.00    +0.016 A 
ATOM     21  C   UNL     1       0.125  -8.859  -0.932  0.00  0.00    +0.011 A 
ATOM     22 BR   UNL     1       0.159 -11.376  -4.218  0.00  0.00    -0.050 Br
ENDBRANCH   9  16
TORSDOF 1
