REMARK  Name = ZINC36215742
REMARK  8 active torsions:
REMARK  status: ('A' for Active; 'I' for Inactive)
REMARK    1  A    between atoms: C_1  and  C_2
REMARK    2  A    between atoms: C_6  and  C_8
REMARK    3  A    between atoms: N_10  and  C_11
REMARK    4  A    between atoms: C_14  and  C_17
REMARK    5  A    between atoms: C_19  and  C_33
REMARK    6  A    between atoms: N_21  and  C_25
REMARK    7  A    between atoms: C_25  and  C_26
REMARK    8  A    between atoms: N_38  and  C_41
REMARK                            x       y       z     vdW  Elec       q    Type
REMARK                         _______ _______ _______ _____ _____    ______ ____
ROOT
ATOM      1  C   UNL     1      -0.263  -7.110   7.434  0.00  0.00    +0.238 C 
ATOM      2  C   UNL     1       1.177  -7.172   7.995  0.00  0.00    +0.211 C 
ATOM      3  N   UNL     1       1.163  -8.441   8.751  0.00  0.00    -0.248 N 
ATOM      4  C   UNL     1       0.072  -9.132   8.372  0.00  0.00    +0.405 C 
ATOM      5  O   UNL     1      -0.235 -10.211   8.837  0.00  0.00    -0.226 OA
ATOM      6  O   UNL     1      -0.643  -8.500   7.425  0.00  0.00    -0.440 OA
ENDROOT
BRANCH   2   7
ATOM      7  C   UNL     1       2.187  -7.219   6.878  0.00  0.00    +0.240 C 
ATOM      8  O   UNL     1       2.623  -8.286   6.498  0.00  0.00    -0.273 OA
ATOM      9  N   UNL     1       2.607  -6.076   6.300  0.00  0.00    -0.297 N 
ATOM     10  C   UNL     1       2.173  -4.768   6.814  0.00  0.00    +0.123 C 
ATOM     11  C   UNL     1       3.414  -3.896   7.033  0.00  0.00    +0.103 C 
ATOM     12  N   UNL     1       4.200  -3.847   5.793  0.00  0.00    -0.302 NA
ATOM     13  C   UNL     1       4.698  -5.179   5.425  0.00  0.00    +0.103 C 
ATOM     14  C   UNL     1       3.514  -6.104   5.143  0.00  0.00    +0.123 C 
ATOM     15  C   UNL     1       5.305  -2.886   5.907  0.00  0.00    +0.105 C 
ENDBRANCH   2   7
BRANCH   1  19
ATOM     16  C   UNL     1      -0.290  -5.495   3.477  0.00  0.00    +0.034 A 
ATOM     17  C   UNL     1      -0.564  -4.676   4.565  0.00  0.00    +0.024 A 
ATOM     18  C   UNL     1      -0.555  -5.201   5.842  0.00  0.00    +0.009 A 
ATOM     19  C   UNL     1      -0.273  -6.541   6.039  0.00  0.00    -0.005 A 
ATOM     20  C   UNL     1       0.001  -7.359   4.958  0.00  0.00    +0.009 A 
ATOM     21  C   UNL     1      -0.013  -6.841   3.677  0.00  0.00    +0.024 A 
BRANCH  16  24
ATOM     22  C   UNL     1      -0.742  -5.714   1.152  0.00  0.00    +0.248 C 
ATOM     23  O   UNL     1      -1.054  -6.874   1.334  0.00  0.00    -0.270 OA
ATOM     24  N   UNL     1      -0.299  -4.966   2.182  0.00  0.00    -0.282 N 
ATOM     25  H   UNL     1       0.014  -4.061   2.026  0.00  0.00    +0.155 HD
BRANCH  22  31
ATOM     26  C   UNL     1      -1.892  -6.169  -3.682  0.00  0.00    +0.044 C 
ATOM     27  C   UNL     1      -1.399  -5.337  -2.526  0.00  0.00    -0.050 A 
ATOM     28  C   UNL     1      -1.042  -4.016  -2.729  0.00  0.00    +0.003 A 
ATOM     29  C   UNL     1      -0.589  -3.245  -1.674  0.00  0.00    +0.001 A 
ATOM     30  C   UNL     1      -0.488  -3.791  -0.410  0.00  0.00    +0.013 A 
ATOM     31  C   UNL     1      -0.847  -5.123  -0.199  0.00  0.00    +0.037 A 
ATOM     32  C   UNL     1      -1.310  -5.893  -1.267  0.00  0.00    +0.016 A 
ENDBRANCH  22  31
ENDBRANCH  16  24
ENDBRANCH   1  19
BRANCH   3  33
ATOM     33  C   UNL     1       2.159  -8.870   9.736  0.00  0.00    +0.147 C 
BRANCH  33  34
ATOM     34  C   UNL     1       1.748  -8.395  11.105  0.00  0.00    -0.030 A 
ATOM     35  C   UNL     1       2.163  -7.157  11.560  0.00  0.00    +0.008 A 
ATOM     36  C   UNL     1       1.786  -6.720  12.816  0.00  0.00    +0.038 A 
ATOM     37  C   UNL     1       0.992  -7.522  13.619  0.00  0.00    +0.123 A 
ATOM     38  C   UNL     1       0.578  -8.762  13.162  0.00  0.00    +0.038 A 
ATOM     39  C   UNL     1       0.951  -9.195  11.904  0.00  0.00    +0.008 A 
ATOM     40  F   UNL     1       0.624  -7.096  14.847  0.00  0.00    -0.205 F 
ENDBRANCH  33  34
ENDBRANCH   3  33
TORSDOF 6
