REMARK  Name = ZINC01040376
REMARK  6 active torsions:
REMARK  status: ('A' for Active; 'I' for Inactive)
REMARK    1  A    between atoms: C_4  and  C_7
REMARK    2  A    between atoms: N_9  and  C_10
REMARK    3  A    between atoms: C_10  and  C_11
REMARK    4  A    between atoms: C_14  and  S_16
REMARK    5  A    between atoms: S_16  and  N_19
REMARK    6  A    between atoms: N_19  and  C_20
REMARK                            x       y       z     vdW  Elec       q    Type
REMARK                         _______ _______ _______ _____ _____    ______ ____
ROOT
ATOM      1  C   UNL     1      -0.643  -2.160  -0.867  0.00  0.00    +0.009 A 
ATOM      2  C   UNL     1      -0.551  -2.817   0.315  0.00  0.00    +0.015 A 
ATOM      3  C   UNL     1      -0.374  -4.188   0.307  0.00  0.00    +0.037 A 
ATOM      4  C   UNL     1      -0.298  -4.834  -0.882  0.00  0.00    +0.146 A 
ATOM      5  S   UNL     1      -0.486  -3.493  -2.044  0.00  0.00    -0.072 S 
ENDROOT
BRANCH   4   6
ATOM      6  S   UNL     1      -0.078  -6.554  -1.198  0.00  0.00    +0.079 S 
ATOM      7  O   UNL     1       0.365  -6.666  -2.543  0.00  0.00    -0.149 OA
ATOM      8  O   UNL     1       0.664  -7.076  -0.105  0.00  0.00    -0.149 OA
BRANCH   6   9
ATOM      9  N   UNL     1      -1.575  -7.259  -1.133  0.00  0.00    -0.216 N 
ATOM     10  H   UNL     1      -1.769  -7.924  -0.454  0.00  0.00    +0.174 HD
BRANCH   9  11
ATOM     11  C   UNL     1      -2.561  -6.895  -2.057  0.00  0.00    +0.052 A 
ATOM     12  C   UNL     1      -3.624  -6.095  -1.660  0.00  0.00    +0.028 A 
ATOM     13  C   UNL     1      -4.595  -5.731  -2.574  0.00  0.00    +0.051 A 
ATOM     14  C   UNL     1      -4.516  -6.171  -3.885  0.00  0.00    +0.166 A 
ATOM     15  C   UNL     1      -3.454  -6.978  -4.285  0.00  0.00    +0.168 A 
ATOM     16  C   UNL     1      -2.479  -7.339  -3.370  0.00  0.00    +0.074 A 
ATOM     17  O   UNL     1      -3.605  -7.274  -5.609  0.00  0.00    -0.453 OA
ATOM     18  C   UNL     1      -4.981  -6.979  -5.915  0.00  0.00    +0.466 C 
ATOM     19  O   UNL     1      -5.333  -5.961  -4.960  0.00  0.00    -0.453 OA
ENDBRANCH   9  11
ENDBRANCH   6   9
ENDBRANCH   4   6
BRANCH   1  20
ATOM     20  C   UNL     1      -0.836  -0.687  -1.121  0.00  0.00    +0.147 C 
BRANCH  20  23
ATOM     21  C   UNL     1       0.546   1.295  -1.437  0.00  0.00    +0.244 C 
ATOM     22  O   UNL     1      -0.471   1.947  -1.569  0.00  0.00    -0.270 OA
ATOM     23  N   UNL     1       0.471  -0.032  -1.212  0.00  0.00    -0.307 N 
ATOM     24  H   UNL     1       1.283  -0.553  -1.110  0.00  0.00    +0.149 HD
BRANCH  21  28
ATOM     25  C   UNL     1       4.337   3.194  -1.700  0.00  0.00    +0.000 A 
ATOM     26  C   UNL     1       3.181   3.940  -1.845  0.00  0.00    +0.001 A 
ATOM     27  C   UNL     1       1.947   3.329  -1.761  0.00  0.00    +0.013 A 
ATOM     28  C   UNL     1       1.866   1.956  -1.528  0.00  0.00    +0.037 A 
ATOM     29  C   UNL     1       3.035   1.210  -1.377  0.00  0.00    +0.013 A 
ATOM     30  C   UNL     1       4.263   1.831  -1.469  0.00  0.00    +0.001 A 
ENDBRANCH  21  28
ENDBRANCH  20  23
ENDBRANCH   1  20
TORSDOF 6
