REMARK  Name = ZINC21035593
REMARK  10 active torsions:
REMARK  status: ('A' for Active; 'I' for Inactive)
REMARK    1  A    between atoms: C_1  and  C_2
REMARK    2  A    between atoms: C_2  and  C_3
REMARK    3  A    between atoms: C_3  and  C_5
REMARK    4  A    between atoms: C_3  and  C_6
REMARK    5  A    between atoms: C_9  and  N_12
REMARK    6  A    between atoms: C_13  and  C_15
REMARK    7  A    between atoms: C_15  and  S_16
REMARK    8  A    between atoms: S_16  and  C_17
REMARK    9  A    between atoms: N_21  and  N_22
REMARK   10  A    between atoms: N_23  and  N_24
REMARK                            x       y       z     vdW  Elec       q    Type
REMARK                         _______ _______ _______ _____ _____    ______ ____
ROOT
ATOM      1  C   UNL     1      -6.199   3.367  -1.493  0.00  0.00    +0.173 C 
ENDROOT
BRANCH   1   3
ATOM      2  N   UNL     1      -7.102   2.281   0.538  0.00  0.00    -0.285 N 
ATOM      3  C   UNL     1      -7.233   3.236  -0.404  0.00  0.00    +0.227 C 
ATOM      4  O   UNL     1      -8.182   3.990  -0.375  0.00  0.00    -0.275 OA
ATOM      5  H   UNL     1      -6.284   1.549   0.469  0.00  0.00    +0.155 HD
BRANCH   2   9
ATOM      6  C   UNL     1      -9.797   2.100   3.709  0.00  0.00    -0.044 A 
ATOM      7  C   UNL     1     -10.232   2.490   2.455  0.00  0.00    +0.006 A 
ATOM      8  C   UNL     1      -9.341   2.550   1.402  0.00  0.00    +0.023 A 
ATOM      9  C   UNL     1      -8.007   2.220   1.603  0.00  0.00    +0.033 A 
ATOM     10  C   UNL     1      -7.575   1.824   2.861  0.00  0.00    +0.023 A 
ATOM     11  C   UNL     1      -8.470   1.770   3.912  0.00  0.00    +0.006 A 
BRANCH   6  12
ATOM     12  C   UNL     1     -10.773   2.034   4.856  0.00  0.00    +0.016 C 
ATOM     13  C   UNL     1     -10.320   2.986   5.965  0.00  0.00    +0.012 C 
BRANCH  12  15
ATOM     14  C   UNL     1     -11.904   0.510   6.481  0.00  0.00    +0.004 C 
ATOM     15  C   UNL     1     -10.825   0.606   5.400  0.00  0.00    +0.004 C 
ENDBRANCH  12  15
ENDBRANCH   6  12
ENDBRANCH   2   9
ENDBRANCH   1   3
BRANCH   1  16
ATOM     16  S   UNL     1      -6.653   4.734  -2.597  0.00  0.00    -0.075 S 
BRANCH  16  17
ATOM     17  C   UNL     1      -5.365   4.757  -3.799  0.00  0.00    +0.210 A 
ATOM     18  N   UNL     1      -4.335   3.947  -3.840  0.00  0.00    -0.119 NA
ATOM     19  N   UNL     1      -3.551   4.300  -4.947  0.00  0.00    -0.110 NA
ATOM     20  C   UNL     1      -4.132   5.309  -5.548  0.00  0.00    +0.248 A 
ATOM     21  N   UNL     1      -5.264   5.622  -4.852  0.00  0.00    -0.211 N 
ATOM     22  N   UNL     1      -3.673   5.951  -6.692  0.00  0.00    -0.251 N 
ATOM     23  H   UNL     1      -4.240   6.794  -7.114  0.00  0.00    +0.169 HD
BRANCH  21  24
ATOM     24  N   UNL     1      -6.145   6.621  -5.157  0.00  0.00    -0.294 N 
ATOM     25  H   UNL     1      -5.966   7.262  -6.033  0.00  0.00    +0.163 HD
ATOM     26  H   UNL     1      -7.032   6.783  -4.528  0.00  0.00    +0.163 HD
ENDBRANCH  21  24
BRANCH  22  27
ATOM     27  N   UNL     1      -2.519   5.534  -7.293  0.00  0.00    -0.254 NA
ATOM     28  H   UNL     1      -2.320   6.158  -8.176  0.00  0.00    +0.140 HD
ATOM     29  H   UNL     1      -1.683   5.626  -6.583  0.00  0.00    +0.140 HD
ENDBRANCH  22  27
ENDBRANCH  16  17
ENDBRANCH   1  16
TORSDOF 8
