REMARK  Name = ZINC32127615
REMARK  3 active torsions:
REMARK  status: ('A' for Active; 'I' for Inactive)
REMARK    1  A    between atoms: C_1  and  C_2
REMARK    2  A    between atoms: N_4  and  C_5
REMARK    3  A    between atoms: C_15  and  C_17
REMARK                            x       y       z     vdW  Elec       q    Type
REMARK                         _______ _______ _______ _____ _____    ______ ____
ROOT
ATOM      1  C   UNL     1      -5.224   3.368  -0.075  0.00  0.00    +0.037 A 
ATOM      2  C   UNL     1      -4.627   4.626  -0.068  0.00  0.00    +0.025 A 
ATOM      3  C   UNL     1      -3.260   4.747  -0.167  0.00  0.00    +0.033 A 
ATOM      4  C   UNL     1      -2.467   3.603  -0.275  0.00  0.00    +0.111 A 
ATOM      5  C   UNL     1      -3.070   2.336  -0.282  0.00  0.00    +0.159 A 
ATOM      6  C   UNL     1      -4.447   2.226  -0.182  0.00  0.00    +0.071 A 
ATOM      7  O   UNL     1      -2.066   1.436  -0.396  0.00  0.00    -0.424 OA
ATOM      8  C   UNL     1      -0.904   2.110  -0.455  0.00  0.00    +0.295 A 
ATOM      9  N   UNL     1      -1.125   3.396  -0.379  0.00  0.00    -0.195 NA
ATOM     10  N   UNL     1       0.344   1.528  -0.574  0.00  0.00    -0.236 N 
ATOM     11  C   UNL     1       1.446   2.301  -0.631  0.00  0.00    +0.252 C 
ATOM     12  O   UNL     1       1.343   3.511  -0.573  0.00  0.00    -0.270 OA
ATOM     13  H   UNL     1       0.437   0.433  -0.622  0.00  0.00    +0.160 HD
ENDROOT
BRANCH  11  14
ATOM     14  C   UNL     1       2.776   1.680  -0.764  0.00  0.00    +0.045 A 
ATOM     15  C   UNL     1       2.921   0.299  -0.722  0.00  0.00    +0.014 A 
ATOM     16  C   UNL     1       4.174  -0.283  -0.852  0.00  0.00    +0.001 A 
ATOM     17  C   UNL     1       5.300   0.465  -1.014  0.00  0.00    +0.009 A 
ATOM     18  C   UNL     1       5.229   1.867  -1.060  0.00  0.00    -0.003 A 
ATOM     19  C   UNL     1       3.970   2.504  -0.936  0.00  0.00    -0.005 A 
ATOM     20  C   UNL     1       3.894   3.901  -0.982  0.00  0.00    +0.009 A 
ATOM     21  C   UNL     1       5.033   4.633  -1.144  0.00  0.00    +0.002 A 
ATOM     22  C   UNL     1       6.273   4.011  -1.265  0.00  0.00    +0.016 A 
ATOM     23  C   UNL     1       6.383   2.653  -1.226  0.00  0.00    +0.026 A 
ATOM     24 BR   UNL     1       8.078   1.831  -1.394  0.00  0.00    -0.050 Br
ENDBRANCH  11  14
BRANCH   1  28
ATOM     25  C   UNL     1      -8.658   2.034   0.700  0.00  0.00    +0.109 C 
ATOM     26  C   UNL     1      -7.163   2.221   0.693  0.00  0.00    +0.214 C 
ATOM     27  O   UNL     1      -6.451   1.439   1.288  0.00  0.00    -0.276 OA
ATOM     28  N   UNL     1      -6.617   3.257   0.027  0.00  0.00    -0.286 N 
ATOM     29  H   UNL     1      -7.264   4.015  -0.438  0.00  0.00    +0.155 HD
ENDBRANCH   1  28
TORSDOF 2
