REMARK  Name = ZINC64626514
REMARK  5 active torsions:
REMARK  status: ('A' for Active; 'I' for Inactive)
REMARK    1  A    between atoms: C_1  and  C_2
REMARK    2  A    between atoms: C_2  and  O_3
REMARK    3  A    between atoms: O_3  and  C_4
REMARK    4  A    between atoms: C_9  and  C_10
REMARK    5  A    between atoms: C_25  and  C_27
REMARK                            x       y       z     vdW  Elec       q    Type
REMARK                         _______ _______ _______ _____ _____    ______ ____
ROOT
ATOM      1  C   UNL     1      -4.158  -1.253   0.157  0.00  0.00    +0.136 C 
ATOM      2  C   UNL     1      -4.593  -0.453   1.390  0.00  0.00    +0.131 C 
ATOM      3  C   UNL     1      -5.380  -1.411   2.275  0.00  0.00    -0.035 C 
ATOM      4  C   UNL     1      -4.783  -1.401   3.461  0.00  0.00    -0.001 A 
ATOM      5  C   UNL     1      -5.119  -2.064   4.731  0.00  0.00    +0.010 A 
ATOM      6  C   UNL     1      -4.267  -1.841   5.767  0.00  0.00    +0.001 A 
ATOM      7  C   UNL     1      -3.129  -1.034   5.667  0.00  0.00    +0.002 A 
ATOM      8  C   UNL     1      -2.747  -0.383   4.540  0.00  0.00    +0.026 A 
ATOM      9  C   UNL     1      -3.566  -0.537   3.384  0.00  0.00    +0.043 A 
ATOM     10  N   UNL     1      -3.445  -0.005   2.180  0.00  0.00    -0.375 N 
ATOM     11  C   UNL     1      -6.545  -2.219   1.759  0.00  0.00    +0.052 C 
ATOM     12  C   UNL     1      -6.064  -2.921   0.476  0.00  0.00    +0.113 C 
ATOM     13  N   UNL     1      -5.339  -1.960  -0.363  0.00  0.00    -0.288 N 
ATOM     14  C   UNL     1      -5.760  -1.720  -1.621  0.00  0.00    +0.247 C 
ATOM     15  O   UNL     1      -5.128  -0.972  -2.341  0.00  0.00    -0.270 OA
ATOM     16  H   UNL     1      -2.730   0.572   1.867  0.00  0.00    +0.160 HD
ENDROOT
BRANCH  14  17
ATOM     17  C   UNL     1      -6.991  -2.367  -2.126  0.00  0.00    +0.040 A 
ATOM     18  C   UNL     1      -7.922  -1.649  -2.884  0.00  0.00    +0.034 A 
ATOM     19  C   UNL     1      -9.057  -2.292  -3.335  0.00  0.00    +0.134 A 
ATOM     20  N   UNL     1      -9.269  -3.566  -3.059  0.00  0.00    -0.147 N 
ATOM     21  O   UNL     1     -10.447  -4.185  -3.542  0.00  0.00    -0.164 OA
ATOM     22  C   UNL     1      -8.416  -4.279  -2.348  0.00  0.00    +0.134 A 
ATOM     23  C   UNL     1      -7.253  -3.716  -1.863  0.00  0.00    +0.034 A 
ENDBRANCH  14  17
BRANCH   1  29
ATOM     24  C   UNL     1      -1.832  -2.172  -0.018  0.00  0.00    +0.125 A 
ATOM     25  C   UNL     1      -0.856  -3.089   0.346  0.00  0.00    +0.046 A 
ATOM     26  C   UNL     1      -1.148  -4.081   1.262  0.00  0.00    +0.004 A 
ATOM     27  C   UNL     1      -2.412  -4.160   1.817  0.00  0.00    +0.001 A 
ATOM     28  C   UNL     1      -3.386  -3.248   1.457  0.00  0.00    +0.009 A 
ATOM     29  C   UNL     1      -3.097  -2.251   0.545  0.00  0.00    +0.017 A 
BRANCH  24  30
ATOM     30  O   UNL     1      -1.547  -1.196  -0.918  0.00  0.00    -0.492 OA
BRANCH  30  32
ATOM     31  C   UNL     1      -0.092  -0.015  -2.445  0.00  0.00    +0.048 C 
ATOM     32  C   UNL     1      -0.223  -1.176  -1.456  0.00  0.00    +0.225 C 
ENDBRANCH  30  32
ENDBRANCH  24  30
ENDBRANCH   1  29
TORSDOF 4
