REMARK  Name = ZINC23242252
REMARK  8 active torsions:
REMARK  status: ('A' for Active; 'I' for Inactive)
REMARK    1  A    between atoms: C_1  and  C_2
REMARK    2  A    between atoms: N_4  and  C_5
REMARK    3  A    between atoms: C_8  and  N_11
REMARK    4  A    between atoms: C_12  and  C_14
REMARK    5  A    between atoms: C_14  and  C_15
REMARK    6  A    between atoms: C_21  and  S_23
REMARK    7  A    between atoms: S_23  and  C_24
REMARK    8  A    between atoms: C_24  and  C_25
REMARK                            x       y       z     vdW  Elec       q    Type
REMARK                         _______ _______ _______ _____ _____    ______ ____
ROOT
ATOM      1  C   UNL     1       0.089  -8.478  -1.839  0.00  0.00    +0.151 C 
ENDROOT
BRANCH   1   2
ATOM      2  C   UNL     1       0.232  -9.070  -3.218  0.00  0.00    +0.058 A 
ATOM      3  C   UNL     1       1.472  -9.368  -3.706  0.00  0.00    +0.094 A 
ATOM      4  C   UNL     1       1.580  -9.920  -4.995  0.00  0.00    +0.252 A 
ATOM      5  O   UNL     1       2.673 -10.199  -5.461  0.00  0.00    -0.268 OA
ATOM      6  N   UNL     1       0.453 -10.136  -5.705  0.00  0.00    -0.302 N 
ATOM      7  H   UNL     1       0.505 -10.516  -6.596  0.00  0.00    +0.171 HD
ATOM      8  C   UNL     1      -0.757  -9.819  -5.167  0.00  0.00    +0.169 A 
ATOM      9  N   UNL     1      -0.850  -9.306  -3.955  0.00  0.00    -0.228 NA
BRANCH   8  10
ATOM     10  S   UNL     1      -2.223 -10.103  -6.102  0.00  0.00    -0.083 S 
BRANCH  10  11
ATOM     11  C   UNL     1      -3.557  -9.543  -5.008  0.00  0.00    +0.112 C 
BRANCH  11  12
ATOM     12  C   UNL     1      -4.884  -9.733  -5.696  0.00  0.00    -0.037 A 
ATOM     13  C   UNL     1      -5.408  -8.723  -6.480  0.00  0.00    +0.004 A 
ATOM     14  C   UNL     1      -6.625  -8.898  -7.112  0.00  0.00    +0.000 A 
ATOM     15  C   UNL     1      -7.319 -10.084  -6.959  0.00  0.00    +0.000 A 
ATOM     16  C   UNL     1      -6.794 -11.095  -6.176  0.00  0.00    +0.000 A 
ATOM     17  C   UNL     1      -5.575 -10.922  -5.548  0.00  0.00    +0.004 A 
ENDBRANCH  11  12
ENDBRANCH  10  11
ENDBRANCH   8  10
ENDBRANCH   1   2
BRANCH   1  19
ATOM     18  N   UNL     1      -0.123  -6.230  -0.829  0.00  0.00    -0.285 N 
ATOM     19  C   UNL     1       0.009  -6.977  -1.943  0.00  0.00    +0.223 C 
ATOM     20  O   UNL     1       0.062  -6.440  -3.030  0.00  0.00    -0.275 OA
ATOM     21  H   UNL     1      -0.233  -6.661   0.033  0.00  0.00    +0.155 HD
BRANCH  18  25
ATOM     22  C   UNL     1      -0.055  -2.069  -1.087  0.00  0.00    +0.033 A 
ATOM     23  C   UNL     1       0.500  -2.706   0.016  0.00  0.00    +0.025 A 
ATOM     24  C   UNL     1       0.477  -4.083   0.101  0.00  0.00    +0.025 A 
ATOM     25  C   UNL     1      -0.100  -4.833  -0.915  0.00  0.00    +0.034 A 
ATOM     26  C   UNL     1      -0.655  -4.196  -2.018  0.00  0.00    +0.025 A 
ATOM     27  C   UNL     1      -0.637  -2.818  -2.101  0.00  0.00    +0.025 A 
BRANCH  22  31
ATOM     28  C   UNL     1      -1.089   1.493  -1.737  0.00  0.00    +0.109 C 
ATOM     29  C   UNL     1      -1.065  -0.014  -1.737  0.00  0.00    +0.214 C 
ATOM     30  O   UNL     1      -1.975  -0.635  -2.244  0.00  0.00    -0.276 OA
ATOM     31  N   UNL     1      -0.032  -0.671  -1.173  0.00  0.00    -0.286 N 
ATOM     32  H   UNL     1       0.727  -0.176  -0.828  0.00  0.00    +0.155 HD
ENDBRANCH  22  31
ENDBRANCH  18  25
ENDBRANCH   1  19
TORSDOF 7
