REMARK  Name = ZINC12501833
REMARK  7 active torsions:
REMARK  status: ('A' for Active; 'I' for Inactive)
REMARK    1  A    between atoms: C_6  and  C_7
REMARK    2  A    between atoms: N_9  and  C_10
REMARK    3  A    between atoms: C_10  and  N_12
REMARK    4  A    between atoms: N_12  and  N_13
REMARK    5  A    between atoms: C_14  and  C_16
REMARK    6  A    between atoms: C_16  and  O_17
REMARK    7  A    between atoms: O_17  and  C_18
REMARK                            x       y       z     vdW  Elec       q    Type
REMARK                         _______ _______ _______ _____ _____    ______ ____
ROOT
ATOM      1  N   UNL     1       3.068   7.821   0.015  0.00  0.00    -0.245 N 
ATOM      2  H   UNL     1       2.168   8.181   0.025  0.00  0.00    +0.172 HD
ENDROOT
BRANCH   1   3
ATOM      3  N   UNL     1       3.268   6.434   0.005  0.00  0.00    -0.232 N 
ATOM      4  C   UNL     1       2.209   5.601   0.011  0.00  0.00    +0.267 C 
ATOM      5  O   UNL     1       1.083   6.051   0.024  0.00  0.00    -0.271 OA
ATOM      6  H   UNL     1       4.169   6.074  -0.005  0.00  0.00    +0.173 HD
BRANCH   4   7
ATOM      7  C   UNL     1       2.425   4.109   0.001  0.00  0.00    +0.326 C 
BRANCH   7   8
ATOM      8  O   UNL     1       1.159   3.445   0.009  0.00  0.00    -0.483 OA
BRANCH   8   9
ATOM      9  C   UNL     1       1.176   2.086   0.002  0.00  0.00    +0.121 A 
ATOM     10  C   UNL     1      -0.017   1.377   0.010  0.00  0.00    +0.047 A 
ATOM     11  C   UNL     1       0.002  -0.004   0.002  0.00  0.00    +0.019 A 
ATOM     12  C   UNL     1       1.209  -0.680  -0.013  0.00  0.00    +0.018 A 
ATOM     13  C   UNL     1       2.399   0.025  -0.020  0.00  0.00    +0.019 A 
ATOM     14  C   UNL     1       2.385   1.406  -0.013  0.00  0.00    +0.047 A 
ATOM     15 BR   UNL     1       1.232  -2.571  -0.022  0.00  0.00    -0.050 Br
ENDBRANCH   8   9
ENDBRANCH   7   8
ENDBRANCH   4   7
ENDBRANCH   1   3
BRANCH   1  16
ATOM     16  C   UNL     1       4.127   8.655   0.009  0.00  0.00    +0.153 C 
ATOM     17  S   UNL     1       3.882  10.349   0.021  0.00  0.00    -0.017 S 
BRANCH  16  20
ATOM     18  C   UNL     1       6.438   8.989  -0.011  0.00  0.00    +0.250 C 
ATOM     19  O   UNL     1       6.264  10.191  -0.003  0.00  0.00    -0.270 OA
ATOM     20  N   UNL     1       5.379   8.155  -0.005  0.00  0.00    -0.263 N 
ATOM     21  H   UNL     1       5.517   7.195  -0.012  0.00  0.00    +0.157 HD
BRANCH  18  27
ATOM     22  C   UNL     1       8.012   7.059  -0.031  0.00  0.00    +0.014 A 
ATOM     23  C   UNL     1       9.294   6.553  -0.052  0.00  0.00    +0.021 A 
ATOM     24  C   UNL     1      10.381   7.413  -0.058  0.00  0.00    +0.041 A 
ATOM     25  C   UNL     1      10.186   8.784  -0.048  0.00  0.00    +0.021 A 
ATOM     26  C   UNL     1       8.908   9.302  -0.033  0.00  0.00    +0.014 A 
ATOM     27  C   UNL     1       7.809   8.440  -0.027  0.00  0.00    +0.037 A 
ATOM     28 CL   UNL     1      11.993   6.768  -0.077  0.00  0.00    -0.084 Cl
ENDBRANCH  18  27
ENDBRANCH  16  20
ENDBRANCH   1  16
TORSDOF 7
