REMARK  Name = ZINC03161157
REMARK  3 active torsions:
REMARK  status: ('A' for Active; 'I' for Inactive)
REMARK    1  A    between atoms: C_3  and  O_8
REMARK    2  A    between atoms: C_6  and  N_7
REMARK    3  A    between atoms: O_8  and  C_9
REMARK                            x       y       z     vdW  Elec       q    Type
REMARK                         _______ _______ _______ _____ _____    ______ ____
ROOT
ATOM      1  C   UNL     1      -0.055   0.017  -0.092  0.00  0.00    +0.026 A 
ATOM      2  C   UNL     1      -0.051   1.398  -0.074  0.00  0.00    +0.048 A 
ATOM      3  C   UNL     1       1.152   2.087  -0.009  0.00  0.00    +0.129 A 
ATOM      4  C   UNL     1       2.350   1.390   0.038  0.00  0.00    +0.048 A 
ATOM      5  C   UNL     1       2.347   0.009   0.020  0.00  0.00    +0.026 A 
ATOM      6  C   UNL     1       1.144  -0.682  -0.046  0.00  0.00    +0.025 A 
ENDROOT
BRANCH   6   7
ATOM      7  N   UNL     1       1.140  -2.081  -0.065  0.00  0.00    -0.358 N 
ATOM      8  H   UNL     1       0.299  -2.563  -0.111  0.00  0.00    +0.142 HD
ATOM      9  H   UNL     1       1.978  -2.569  -0.032  0.00  0.00    +0.142 HD
ENDBRANCH   6   7
BRANCH   3  10
ATOM     10  O   UNL     1       1.156   3.447   0.009  0.00  0.00    -0.455 OA
BRANCH  10  11
ATOM     11  C   UNL     1       0.650   4.072   1.105  0.00  0.00    +0.142 A 
ATOM     12  C   UNL     1       0.269   3.331   2.214  0.00  0.00    +0.048 A 
ATOM     13  C   UNL     1      -0.245   3.968   3.326  0.00  0.00    +0.019 A 
ATOM     14  C   UNL     1      -0.379   5.345   3.336  0.00  0.00    +0.019 A 
ATOM     15  C   UNL     1      -0.001   6.087   2.231  0.00  0.00    +0.034 A 
ATOM     16  C   UNL     1       0.519   5.454   1.118  0.00  0.00    +0.061 A 
ATOM     17 BR   UNL     1       1.044   6.469  -0.389  0.00  0.00    -0.046 Br
ATOM     18 BR   UNL     1      -1.082   6.215   4.861  0.00  0.00    -0.050 Br
ENDBRANCH  10  11
ENDBRANCH   3  10
TORSDOF 3
