REMARK  Name = ZINC02281652
REMARK  5 active torsions:
REMARK  status: ('A' for Active; 'I' for Inactive)
REMARK    1  A    between atoms: C_1  and  C_2
REMARK    2  A    between atoms: C_9  and  N_27
REMARK    3  A    between atoms: C_10  and  C_13
REMARK    4  A    between atoms: N_17  and  C_21
REMARK    5  A    between atoms: C_30  and  C_33
REMARK                            x       y       z     vdW  Elec       q    Type
REMARK                         _______ _______ _______ _____ _____    ______ ____
ROOT
ATOM      1  C   UNL     1      -0.302  -2.777  -0.439  0.00  0.00    +0.047 C 
ATOM      2  C   UNL     1       1.029  -2.090  -0.273  0.00  0.00    -0.007 A 
ATOM      3  C   UNL     1       2.180  -2.821  -0.246  0.00  0.00    +0.008 A 
ATOM      4  C   UNL     1       3.410  -2.169  -0.092  0.00  0.00    +0.019 A 
ATOM      5  C   UNL     1       3.453  -0.823   0.029  0.00  0.00    +0.096 A 
ATOM      6  N   UNL     1       2.309  -0.083   0.004  0.00  0.00    -0.267 N 
ATOM      7  C   UNL     1       1.093  -0.691  -0.145  0.00  0.00    +0.145 A 
ATOM      8  N   UNL     1      -0.037   0.015  -0.173  0.00  0.00    -0.213 NA
ATOM      9  C   UNL     1      -0.035   1.335  -0.058  0.00  0.00    +0.136 A 
ATOM     10  C   UNL     1       1.193   2.020   0.100  0.00  0.00    +0.081 A 
ATOM     11  C   UNL     1       2.387   1.260   0.128  0.00  0.00    +0.267 A 
ATOM     12  O   UNL     1       3.468   1.808   0.260  0.00  0.00    -0.267 OA
ENDROOT
BRANCH  10  13
ATOM     13  C   UNL     1       1.228   3.428   0.225  0.00  0.00    +0.037 C 
ATOM     14  C   UNL     1       0.515   4.043   1.214  0.00  0.00    +0.077 C 
ATOM     15  C   UNL     1       0.320   5.432   1.460  0.00  0.00    +0.259 C 
ATOM     16  O   UNL     1       0.822   6.273   0.736  0.00  0.00    -0.269 OA
ATOM     17  N   UNL     1      -0.425   5.782   2.494  0.00  0.00    -0.252 N 
ATOM     18  C   UNL     1      -0.977   4.849   3.301  0.00  0.00    +0.121 C 
ATOM     19  S   UNL     1      -1.959   5.072   4.685  0.00  0.00    -0.027 S 
ATOM     20  S   UNL     1      -0.419   3.323   2.557  0.00  0.00    -0.061 S 
BRANCH  17  21
ATOM     21  C   UNL     1      -0.650   7.203   2.773  0.00  0.00    +0.083 C 
ATOM     22  C   UNL     1      -0.111   7.541   4.164  0.00  0.00    +0.023 C 
ATOM     23  C   UNL     1      -0.346   9.024   4.456  0.00  0.00    +0.002 C 
ATOM     24  C   UNL     1      -1.846   9.322   4.404  0.00  0.00    +0.000 C 
ATOM     25  C   UNL     1      -2.386   8.984   3.013  0.00  0.00    +0.002 C 
ATOM     26  C   UNL     1      -2.150   7.501   2.722  0.00  0.00    +0.023 C 
ENDBRANCH  17  21
ENDBRANCH  10  13
BRANCH   9  27
ATOM     27  N   UNL     1      -1.220   2.037  -0.096  0.00  0.00    -0.315 N 
ATOM     28  C   UNL     1      -1.575   2.394  -1.475  0.00  0.00    +0.107 C 
ATOM     29  C   UNL     1      -2.814   3.293  -1.468  0.00  0.00    +0.022 C 
ATOM     30  C   UNL     1      -3.974   2.551  -0.798  0.00  0.00    -0.011 C 
ATOM     31  C   UNL     1      -3.560   2.147   0.620  0.00  0.00    +0.022 C 
ATOM     32  C   UNL     1      -2.300   1.282   0.552  0.00  0.00    +0.107 C 
ATOM     33  C   UNL     1      -5.197   3.467  -0.733  0.00  0.00    +0.007 C 
ENDBRANCH   9  27
TORSDOF 3
