REMARK  Name = ZINC21804093
REMARK  9 active torsions:
REMARK  status: ('A' for Active; 'I' for Inactive)
REMARK    1  A    between atoms: C_1  and  C_2
REMARK    2  A    between atoms: C_5  and  N_9
REMARK    3  A    between atoms: C_6  and  C_8
REMARK    4  A    between atoms: C_10  and  C_12
REMARK    5  A    between atoms: C_12  and  C_13
REMARK    6  A    between atoms: C_13  and  C_14
REMARK    7  A    between atoms: C_15  and  C_33
REMARK    8  A    between atoms: N_24  and  C_25
REMARK    9  A    between atoms: C_25  and  C_26
REMARK                            x       y       z     vdW  Elec       q    Type
REMARK                         _______ _______ _______ _____ _____    ______ ____
ROOT
ATOM      1  C   UNL     1       0.017  -0.028   0.003  0.00  0.00    +0.040 A 
ATOM      2  C   UNL     1       0.009   1.324   0.009  0.00  0.00    +0.050 A 
ATOM      3  N   UNL     1       1.186   2.013   0.002  0.00  0.00    -0.215 NA
ATOM      4  C   UNL     1       2.384   1.338  -0.011  0.00  0.00    +0.258 A 
ATOM      5  N   UNL     1       3.635   1.751  -0.019  0.00  0.00    -0.176 NA
ATOM      6  C   UNL     1       4.459   0.698  -0.029  0.00  0.00    +0.237 A 
ATOM      7  N   UNL     1       3.748  -0.406  -0.029  0.00  0.00    -0.125 NA
ATOM      8  N   UNL     1       2.400  -0.023  -0.016  0.00  0.00    -0.158 N 
ATOM      9  C   UNL     1       1.248  -0.718  -0.010  0.00  0.00    +0.279 A 
ATOM     10  O   UNL     1       1.268  -1.936  -0.014  0.00  0.00    -0.265 OA
ATOM     11  N   UNL     1       5.850   0.762  -0.040  0.00  0.00    -0.308 N 
ATOM     12  C   UNL     1      -1.300   2.070   0.016  0.00  0.00    +0.066 C 
ATOM     13  H   UNL     1       6.443  -0.164  -0.049  0.00  0.00    +0.149 HD
ENDROOT
BRANCH   1  14
ATOM     14  C   UNL     1      -1.281  -0.794   0.011  0.00  0.00    +0.051 C 
BRANCH  14  15
ATOM     15  C   UNL     1      -1.669  -1.155  -1.424  0.00  0.00    +0.101 C 
BRANCH  15  17
ATOM     16  N   UNL     1      -3.505  -2.347  -2.576  0.00  0.00    -0.285 N 
ATOM     17  C   UNL     1      -2.966  -1.921  -1.416  0.00  0.00    +0.218 C 
ATOM     18  O   UNL     1      -3.526  -2.155  -0.365  0.00  0.00    -0.275 OA
ATOM     19  H   UNL     1      -3.047  -2.058  -3.533  0.00  0.00    +0.155 HD
BRANCH  16  24
ATOM     20  C   UNL     1      -8.134  -5.626  -2.519  0.00  0.00    +0.044 C 
ATOM     21  C   UNL     1      -6.904  -4.755  -2.534  0.00  0.00    -0.050 A 
ATOM     22  C   UNL     1      -6.061  -4.733  -1.439  0.00  0.00    +0.005 A 
ATOM     23  C   UNL     1      -4.933  -3.936  -1.449  0.00  0.00    +0.024 A 
ATOM     24  C   UNL     1      -4.647  -3.155  -2.562  0.00  0.00    +0.036 A 
ATOM     25  C   UNL     1      -5.499  -3.175  -3.658  0.00  0.00    -0.029 A 
ATOM     26  C   UNL     1      -6.622  -3.979  -3.643  0.00  0.00    +0.008 A 
ATOM     27  C   UNL     1      -5.196  -2.325  -4.864  0.00  0.00    +0.045 C 
ENDBRANCH  16  24
ENDBRANCH  15  17
ENDBRANCH  14  15
ENDBRANCH   1  14
BRANCH  11  28
ATOM     28  C   UNL     1       6.523   2.064  -0.040  0.00  0.00    +0.139 C 
BRANCH  28  29
ATOM     29  C   UNL     1       8.016   1.857  -0.053  0.00  0.00    -0.030 A 
ATOM     30  C   UNL     1       8.711   1.763   1.139  0.00  0.00    +0.006 A 
ATOM     31  C   UNL     1      10.079   1.567   1.128  0.00  0.00    +0.020 A 
ATOM     32  C   UNL     1      10.755   1.477  -0.076  0.00  0.00    +0.041 A 
ATOM     33  C   UNL     1      10.060   1.577  -1.268  0.00  0.00    +0.020 A 
ATOM     34  C   UNL     1       8.691   1.767  -1.256  0.00  0.00    +0.006 A 
ATOM     35 CL   UNL     1      12.474   1.239  -0.090  0.00  0.00    -0.084 Cl
ENDBRANCH  28  29
ENDBRANCH  11  28
TORSDOF 6
