REMARK  Name = ZINC44754982
REMARK  9 active torsions:
REMARK  status: ('A' for Active; 'I' for Inactive)
REMARK    1  A    between atoms: C_1  and  C_2
REMARK    2  A    between atoms: C_2  and  C_3
REMARK    3  A    between atoms: C_6  and  C_9
REMARK    4  A    between atoms: C_11  and  C_14
REMARK    5  A    between atoms: C_14  and  C_15
REMARK    6  A    between atoms: N_17  and  C_18
REMARK    7  A    between atoms: C_21  and  C_28
REMARK    8  A    between atoms: C_22  and  N_24
REMARK    9  A    between atoms: C_25  and  C_27
REMARK                            x       y       z     vdW  Elec       q    Type
REMARK                         _______ _______ _______ _____ _____    ______ ____
ROOT
ATOM      1  C   UNL     1      -8.394  -1.892  -2.878  0.00  0.00    +0.223 C 
ATOM      2  O   UNL     1      -7.807  -0.871  -2.587  0.00  0.00    -0.275 OA
ATOM      3  N   UNL     1      -9.137  -1.945  -4.002  0.00  0.00    -0.285 N 
ATOM      4  H   UNL     1      -9.552  -2.779  -4.270  0.00  0.00    +0.155 HD
ENDROOT
BRANCH   3   5
ATOM      5  C   UNL     1      -9.310  -0.795  -4.781  0.00  0.00    +0.035 A 
ATOM      6  C   UNL     1      -8.273   0.121  -4.907  0.00  0.00    +0.024 A 
ATOM      7  C   UNL     1      -8.443   1.256  -5.677  0.00  0.00    +0.007 A 
ATOM      8  C   UNL     1      -9.643   1.483  -6.323  0.00  0.00    -0.029 A 
ATOM      9  C   UNL     1     -10.683   0.571  -6.200  0.00  0.00    +0.038 A 
ATOM     10  C   UNL     1     -10.514  -0.573  -5.432  0.00  0.00    +0.047 A 
ATOM     11  C   UNL     1      -9.825   2.723  -7.160  0.00  0.00    +0.045 C 
BRANCH   9  12
ATOM     12  N   UNL     1     -11.899   0.801  -6.854  0.00  0.00    -0.285 N 
ATOM     13  C   UNL     1     -13.056   0.417  -6.281  0.00  0.00    +0.214 C 
ATOM     14  O   UNL     1     -13.040  -0.203  -5.239  0.00  0.00    -0.276 OA
ATOM     15  C   UNL     1     -14.370   0.756  -6.936  0.00  0.00    +0.109 C 
ATOM     16  H   UNL     1     -11.908   1.238  -7.720  0.00  0.00    +0.155 HD
ENDBRANCH   9  12
ENDBRANCH   3   5
BRANCH   1  17
ATOM     17  C   UNL     1      -8.292  -3.101  -1.985  0.00  0.00    +0.152 C 
BRANCH  17  20
ATOM     18  C   UNL     1      -5.395  -2.040   0.019  0.00  0.00    +0.109 A 
ATOM     19  N   UNL     1      -6.192  -2.329  -1.000  0.00  0.00    -0.243 NA
ATOM     20  C   UNL     1      -7.409  -2.781  -0.806  0.00  0.00    +0.058 A 
ATOM     21  C   UNL     1      -7.871  -2.961   0.460  0.00  0.00    +0.071 A 
ATOM     22  S   UNL     1      -6.445  -2.446   1.408  0.00  0.00    -0.075 S 
BRANCH  18  26
ATOM     23  C   UNL     1      -1.413  -0.563  -0.008  0.00  0.00    -0.048 A 
ATOM     24  C   UNL     1      -2.046  -0.812   1.196  0.00  0.00    +0.004 A 
ATOM     25  C   UNL     1      -3.340  -1.292   1.212  0.00  0.00    +0.011 A 
ATOM     26  C   UNL     1      -4.009  -1.525   0.010  0.00  0.00    +0.007 A 
ATOM     27  C   UNL     1      -3.364  -1.272  -1.202  0.00  0.00    +0.011 A 
ATOM     28  C   UNL     1      -2.072  -0.787  -1.204  0.00  0.00    +0.004 A 
BRANCH  23  30
ATOM     29  C   UNL     1      -0.023   1.491   0.001  0.00  0.00    +0.009 C 
ATOM     30  C   UNL     1       0.000  -0.038  -0.018  0.00  0.00    +0.032 C 
ENDBRANCH  23  30
ENDBRANCH  18  26
ENDBRANCH  17  20
ENDBRANCH   1  17
TORSDOF 6
