REMARK  Name = ZINC26841032
REMARK  6 active torsions:
REMARK  status: ('A' for Active; 'I' for Inactive)
REMARK    1  A    between atoms: C_1  and  C_2
REMARK    2  A    between atoms: N_8  and  N_9
REMARK    3  A    between atoms: N_9  and  C_10
REMARK    4  A    between atoms: C_13  and  C_17
REMARK    5  A    between atoms: C_14  and  O_16
REMARK    6  A    between atoms: C_22  and  C_25
REMARK                            x       y       z     vdW  Elec       q    Type
REMARK                         _______ _______ _______ _____ _____    ______ ____
ROOT
ATOM      1  C   UNL     1      -0.018   1.503   0.010  0.00  0.00    +0.070 C 
ATOM      2  C   UNL     1       0.002  -0.004   0.002  0.00  0.00    +0.089 C 
ATOM      3  N   UNL     1       0.008  -0.765  -1.049  0.00  0.00    -0.173 NA
ATOM      4  N   UNL     1       0.028  -2.115  -0.702  0.00  0.00    -0.130 N 
ATOM      5  C   UNL     1       0.036  -2.249   0.640  0.00  0.00    +0.294 C 
ATOM      6  O   UNL     1       0.053  -3.290   1.273  0.00  0.00    -0.266 OA
ATOM      7  C   UNL     1       0.025  -0.880   1.184  0.00  0.00    +0.168 C 
ATOM      8  N   UNL     1       0.033  -0.518   2.454  0.00  0.00    -0.175 NA
ATOM      9  C   UNL     1       0.038  -3.171  -1.608  0.00  0.00    +0.189 A 
ATOM     10  N   UNL     1       0.037  -3.139  -2.928  0.00  0.00    -0.223 NA
ATOM     11  C   UNL     1       0.049  -4.253  -3.643  0.00  0.00    +0.080 A 
ATOM     12  C   UNL     1       0.062  -5.461  -3.002  0.00  0.00    +0.077 A 
ATOM     13  S   UNL     1       0.064  -4.930  -1.294  0.00  0.00    -0.058 S 
ENDROOT
BRANCH  11  14
ATOM     14  C   UNL     1       0.047  -4.191  -5.125  0.00  0.00    +0.001 A 
ATOM     15  C   UNL     1       0.052  -5.367  -5.873  0.00  0.00    +0.011 A 
ATOM     16  C   UNL     1       0.051  -5.305  -7.252  0.00  0.00    +0.020 A 
ATOM     17  C   UNL     1       0.044  -4.077  -7.891  0.00  0.00    +0.041 A 
ATOM     18  C   UNL     1       0.038  -2.906  -7.152  0.00  0.00    +0.020 A 
ATOM     19  C   UNL     1       0.034  -2.958  -5.773  0.00  0.00    +0.011 A 
ATOM     20 CL   UNL     1       0.043  -4.005  -9.626  0.00  0.00    -0.084 Cl
ENDBRANCH  11  14
BRANCH   8  21
ATOM     21  N   UNL     1       0.053  -1.415   3.380  0.00  0.00    -0.237 N 
ATOM     22  H   UNL     1       0.064  -2.356   3.144  0.00  0.00    +0.174 HD
BRANCH  21  23
ATOM     23  C   UNL     1       0.061  -1.034   4.718  0.00  0.00    +0.052 A 
ATOM     24  C   UNL     1       0.041   0.319   5.054  0.00  0.00    +0.026 A 
ATOM     25  C   UNL     1       0.048   0.704   6.363  0.00  0.00    +0.020 A 
ATOM     26  C   UNL     1       0.076  -0.260   7.379  0.00  0.00    +0.105 A 
ATOM     27  C   UNL     1       0.097  -1.624   7.045  0.00  0.00    +0.133 A 
ATOM     28  C   UNL     1       0.084  -2.003   5.713  0.00  0.00    +0.071 A 
BRANCH  26  29
ATOM     29  C   UNL     1       0.085   0.155   8.788  0.00  0.00    +0.390 C 
ATOM     30  O   UNL     1       0.067   1.344   9.077  0.00  0.00    -0.240 OA
ATOM     31  O   UNL     1       0.110  -0.689   9.674  0.00  0.00    -0.240 OA
ENDBRANCH  26  29
BRANCH  27  32
ATOM     32  O   UNL     1       0.125  -2.565   8.021  0.00  0.00    -0.506 OA
ATOM     33  H   UNL     1      -0.750  -2.854   8.314  0.00  0.00    +0.292 HD
ENDBRANCH  27  32
ENDBRANCH  21  23
ENDBRANCH   8  21
TORSDOF 5
