REMARK  Name = ZINC23481547
REMARK  7 active torsions:
REMARK  status: ('A' for Active; 'I' for Inactive)
REMARK    1  A    between atoms: C_1  and  C_2
REMARK    2  A    between atoms: C_2  and  C_4
REMARK    3  A    between atoms: C_2  and  N_14
REMARK    4  A    between atoms: C_7  and  S_10
REMARK    5  A    between atoms: S_10  and  N_13
REMARK    6  A    between atoms: C_15  and  C_17
REMARK    7  A    between atoms: C_17  and  C_18
REMARK                            x       y       z     vdW  Elec       q    Type
REMARK                         _______ _______ _______ _____ _____    ______ ____
ROOT
ATOM      1  N   UNL     1      -3.523   4.479   4.783  0.00  0.00    -0.308 N 
ATOM      2  C   UNL     1      -4.601   4.939   5.447  0.00  0.00    +0.218 C 
ATOM      3  O   UNL     1      -5.248   4.188   6.146  0.00  0.00    -0.275 OA
ATOM      4  H   UNL     1      -2.936   5.159   4.149  0.00  0.00    +0.149 HD
ENDROOT
BRANCH   1   6
ATOM      5  C   UNL     1      -2.260   2.892   6.150  0.00  0.00    +0.033 C 
ATOM      6  C   UNL     1      -3.132   3.072   4.905  0.00  0.00    +0.100 C 
BRANCH   6   7
ATOM      7  C   UNL     1      -2.354   2.659   3.683  0.00  0.00    -0.027 A 
ATOM      8  C   UNL     1      -2.559   1.412   3.122  0.00  0.00    +0.007 A 
ATOM      9  C   UNL     1      -1.846   1.033   2.000  0.00  0.00    +0.029 A 
ATOM     10  C   UNL     1      -0.927   1.900   1.439  0.00  0.00    +0.105 A 
ATOM     11  C   UNL     1      -0.717   3.145   2.004  0.00  0.00    +0.029 A 
ATOM     12  C   UNL     1      -1.434   3.526   3.123  0.00  0.00    +0.007 A 
BRANCH  10  13
ATOM     13  S   UNL     1      -0.017   1.417   0.010  0.00  0.00    +0.056 S 
ATOM     14  O   UNL     1       0.002  -0.004   0.002  0.00  0.00    -0.153 OA
ATOM     15  O   UNL     1       1.172   2.195   0.003  0.00  0.00    -0.153 OA
BRANCH  13  16
ATOM     16  N   UNL     1      -0.897   1.885  -1.312  0.00  0.00    -0.204 NA
ATOM     17  H   UNL     1      -0.361   1.601  -2.229  0.00  0.00    +0.144 HD
ATOM     18  H   UNL     1      -1.036   2.977  -1.292  0.00  0.00    +0.144 HD
ENDBRANCH  13  16
ENDBRANCH  10  13
ENDBRANCH   6   7
ENDBRANCH   1   6
BRANCH   2  19
ATOM     19  C   UNL     1      -5.004   6.385   5.321  0.00  0.00    +0.131 C 
BRANCH  19  20
ATOM     20  C   UNL     1      -6.232   6.640   6.156  0.00  0.00    -0.034 A 
ATOM     21  C   UNL     1      -6.099   7.031   7.477  0.00  0.00    +0.053 A 
ATOM     22  C   UNL     1      -7.229   7.264   8.241  0.00  0.00    +0.164 A 
ATOM     23  C   UNL     1      -8.490   7.105   7.684  0.00  0.00    +0.180 A 
ATOM     24  C   UNL     1      -8.621   6.713   6.362  0.00  0.00    +0.086 A 
ATOM     25  C   UNL     1      -7.487   6.487   5.599  0.00  0.00    +0.028 A 
ATOM     26 CL   UNL     1     -10.197   6.514   5.663  0.00  0.00    -0.080 Cl
ATOM     27  O   UNL     1      -9.599   7.337   8.446  0.00  0.00    -0.487 OA
ATOM     28  C   UNL     1      -9.823   8.696   8.827  0.00  0.00    +0.232 C 
ATOM     29  C   UNL     1      -9.028   9.044  10.075  0.00  0.00    +0.082 C 
ATOM     30  C   UNL     1      -7.526   8.985   9.841  0.00  0.00    +0.232 C 
ATOM     31  O   UNL     1      -7.112   7.649   9.545  0.00  0.00    -0.488 OA
ENDBRANCH  19  20
ENDBRANCH   2  19
TORSDOF 6
