REMARK  Name = ZINC05408900
REMARK  9 active torsions:
REMARK  status: ('A' for Active; 'I' for Inactive)
REMARK    1  A    between atoms: C_1  and  C_2
REMARK    2  A    between atoms: C_2  and  C_3
REMARK    3  A    between atoms: C_2  and  C_4
REMARK    4  A    between atoms: C_2  and  C_5
REMARK    5  A    between atoms: C_13  and  C_25
REMARK    6  A    between atoms: C_15  and  C_21
REMARK    7  A    between atoms: C_15  and  C_23
REMARK    8  A    between atoms: C_16  and  N_20
REMARK    9  A    between atoms: C_17  and  C_18
REMARK                            x       y       z     vdW  Elec       q    Type
REMARK                         _______ _______ _______ _____ _____    ______ ____
ROOT
ATOM      1  C   UNL     1       0.033   1.062  -0.072  0.00  0.00    -0.001 C 
ATOM      2  C   UNL     1      -0.349   1.167   1.411  0.00  0.00    +0.031 C 
ATOM      3  C   UNL     1      -0.324   2.625   1.790  0.00  0.00    -0.021 C 
ATOM      4  C   UNL     1      -0.634   3.561   0.915  0.00  0.00    -0.029 C 
ATOM      5  C   UNL     1      -1.083   3.280  -0.488  0.00  0.00    +0.031 C 
ATOM      6  C   UNL     1      -1.004   1.826  -0.892  0.00  0.00    +0.013 C 
ATOM      7  C   UNL     1      -0.289   4.179  -1.437  0.00  0.00    +0.066 C 
ATOM      8  C   UNL     1      -0.619   5.640  -1.127  0.00  0.00    +0.188 C 
ATOM      9  C   UNL     1      -0.474   5.941   0.335  0.00  0.00    +0.054 C 
ATOM     10  C   UNL     1      -0.490   4.990   1.302  0.00  0.00    +0.074 C 
ENDROOT
BRANCH   7  11
ATOM     11  C   UNL     1      -0.667   3.868  -2.862  0.00  0.00    -0.041 A 
ATOM     12  C   UNL     1       0.231   4.112  -3.884  0.00  0.00    +0.004 A 
ATOM     13  C   UNL     1      -0.114   3.822  -5.191  0.00  0.00    +0.000 A 
ATOM     14  C   UNL     1      -1.361   3.298  -5.476  0.00  0.00    +0.000 A 
ATOM     15  C   UNL     1      -2.261   3.059  -4.455  0.00  0.00    +0.000 A 
ATOM     16  C   UNL     1      -1.914   3.344  -3.147  0.00  0.00    +0.004 A 
ENDBRANCH   7  11
BRANCH   1  18
ATOM     17  C   UNL     1       2.491   0.691   0.175  0.00  0.00    +0.011 C 
ATOM     18  C   UNL     1       1.417   1.675  -0.292  0.00  0.00    -0.035 C 
ATOM     19  C   UNL     1       1.613   1.974  -1.780  0.00  0.00    +0.011 C 
ATOM     20  C   UNL     1       1.533   2.974   0.508  0.00  0.00    +0.011 C 
ENDBRANCH   1  18
BRANCH   9  21
ATOM     21  N   UNL     1      -0.318   7.245   0.713  0.00  0.00    -0.358 N 
ATOM     22  H   UNL     1      -0.210   7.500   1.778  0.00  0.00    +0.142 HD
ATOM     23  H   UNL     1      -0.301   8.040  -0.046  0.00  0.00    +0.142 HD
ENDBRANCH   9  21
BRANCH  10  24
ATOM     24  C   UNL     1      -0.369   5.358   2.680  0.00  0.00    +0.101 C 
ATOM     25  N   UNL     1      -0.273   5.649   3.774  0.00  0.00    -0.191 NA
ENDBRANCH  10  24
BRANCH   8  26
ATOM     26  C   UNL     1       0.292   6.510  -1.889  0.00  0.00    +0.091 C 
ATOM     27  N   UNL     1       0.995   7.182  -2.477  0.00  0.00    -0.194 NA
ENDBRANCH   8  26
BRANCH   8  28
ATOM     28  C   UNL     1      -2.004   5.917  -1.538  0.00  0.00    +0.091 C 
ATOM     29  N   UNL     1      -3.074   6.131  -1.856  0.00  0.00    -0.194 NA
ENDBRANCH   8  28
TORSDOF 6
