REMARK  Name = ZINC33058983
REMARK  13 active torsions:
REMARK  status: ('A' for Active; 'I' for Inactive)
REMARK    1  A    between atoms: C_1  and  C_2
REMARK    2  A    between atoms: C_2  and  N_3
REMARK    3  A    between atoms: N_3  and  C_4
REMARK    4  A    between atoms: C_8  and  C_10
REMARK    5  A    between atoms: C_11  and  C_13
REMARK    6  A    between atoms: N_16  and  S_19
REMARK    7  A    between atoms: S_19  and  C_22
REMARK    8  A    between atoms: C_23  and  C_38
REMARK    9  A    between atoms: C_26  and  C_27
REMARK   10  A    between atoms: C_28  and  C_29
REMARK   11  A    between atoms: C_30  and  C_37
REMARK   12  A    between atoms: C_32  and  C_36
REMARK   13  A    between atoms: C_34  and  C_35
REMARK                            x       y       z     vdW  Elec       q    Type
REMARK                         _______ _______ _______ _____ _____    ______ ____
ROOT
ATOM      1  S   UNL     1      -0.335   1.658  11.365  0.00  0.00    +0.066 S 
ATOM      2  O   UNL     1       0.797   0.879  11.725  0.00  0.00    -0.153 OA
ATOM      3  O   UNL     1      -0.863   2.671  12.210  0.00  0.00    -0.153 OA
ENDROOT
BRANCH   1   7
ATOM      4  C   UNL     1      -0.148   2.969   7.162  0.00  0.00    +0.078 C 
ATOM      5  C   UNL     1       0.422   1.631   7.638  0.00  0.00    +0.030 C 
ATOM      6  C   UNL     1       1.042   1.810   9.027  0.00  0.00    +0.110 C 
ATOM      7  N   UNL     1       0.033   2.389   9.925  0.00  0.00    -0.176 NA
ATOM      8  C   UNL     1      -0.644   3.629   9.520  0.00  0.00    +0.110 C 
ATOM      9  C   UNL     1      -1.245   3.430   8.125  0.00  0.00    +0.030 C 
BRANCH   4  11
ATOM     10  N   UNL     1       0.079   2.832   4.703  0.00  0.00    -0.271 N 
ATOM     11  C   UNL     1      -0.729   2.805   5.782  0.00  0.00    +0.223 C 
ATOM     12  O   UNL     1      -1.924   2.648   5.641  0.00  0.00    -0.275 OA
BRANCH  10  13
ATOM     13  C   UNL     1      -0.471   2.796   3.417  0.00  0.00    +0.036 A 
ATOM     14  C   UNL     1      -1.830   2.570   3.246  0.00  0.00    +0.023 A 
ATOM     15  C   UNL     1      -2.369   2.535   1.976  0.00  0.00    +0.002 A 
ATOM     16  C   UNL     1      -1.557   2.730   0.873  0.00  0.00    +0.003 A 
ATOM     17  C   UNL     1      -0.203   2.950   1.039  0.00  0.00    -0.049 A 
ATOM     18  C   UNL     1       0.343   2.986   2.307  0.00  0.00    +0.027 A 
ATOM     19  C   UNL     1       0.679   3.157  -0.166  0.00  0.00    +0.044 C 
ENDBRANCH  10  13
BRANCH  10  21
ATOM     20  C   UNL     1       1.986   4.359   4.815  0.00  0.00    +0.025 C 
ATOM     21  C   UNL     1       1.532   2.900   4.878  0.00  0.00    +0.110 C 
ENDBRANCH  10  21
ENDBRANCH   4  11
ENDBRANCH   1   7
BRANCH   1  22
ATOM     22  C   UNL     1      -1.648   0.525  11.053  0.00  0.00    +0.174 A 
ATOM     23  C   UNL     1      -1.556  -0.830  10.685  0.00  0.00    +0.107 A 
ATOM     24  N   UNL     1      -2.778  -1.269  10.564  0.00  0.00    -0.081 NA
ATOM     25  O   UNL     1      -3.594  -0.408  10.797  0.00  0.00    -0.353 OA
ATOM     26  C   UNL     1      -3.001   0.757  11.120  0.00  0.00    +0.187 A 
ATOM     27  C   UNL     1      -0.291  -1.621  10.472  0.00  0.00    +0.071 C 
BRANCH  26  28
ATOM     28  C   UNL     1      -3.663   2.017  11.469  0.00  0.00    +0.051 C 
ATOM     29  C   UNL     1      -5.008   2.087  11.491  0.00  0.00    +0.012 C 
BRANCH  29  30
ATOM     30  C   UNL     1      -5.674   3.353  11.841  0.00  0.00    -0.019 A 
ATOM     31  C   UNL     1      -5.301   4.047  12.996  0.00  0.00    -0.043 A 
ATOM     32  C   UNL     1      -5.925   5.234  13.315  0.00  0.00    +0.007 A 
ATOM     33  C   UNL     1      -6.926   5.734  12.501  0.00  0.00    -0.050 A 
ATOM     34  C   UNL     1      -7.305   5.050  11.359  0.00  0.00    +0.007 A 
ATOM     35  C   UNL     1      -6.686   3.864  11.024  0.00  0.00    -0.043 A 
ATOM     36  C   UNL     1      -7.100   3.121   9.780  0.00  0.00    +0.044 C 
ATOM     37  C   UNL     1      -7.607   7.030  12.859  0.00  0.00    +0.044 C 
ATOM     38  C   UNL     1      -4.215   3.501  13.888  0.00  0.00    +0.044 C 
ENDBRANCH  29  30
ENDBRANCH  26  28
ENDBRANCH   1  22
TORSDOF 7
