REMARK  Name = ZINC16605650
REMARK  4 active torsions:
REMARK  status: ('A' for Active; 'I' for Inactive)
REMARK    1  A    between atoms: C_1  and  C_2
REMARK    2  A    between atoms: C_6  and  C_22
REMARK    3  A    between atoms: C_9  and  N_12
REMARK    4  A    between atoms: N_15  and  C_16
REMARK                            x       y       z     vdW  Elec       q    Type
REMARK                         _______ _______ _______ _____ _____    ______ ____
ROOT
ATOM      1  C   UNL     1      -0.019   1.526   0.010  0.00  0.00    +0.011 C 
ATOM      2  C   UNL     1       0.002  -0.004   0.002  0.00  0.00    -0.029 C 
ATOM      3  C   UNL     1       0.718  -0.497  -1.257  0.00  0.00    +0.010 C 
ATOM      4  C   UNL     1       0.739  -2.027  -1.265  0.00  0.00    -0.008 C 
ATOM      5  C   UNL     1       1.479  -2.534  -0.026  0.00  0.00    +0.010 C 
ATOM      6  C   UNL     1       0.763  -2.041   1.233  0.00  0.00    -0.029 C 
ATOM      7  C   UNL     1       0.742  -0.511   1.242  0.00  0.00    +0.013 C 
ATOM      8  C   UNL     1      -0.673  -2.570   1.244  0.00  0.00    +0.032 C 
ATOM      9  C   UNL     1      -1.413  -2.063   0.004  0.00  0.00    +0.037 C 
ATOM     10  C   UNL     1      -0.696  -2.557  -1.254  0.00  0.00    +0.029 C 
ATOM     11  C   UNL     1      -1.433  -0.534   0.013  0.00  0.00    +0.032 C 
ATOM     12  C   UNL     1       1.503  -2.548   2.473  0.00  0.00    +0.011 C 
ENDROOT
BRANCH   9  13
ATOM     13  N   UNL     1      -2.787  -2.571   0.015  0.00  0.00    -0.294 N 
ATOM     14  C   UNL     1      -3.631  -2.251  -0.986  0.00  0.00    +0.300 C 
ATOM     15  O   UNL     1      -3.251  -1.542  -1.898  0.00  0.00    -0.253 OA
ATOM     16  N   UNL     1      -4.895  -2.717  -0.977  0.00  0.00    -0.297 N 
ATOM     17  H   UNL     1      -3.090  -3.136   0.742  0.00  0.00    +0.151 HD
ATOM     18  H   UNL     1      -5.198  -3.283  -0.249  0.00  0.00    +0.151 HD
BRANCH  16  19
ATOM     19  C   UNL     1      -5.812  -2.370  -2.065  0.00  0.00    +0.074 C 
ATOM     20  C   UNL     1      -6.465  -1.018  -1.770  0.00  0.00    +0.022 C 
ATOM     21  C   UNL     1      -7.423  -0.655  -2.906  0.00  0.00    +0.002 C 
ATOM     22  C   UNL     1      -8.506  -1.729  -3.023  0.00  0.00    +0.000 C 
ATOM     23  C   UNL     1      -7.854  -3.081  -3.318  0.00  0.00    +0.002 C 
ATOM     24  C   UNL     1      -6.896  -3.444  -2.182  0.00  0.00    +0.022 C 
ENDBRANCH  16  19
ENDBRANCH   9  13
TORSDOF 2
