REMARK  Name = ZINC40036771
REMARK  5 active torsions:
REMARK  status: ('A' for Active; 'I' for Inactive)
REMARK    1  A    between atoms: C_1  and  C_2
REMARK    2  A    between atoms: C_5  and  N_8
REMARK    3  A    between atoms: N_15  and  N_16
REMARK    4  A    between atoms: C_17  and  C_18
REMARK    5  A    between atoms: C_22  and  N_24
REMARK                            x       y       z     vdW  Elec       q    Type
REMARK                         _______ _______ _______ _____ _____    ______ ____
ROOT
ATOM      1  N   UNL     1       0.073  -4.171  -0.022  0.00  0.00    -0.248 N 
ATOM      2  C   UNL     1       0.184  -4.850   1.140  0.00  0.00    +0.264 A 
ATOM      3  O   UNL     1       0.306  -4.256   2.200  0.00  0.00    -0.267 OA
ATOM      4  C   UNL     1       0.156  -6.250   1.104  0.00  0.00    +0.050 A 
ATOM      5  C   UNL     1       0.013  -6.885  -0.119  0.00  0.00    +0.084 A 
ATOM      6  N   UNL     1      -0.062  -6.162  -1.242  0.00  0.00    -0.214 NA
ATOM      7  C   UNL     1      -0.042  -4.846  -1.202  0.00  0.00    +0.223 A 
ATOM      8  N   UNL     1      -0.132  -4.138  -2.373  0.00  0.00    -0.206 N 
ATOM      9  C   UNL     1      -0.085  -8.362  -0.157  0.00  0.00    +0.004 A 
ATOM     10  C   UNL     1       0.077  -9.056  -1.353  0.00  0.00    +0.010 A 
ATOM     11  C   UNL     1       0.001 -10.434  -1.360  0.00  0.00    +0.001 A 
ATOM     12  C   UNL     1      -0.232 -11.122  -0.182  0.00  0.00    +0.000 A 
ATOM     13  C   UNL     1      -0.402 -10.435   1.007  0.00  0.00    +0.004 A 
ATOM     14  C   UNL     1      -0.340  -9.057   1.025  0.00  0.00    -0.037 A 
ATOM     15  C   UNL     1      -0.577  -8.304   2.307  0.00  0.00    +0.047 C 
ATOM     16  C   UNL     1       0.297  -7.053   2.369  0.00  0.00    +0.007 C 
ATOM     17  C   UNL     1      -0.134  -6.194   3.562  0.00  0.00    +0.012 C 
ATOM     18  C   UNL     1       0.011  -7.004   4.851  0.00  0.00    +0.001 C 
ATOM     19  C   UNL     1       1.472  -7.421   5.030  0.00  0.00    +0.000 C 
ATOM     20  C   UNL     1       1.908  -8.275   3.837  0.00  0.00    +0.001 C 
ATOM     21  C   UNL     1       1.761  -7.464   2.548  0.00  0.00    +0.012 C 
ATOM     22  H   UNL     1      -0.052  -3.172  -2.363  0.00  0.00    +0.177 HD
ENDROOT
BRANCH   1  27
ATOM     23  C   UNL     1       0.057   1.503   0.003  0.00  0.00    +0.044 C 
ATOM     24  C   UNL     1       0.061  -0.004  -0.003  0.00  0.00    -0.050 A 
ATOM     25  C   UNL     1       1.257  -0.690  -0.110  0.00  0.00    +0.005 A 
ATOM     26  C   UNL     1       1.264  -2.071  -0.116  0.00  0.00    +0.026 A 
ATOM     27  C   UNL     1       0.069  -2.771  -0.015  0.00  0.00    +0.053 A 
ATOM     28  C   UNL     1      -1.131  -2.079   0.091  0.00  0.00    +0.026 A 
ATOM     29  C   UNL     1      -1.131  -0.698   0.103  0.00  0.00    +0.005 A 
ENDBRANCH   1  27
BRANCH   8  30
ATOM     30  N   UNL     1      -0.341  -4.811  -3.584  0.00  0.00    -0.188 NA
ATOM     31  C   UNL     1      -0.426  -4.141  -4.692  0.00  0.00    +0.138 C 
BRANCH  31  32
ATOM     32  C   UNL     1      -0.645  -4.850  -5.967  0.00  0.00    -0.003 A 
ATOM     33  C   UNL     1      -0.767  -6.241  -5.984  0.00  0.00    +0.009 A 
ATOM     34  C   UNL     1      -0.973  -6.897  -7.180  0.00  0.00    +0.003 A 
ATOM     35  C   UNL     1      -1.058  -6.180  -8.361  0.00  0.00    +0.033 A 
ATOM     36  C   UNL     1      -0.939  -4.802  -8.351  0.00  0.00    +0.127 A 
ATOM     37  C   UNL     1      -0.738  -4.132  -7.162  0.00  0.00    +0.042 A 
BRANCH  36  38
ATOM     38  N   UNL     1      -1.031  -4.043  -9.619  0.00  0.00    +0.056 N 
ATOM     39  O   UNL     1      -1.212  -4.628 -10.661  0.00  0.00    -0.126 OA
ATOM     40  O   UNL     1      -0.927  -2.839  -9.612  0.00  0.00    -0.126 OA
ENDBRANCH  36  38
ENDBRANCH  31  32
ENDBRANCH   8  30
TORSDOF 4
