REMARK  Name = ZINC49916776
REMARK  3 active torsions:
REMARK  status: ('A' for Active; 'I' for Inactive)
REMARK    1  A    between atoms: C_16  and  C_18
REMARK    2  A    between atoms: C_18  and  C_20
REMARK    3  A    between atoms: N_31  and  C_34
REMARK                            x       y       z     vdW  Elec       q    Type
REMARK                         _______ _______ _______ _____ _____    ______ ____
ROOT
ATOM      1  C   UNL     1      -0.017   1.374   0.010  0.00  0.00    +0.001 A 
ATOM      2  C   UNL     1       1.172   2.083   0.002  0.00  0.00    +0.000 A 
ATOM      3  C   UNL     1       2.382   1.415  -0.006  0.00  0.00    +0.006 A 
ATOM      4  C   UNL     1       2.424   0.036  -0.010  0.00  0.00    -0.019 A 
ATOM      5  C   UNL     1       1.217  -0.689  -0.015  0.00  0.00    -0.019 A 
ATOM      6  C   UNL     1       0.002  -0.004   0.002  0.00  0.00    +0.008 A 
ATOM      7  C   UNL     1       1.234  -2.163  -0.061  0.00  0.00    +0.023 C 
ATOM      8  C   UNL     1       2.377  -2.841  -0.274  0.00  0.00    +0.072 C 
ATOM      9  N   UNL     1       3.521  -2.099  -0.466  0.00  0.00    -0.317 N 
ATOM     10  C   UNL     1       3.685  -0.714   0.001  0.00  0.00    +0.117 C 
ATOM     11  C   UNL     1       4.971  -0.184  -0.482  0.00  0.00    +0.115 C 
ATOM     12  C   UNL     1       5.763  -1.557  -0.575  0.00  0.00    +0.118 C 
ATOM     13  C   UNL     1       4.770  -2.461  -1.199  0.00  0.00    +0.157 C 
ATOM     14  C   UNL     1       7.102  -1.075  -0.829  0.00  0.00    +0.232 C 
ATOM     15  O   UNL     1       7.952  -1.587  -1.526  0.00  0.00    -0.274 OA
ATOM     16  N   UNL     1       7.201   0.090  -0.108  0.00  0.00    -0.210 N 
ATOM     17  C   UNL     1       5.980   0.534   0.363  0.00  0.00    +0.232 C 
ATOM     18  O   UNL     1       5.765   1.321   1.260  0.00  0.00    -0.274 OA
ENDROOT
BRANCH  16  19
ATOM     19  C   UNL     1       8.409   0.768   0.116  0.00  0.00    +0.044 A 
ATOM     20  C   UNL     1       8.421   1.938   0.862  0.00  0.00    +0.027 A 
ATOM     21  C   UNL     1       9.611   2.604   1.082  0.00  0.00    +0.040 A 
ATOM     22  C   UNL     1      10.792   2.104   0.559  0.00  0.00    +0.124 A 
ATOM     23  C   UNL     1      10.782   0.937  -0.186  0.00  0.00    +0.040 A 
ATOM     24  C   UNL     1       9.595   0.265  -0.403  0.00  0.00    +0.027 A 
ATOM     25  F   UNL     1      11.955   2.757   0.775  0.00  0.00    -0.205 F 
ENDBRANCH  16  19
BRANCH  13  26
ATOM     26  C   UNL     1       4.632  -2.174  -2.672  0.00  0.00    +0.184 C 
ATOM     27  O   UNL     1       3.768  -1.420  -3.065  0.00  0.00    -0.290 OA
BRANCH  26  28
ATOM     28  C   UNL     1       5.545  -2.809  -3.632  0.00  0.00    +0.023 A 
ATOM     29  C   UNL     1       6.540  -3.685  -3.181  0.00  0.00    +0.015 A 
ATOM     30  C   UNL     1       7.393  -4.279  -4.083  0.00  0.00    +0.050 A 
ATOM     31  C   UNL     1       7.272  -4.012  -5.442  0.00  0.00    +0.166 A 
ATOM     32  C   UNL     1       6.282  -3.139  -5.898  0.00  0.00    +0.167 A 
ATOM     33  C   UNL     1       5.419  -2.545  -5.001  0.00  0.00    +0.061 A 
ATOM     34  O   UNL     1       6.376  -3.049  -7.258  0.00  0.00    -0.453 OA
ATOM     35  C   UNL     1       7.685  -3.551  -7.586  0.00  0.00    +0.466 C 
ATOM     36  O   UNL     1       7.980  -4.465  -6.515  0.00  0.00    -0.453 OA
ENDBRANCH  26  28
ENDBRANCH  13  26
TORSDOF 3
