REMARK  Name = ZINC09262737
REMARK  11 active torsions:
REMARK  status: ('A' for Active; 'I' for Inactive)
REMARK    1  A    between atoms: C_1  and  C_2
REMARK    2  A    between atoms: C_2  and  C_3
REMARK    3  A    between atoms: C_6  and  N_9
REMARK    4  A    between atoms: C_10  and  C_12
REMARK    5  A    between atoms: C_12  and  C_31
REMARK    6  A    between atoms: C_13  and  C_14
REMARK    7  A    between atoms: C_16  and  C_30
REMARK    8  A    between atoms: N_17  and  C_20
REMARK    9  A    between atoms: C_18  and  C_19
REMARK   10  A    between atoms: C_22  and  C_28
REMARK   11  A    between atoms: C_24  and  C_26
REMARK                            x       y       z     vdW  Elec       q    Type
REMARK                         _______ _______ _______ _____ _____    ______ ____
ROOT
ATOM      1  C   UNL     1       5.513   6.972   0.624  0.00  0.00    -0.003 A 
ATOM      2  C   UNL     1       5.721   6.533  -0.763  0.00  0.00    +0.031 A 
ATOM      3  C   UNL     1       4.694   5.721  -1.063  0.00  0.00    +0.022 A 
ATOM      4  N   UNL     1       3.869   5.619   0.023  0.00  0.00    -0.317 N 
ATOM      5  C   UNL     1       4.339   6.366   1.041  0.00  0.00    +0.028 A 
ATOM      6  C   UNL     1       3.701   6.513   2.399  0.00  0.00    +0.064 C 
ATOM      7  C   UNL     1       4.485   5.029  -2.386  0.00  0.00    +0.064 C 
ENDROOT
BRANCH   4   8
ATOM      8  C   UNL     1       2.696   4.852   0.068  0.00  0.00    +0.048 A 
ATOM      9  C   UNL     1       1.466   5.477   0.213  0.00  0.00    +0.041 A 
ATOM     10  C   UNL     1       0.296   4.716   0.257  0.00  0.00    +0.066 A 
ATOM     11  C   UNL     1       0.365   3.328   0.150  0.00  0.00    +0.030 A 
ATOM     12  C   UNL     1       1.603   2.704   0.010  0.00  0.00    +0.066 A 
ATOM     13  C   UNL     1       2.769   3.471  -0.034  0.00  0.00    +0.041 A 
BRANCH  12  14
ATOM     14  C   UNL     1       1.682   1.232  -0.098  0.00  0.00    +0.387 C 
ATOM     15  O   UNL     1       2.761   0.689  -0.225  0.00  0.00    -0.241 OA
ATOM     16  O   UNL     1       0.556   0.493  -0.056  0.00  0.00    -0.241 OA
ENDBRANCH  12  14
BRANCH  10  17
ATOM     17  C   UNL     1      -1.014   5.382   0.411  0.00  0.00    +0.387 C 
ATOM     18  O   UNL     1      -1.073   6.592   0.499  0.00  0.00    -0.241 OA
ATOM     19  O   UNL     1      -2.142   4.647   0.453  0.00  0.00    -0.241 OA
ENDBRANCH  10  17
ENDBRANCH   4   8
BRANCH   1  21
ATOM     20  C   UNL     1       7.264   8.644   0.738  0.00  0.00    +0.114 C 
ATOM     21  C   UNL     1       6.341   7.841   1.379  0.00  0.00    +0.033 C 
BRANCH  20  23
ATOM     22  N   UNL     1       9.154  10.180   0.897  0.00  0.00    -0.281 N 
ATOM     23  C   UNL     1       8.253   9.397   1.522  0.00  0.00    +0.259 C 
ATOM     24  O   UNL     1       8.258   9.313   2.736  0.00  0.00    -0.269 OA
ATOM     25  H   UNL     1       9.122  10.281  -0.067  0.00  0.00    +0.155 HD
BRANCH  22  29
ATOM     26  C   UNL     1      12.073  12.168   3.105  0.00  0.00    -0.048 A 
ATOM     27  C   UNL     1      12.375  11.675   1.849  0.00  0.00    +0.005 A 
ATOM     28  C   UNL     1      11.409  11.015   1.114  0.00  0.00    +0.023 A 
ATOM     29  C   UNL     1      10.134  10.847   1.638  0.00  0.00    +0.034 A 
ATOM     30  C   UNL     1       9.833  11.349   2.898  0.00  0.00    +0.023 A 
ATOM     31  C   UNL     1      10.805  12.003   3.630  0.00  0.00    +0.005 A 
BRANCH  26  33
ATOM     32  C   UNL     1      13.080  14.383   3.584  0.00  0.00    +0.009 C 
ATOM     33  C   UNL     1      13.129  12.888   3.904  0.00  0.00    +0.032 C 
ENDBRANCH  26  33
ENDBRANCH  22  29
ENDBRANCH  20  23
BRANCH  20  34
ATOM     34  C   UNL     1       7.258   8.743  -0.691  0.00  0.00    +0.104 C 
ATOM     35  N   UNL     1       7.254   8.821  -1.824  0.00  0.00    -0.191 NA
ENDBRANCH  20  34
ENDBRANCH   1  21
TORSDOF 8
