REMARK  Name = ZINC36510935
REMARK  18 active torsions:
REMARK  status: ('A' for Active; 'I' for Inactive)
REMARK    1  A    between atoms: C_1  and  C_2
REMARK    2  A    between atoms: C_2  and  C_3
REMARK    3  A    between atoms: C_3  and  C_4
REMARK    4  A    between atoms: C_4  and  C_5
REMARK    5  A    between atoms: C_5  and  C_6
REMARK    6  A    between atoms: C_6  and  N_7
REMARK    7  A    between atoms: N_7  and  C_8
REMARK    8  A    between atoms: C_8  and  C_10
REMARK    9  A    between atoms: C_8  and  C_20
REMARK   10  A    between atoms: C_13  and  C_16
REMARK   11  A    between atoms: N_22  and  C_23
REMARK   12  A    between atoms: C_23  and  C_24
REMARK   13  A    between atoms: C_23  and  C_25
REMARK   14  A    between atoms: C_23  and  C_26
REMARK   15  A    between atoms: C_27  and  C_29
REMARK   16  A    between atoms: C_29  and  C_31
REMARK   17  A    between atoms: C_29  and  C_33
REMARK   18  A    between atoms: C_31  and  C_32
REMARK                            x       y       z     vdW  Elec       q    Type
REMARK                         _______ _______ _______ _____ _____    ______ ____
ROOT
ATOM      1  C   UNL     1      -4.863  -4.747  -1.210  0.00  0.00    +0.192 C 
ENDROOT
BRANCH   1   2
ATOM      2  C   UNL     1      -6.061  -3.833  -1.154  0.00  0.00    -0.018 A 
ATOM      3  C   UNL     1      -7.295  -4.335  -0.786  0.00  0.00    +0.006 A 
ATOM      4  C   UNL     1      -8.394  -3.497  -0.735  0.00  0.00    +0.013 A 
ATOM      5  C   UNL     1      -8.257  -2.158  -1.052  0.00  0.00    +0.055 A 
ATOM      6  C   UNL     1      -7.023  -1.657  -1.419  0.00  0.00    +0.013 A 
ATOM      7  C   UNL     1      -5.923  -2.494  -1.466  0.00  0.00    +0.006 A 
BRANCH   5   8
ATOM      8  C   UNL     1      -9.455  -1.245  -0.997  0.00  0.00    +0.417 C 
ATOM      9  F   UNL     1      -9.561  -0.691   0.283  0.00  0.00    -0.166 F 
ATOM     10  F   UNL     1      -9.304  -0.221  -1.937  0.00  0.00    -0.166 F 
ATOM     11  F   UNL     1     -10.612  -1.976  -1.285  0.00  0.00    -0.166 F 
ENDBRANCH   5   8
ENDBRANCH   1   2
BRANCH   1  12
ATOM     12  C   UNL     1      -5.322  -6.163  -1.444  0.00  0.00    +0.238 C 
ATOM     13  O   UNL     1      -5.064  -7.026  -0.632  0.00  0.00    -0.273 OA
ATOM     14  N   UNL     1      -6.018  -6.471  -2.557  0.00  0.00    -0.309 N 
ATOM     15  H   UNL     1      -6.223  -5.780  -3.206  0.00  0.00    +0.149 HD
BRANCH  14  16
ATOM     16  C   UNL     1      -6.463  -7.847  -2.784  0.00  0.00    +0.026 C 
ATOM     17  C   UNL     1      -7.383  -8.281  -1.641  0.00  0.00    +0.031 C 
ATOM     18  C   UNL     1      -7.226  -7.924  -4.109  0.00  0.00    +0.031 C 
ATOM     19  C   UNL     1      -5.248  -8.774  -2.841  0.00  0.00    +0.031 C 
ENDBRANCH  14  16
ENDBRANCH   1  12
BRANCH   1  20
ATOM     20  N   UNL     1      -4.133  -4.673   0.058  0.00  0.00    -0.285 N 
ATOM     21  C   UNL     1      -4.771  -4.928   1.218  0.00  0.00    +0.224 C 
ATOM     22  O   UNL     1      -5.920  -5.316   1.206  0.00  0.00    -0.275 OA
BRANCH  20  23
ATOM     23  C   UNL     1      -2.711  -4.323   0.066  0.00  0.00    +0.109 C 
BRANCH  23  24
ATOM     24  C   UNL     1      -2.561  -2.801   0.130  0.00  0.00    +0.019 C 
BRANCH  24  25
ATOM     25  C   UNL     1      -1.075  -2.435   0.138  0.00  0.00    +0.002 C 
BRANCH  25  26
ATOM     26  C   UNL     1      -0.925  -0.914   0.202  0.00  0.00    -0.000 C 
BRANCH  26  28
ATOM     27  C   UNL     1       0.710   0.974   0.273  0.00  0.00    +0.004 C 
ATOM     28  C   UNL     1       0.560  -0.548   0.209  0.00  0.00    -0.003 C 
ENDBRANCH  26  28
ENDBRANCH  25  26
ENDBRANCH  24  25
ENDBRANCH  23  24
ENDBRANCH  20  23
BRANCH  21  29
ATOM     29  C   UNL     1      -4.056  -4.731   2.530  0.00  0.00    +0.105 C 
BRANCH  29  30
ATOM     30  C   UNL     1      -4.862  -3.810   3.408  0.00  0.00    -0.036 A 
ATOM     31  C   UNL     1      -6.146  -4.159   3.783  0.00  0.00    +0.004 A 
ATOM     32  C   UNL     1      -6.885  -3.313   4.588  0.00  0.00    +0.000 A 
ATOM     33  C   UNL     1      -6.340  -2.119   5.020  0.00  0.00    +0.000 A 
ATOM     34  C   UNL     1      -5.056  -1.770   4.647  0.00  0.00    +0.000 A 
ATOM     35  C   UNL     1      -4.315  -2.617   3.845  0.00  0.00    +0.004 A 
ENDBRANCH  29  30
BRANCH  29  36
ATOM     36  C   UNL     1      -3.888  -6.083   3.227  0.00  0.00    +0.014 C 
ATOM     37  C   UNL     1      -2.967  -6.976   2.394  0.00  0.00    +0.005 C 
ENDBRANCH  29  36
ENDBRANCH  21  29
ENDBRANCH   1  20
TORSDOF 13
