REMARK  Name = ZINC60375487
REMARK  10 active torsions:
REMARK  status: ('A' for Active; 'I' for Inactive)
REMARK    1  A    between atoms: C_1  and  C_2
REMARK    2  A    between atoms: C_2  and  C_4
REMARK    3  A    between atoms: C_2  and  N_22
REMARK    4  A    between atoms: C_4  and  C_5
REMARK    5  A    between atoms: C_7  and  C_10
REMARK    6  A    between atoms: C_13  and  C_15
REMARK    7  A    between atoms: C_15  and  C_16
REMARK    8  A    between atoms: C_16  and  N_17
REMARK    9  A    between atoms: N_17  and  S_18
REMARK   10  A    between atoms: S_18  and  C_21
REMARK                            x       y       z     vdW  Elec       q    Type
REMARK                         _______ _______ _______ _____ _____    ______ ____
ROOT
ATOM      1  C   UNL     1      -2.100  -0.151   1.309  0.00  0.00    +0.081 A 
ATOM      2  N   UNL     1      -2.789   0.927   1.577  0.00  0.00    -0.243 NA
ATOM      3  C   UNL     1      -3.321   1.126   2.776  0.00  0.00    +0.085 A 
ATOM      4  C   UNL     1      -3.108   0.144   3.709  0.00  0.00    +0.075 A 
ATOM      5  S   UNL     1      -2.142  -1.014   2.753  0.00  0.00    -0.080 S 
ENDROOT
BRANCH   3   6
ATOM      6  C   UNL     1      -4.101   2.343   3.090  0.00  0.00    +0.038 A 
ATOM      7  C   UNL     1      -4.627   2.745   4.288  0.00  0.00    +0.018 A 
ATOM      8  C   UNL     1      -5.326   3.933   4.339  0.00  0.00    +0.012 A 
ATOM      9  C   UNL     1      -5.471   4.664   3.206  0.00  0.00    -0.008 A 
ATOM     10  S   UNL     1      -4.595   3.673   2.006  0.00  0.00    -0.092 S 
BRANCH   9  11
ATOM     11  C   UNL     1      -6.184   5.977   3.010  0.00  0.00    +0.059 C 
BRANCH  11  12
ATOM     12  C   UNL     1      -5.204   7.129   3.244  0.00  0.00    +0.110 C 
BRANCH  12  13
ATOM     13  N   UNL     1      -5.896   8.406   3.054  0.00  0.00    -0.194 NA
ATOM     14  H   UNL     1      -6.759   8.428   2.612  0.00  0.00    +0.148 HD
BRANCH  13  15
ATOM     15  S   UNL     1      -5.206   9.810   3.595  0.00  0.00    +0.027 S 
ATOM     16  O   UNL     1      -6.147  10.825   3.270  0.00  0.00    -0.158 OA
ATOM     17  O   UNL     1      -4.862   9.548   4.948  0.00  0.00    -0.158 OA
ATOM     18  C   UNL     1      -3.705  10.007   2.595  0.00  0.00    +0.214 C 
ENDBRANCH  13  15
ENDBRANCH  12  13
ENDBRANCH  11  12
ENDBRANCH   9  11
ENDBRANCH   3   6
BRANCH   1  19
ATOM     19  C   UNL     1      -1.433  -0.534   0.013  0.00  0.00    +0.089 C 
BRANCH  19  21
ATOM     20  C   UNL     1      -0.019   1.526   0.010  0.00  0.00    +0.033 C 
ATOM     21  C   UNL     1       0.002  -0.004   0.002  0.00  0.00    +0.110 C 
BRANCH  21  22
ATOM     22  N   UNL     1       0.688  -0.476  -1.203  0.00  0.00    -0.267 N 
ATOM     23  C   UNL     1       0.654   0.111  -2.419  0.00  0.00    +0.128 A 
ATOM     24  C   UNL     1       1.414  -0.632  -3.257  0.00  0.00    +0.078 A 
ATOM     25  C   UNL     1       1.929  -1.710  -2.529  0.00  0.00    +0.154 A 
ATOM     26  N   UNL     1       1.499  -1.614  -1.297  0.00  0.00    -0.178 NA
ATOM     27 CL   UNL     1       1.698  -0.305  -4.938  0.00  0.00    -0.080 Cl
ENDBRANCH  21  22
ENDBRANCH  19  21
ENDBRANCH   1  19
TORSDOF 8
