REMARK  Name = ZINC36740801
REMARK  4 active torsions:
REMARK  status: ('A' for Active; 'I' for Inactive)
REMARK    1  A    between atoms: N_13  and  C_17
REMARK    2  A    between atoms: C_17  and  C_18
REMARK    3  A    between atoms: N_20  and  C_21
REMARK    4  A    between atoms: C_22  and  C_31
REMARK                            x       y       z     vdW  Elec       q    Type
REMARK                         _______ _______ _______ _____ _____    ______ ____
ROOT
ATOM      1  C   UNL     1      -0.017   1.377   0.010  0.00  0.00    +0.001 A 
ATOM      2  C   UNL     1       1.171   2.084   0.002  0.00  0.00    +0.004 A 
ATOM      3  C   UNL     1       2.375   1.410  -0.015  0.00  0.00    +0.046 A 
ATOM      4  C   UNL     1       2.398   0.019  -0.023  0.00  0.00    +0.126 A 
ATOM      5  C   UNL     1       1.206  -0.687  -0.013  0.00  0.00    +0.027 A 
ATOM      6  C   UNL     1       0.002  -0.004   0.002  0.00  0.00    +0.010 A 
ATOM      7  C   UNL     1       1.195  -2.190  -0.012  0.00  0.00    +0.144 C 
ATOM      8  C   UNL     1       2.552  -2.742  -0.437  0.00  0.00    +0.081 C 
ATOM      9  C   UNL     1       3.643  -1.988   0.336  0.00  0.00    +0.232 C 
ATOM     10  O   UNL     1       3.600  -0.613  -0.045  0.00  0.00    -0.492 OA
ATOM     11  C   UNL     1       0.817  -2.714   1.355  0.00  0.00    +0.252 C 
ATOM     12  O   UNL     1       1.412  -2.542   2.397  0.00  0.00    -0.272 OA
ATOM     13  N   UNL     1      -0.321  -3.414   1.170  0.00  0.00    -0.215 N 
ATOM     14  C   UNL     1      -0.706  -3.401  -0.113  0.00  0.00    +0.310 C 
ATOM     15  O   UNL     1      -1.702  -3.961  -0.525  0.00  0.00    -0.252 OA
ATOM     16  N   UNL     1       0.136  -2.696  -0.893  0.00  0.00    -0.281 N 
ATOM     17  H   UNL     1       0.057  -2.552  -1.849  0.00  0.00    +0.152 HD
ENDROOT
BRANCH  13  18
ATOM     18  C   UNL     1      -1.047  -4.103   2.240  0.00  0.00    +0.214 C 
BRANCH  18  19
ATOM     19  C   UNL     1      -2.058  -3.164   2.847  0.00  0.00    +0.236 C 
ATOM     20  O   UNL     1      -2.161  -2.030   2.427  0.00  0.00    -0.274 OA
ATOM     21  N   UNL     1      -2.846  -3.583   3.856  0.00  0.00    -0.278 N 
ATOM     22  H   UNL     1      -2.763  -4.489   4.192  0.00  0.00    +0.155 HD
BRANCH  21  23
ATOM     23  C   UNL     1      -3.776  -2.718   4.415  0.00  0.00    +0.090 A 
ATOM     24  C   UNL     1      -4.658  -2.970   5.452  0.00  0.00    +0.084 A 
ATOM     25  C   UNL     1      -5.542  -1.888   5.859  0.00  0.00    -0.018 A 
ATOM     26  C   UNL     1      -5.380  -0.753   5.146  0.00  0.00    -0.004 A 
ATOM     27  S   UNL     1      -4.086  -1.123   3.995  0.00  0.00    -0.077 S 
ATOM     28  C   UNL     1      -6.134   0.533   5.290  0.00  0.00    +0.043 C 
ATOM     29  C   UNL     1      -6.166   0.934   6.771  0.00  0.00    +0.005 C 
ATOM     30  C   UNL     1      -7.396   0.306   7.419  0.00  0.00    +0.001 C 
ATOM     31  C   UNL     1      -7.702  -1.044   6.773  0.00  0.00    +0.005 C 
ATOM     32  C   UNL     1      -6.547  -2.015   6.994  0.00  0.00    +0.037 C 
BRANCH  24  33
ATOM     33  C   UNL     1      -4.699  -4.247   6.098  0.00  0.00    +0.102 C 
ATOM     34  N   UNL     1      -4.732  -5.260   6.611  0.00  0.00    -0.191 NA
ENDBRANCH  24  33
ENDBRANCH  21  23
ENDBRANCH  18  19
ENDBRANCH  13  18
TORSDOF 4
