REMARK  Name = ZINC21924147
REMARK  10 active torsions:
REMARK  status: ('A' for Active; 'I' for Inactive)
REMARK    1  A    between atoms: C_1  and  C_2
REMARK    2  A    between atoms: C_4  and  C_30
REMARK    3  A    between atoms: C_8  and  N_29
REMARK    4  A    between atoms: C_9  and  C_11
REMARK    5  A    between atoms: C_11  and  O_13
REMARK    6  A    between atoms: O_13  and  C_14
REMARK    7  A    between atoms: C_14  and  C_15
REMARK    8  A    between atoms: N_17  and  C_18
REMARK    9  A    between atoms: C_21  and  O_25
REMARK   10  A    between atoms: O_25  and  C_26
REMARK                            x       y       z     vdW  Elec       q    Type
REMARK                         _______ _______ _______ _____ _____    ______ ____
ROOT
ATOM      1  C   UNL     1      -7.576   3.370   0.611  0.00  0.00    +0.348 C 
ATOM      2  O   UNL     1      -7.775   4.569   0.680  0.00  0.00    -0.244 OA
ENDROOT
BRANCH   1  11
ATOM      3  C   UNL     1     -13.055   3.079  -0.100  0.00  0.00    +0.044 C 
ATOM      4  C   UNL     1     -12.338   1.753  -0.115  0.00  0.00    -0.037 A 
ATOM      5  C   UNL     1     -13.039   0.583  -0.295  0.00  0.00    +0.025 A 
ATOM      6  C   UNL     1     -12.377  -0.635  -0.308  0.00  0.00    +0.014 A 
ATOM      7  N   UNL     1     -11.069  -0.687  -0.148  0.00  0.00    -0.353 N 
ATOM      8  C   UNL     1     -10.355   0.404   0.027  0.00  0.00    +0.088 A 
ATOM      9  C   UNL     1     -10.933   1.693   0.056  0.00  0.00    +0.030 A 
ATOM     10  C   UNL     1      -9.997   2.786   0.266  0.00  0.00    +0.055 A 
ATOM     11  C   UNL     1      -8.659   2.483   0.404  0.00  0.00    +0.119 A 
ATOM     12  S   UNL     1      -8.622   0.707   0.269  0.00  0.00    -0.062 S 
ATOM     13  C   UNL     1     -13.158  -1.909  -0.506  0.00  0.00    +0.063 C 
ATOM     14  H   UNL     1     -10.551  -1.658  -0.159  0.00  0.00    +0.166 HD
BRANCH  10  15
ATOM     15  N   UNL     1     -10.438   4.100   0.321  0.00  0.00    -0.356 N 
ATOM     16  H   UNL     1      -9.717   4.916   0.480  0.00  0.00    +0.142 HD
ATOM     17  H   UNL     1     -11.508   4.326   0.206  0.00  0.00    +0.142 HD
ENDBRANCH  10  15
ENDBRANCH   1  11
BRANCH   1  18
ATOM     18  O   UNL     1      -6.321   2.886   0.730  0.00  0.00    -0.451 OA
BRANCH  18  19
ATOM     19  C   UNL     1      -5.276   3.838   0.937  0.00  0.00    +0.328 C 
BRANCH  19  20
ATOM     20  C   UNL     1      -3.956   3.119   1.045  0.00  0.00    +0.255 C 
ATOM     21  O   UNL     1      -3.914   1.911   0.955  0.00  0.00    -0.272 OA
ATOM     22  N   UNL     1      -2.821   3.820   1.244  0.00  0.00    -0.283 N 
ATOM     23  H   UNL     1      -2.870   4.901   1.442  0.00  0.00    +0.155 HD
BRANCH  22  24
ATOM     24  C   UNL     1      -1.580   3.171   1.196  0.00  0.00    +0.035 A 
ATOM     25  C   UNL     1      -0.601   3.477   2.132  0.00  0.00    +0.027 A 
ATOM     26  C   UNL     1       0.625   2.842   2.081  0.00  0.00    +0.049 A 
ATOM     27  C   UNL     1       0.873   1.890   1.103  0.00  0.00    +0.145 A 
ATOM     28  C   UNL     1      -0.107   1.580   0.171  0.00  0.00    +0.084 A 
ATOM     29  C   UNL     1      -1.331   2.219   0.217  0.00  0.00    +0.047 A 
ATOM     30 CL   UNL     1       0.205   0.388  -1.052  0.00  0.00    -0.080 Cl
BRANCH  27  31
ATOM     31  O   UNL     1       2.078   1.261   1.058  0.00  0.00    -0.433 OA
BRANCH  31  32
ATOM     32  C   UNL     1       3.040   1.629   2.049  0.00  0.00    +0.541 C 
ATOM     33  F   UNL     1       3.325   2.994   1.938  0.00  0.00    -0.166 F 
ATOM     34  F   UNL     1       2.524   1.363   3.322  0.00  0.00    -0.166 F 
ENDBRANCH  31  32
ENDBRANCH  27  31
ENDBRANCH  22  24
ENDBRANCH  19  20
ENDBRANCH  18  19
ENDBRANCH   1  18
TORSDOF 8
