REMARK  Name = ZINC38699532
REMARK  7 active torsions:
REMARK  status: ('A' for Active; 'I' for Inactive)
REMARK    1  A    between atoms: C_1  and  O_2
REMARK    2  A    between atoms: O_2  and  C_3
REMARK    3  A    between atoms: C_6  and  N_16
REMARK    4  A    between atoms: C_8  and  N_9
REMARK    5  A    between atoms: N_16  and  S_17
REMARK    6  A    between atoms: S_17  and  C_20
REMARK    7  A    between atoms: C_24  and  C_26
REMARK                            x       y       z     vdW  Elec       q    Type
REMARK                         _______ _______ _______ _____ _____    ______ ____
ROOT
ATOM      1  C   UNL     1      -1.202  -0.638   0.010  0.00  0.00    +0.142 A 
ATOM      2  C   UNL     1      -2.374   0.100   0.019  0.00  0.00    +0.049 A 
ATOM      3  C   UNL     1      -3.597  -0.542   0.027  0.00  0.00    +0.028 A 
ATOM      4  C   UNL     1      -3.656  -1.930   0.026  0.00  0.00    +0.050 A 
ATOM      5  C   UNL     1      -2.484  -2.674   0.017  0.00  0.00    +0.051 A 
ATOM      6  C   UNL     1      -1.256  -2.030   0.003  0.00  0.00    +0.080 A 
ENDROOT
BRANCH   6   7
ATOM      7  N   UNL     1      -0.071  -2.778  -0.012  0.00  0.00    -0.268 N 
ATOM      8  C   UNL     1       0.514  -3.155   1.269  0.00  0.00    +0.114 C 
ATOM      9  C   UNL     1       1.486  -4.322   1.090  0.00  0.00    +0.020 C 
ATOM     10  C   UNL     1       2.463  -3.979  -0.041  0.00  0.00    +0.011 C 
ATOM     11  C   UNL     1       1.684  -3.939  -1.358  0.00  0.00    +0.096 C 
ATOM     12  C   UNL     1       0.446  -3.106  -1.196  0.00  0.00    +0.220 C 
ATOM     13  O   UNL     1      -0.111  -2.705  -2.196  0.00  0.00    -0.275 OA
ENDBRANCH   6   7
BRANCH   1  15
ATOM     14  C   UNL     1      -0.017   1.425   0.010  0.00  0.00    +0.277 C 
ATOM     15  O   UNL     1       0.002  -0.004   0.002  0.00  0.00    -0.493 OA
ENDBRANCH   1  15
BRANCH   4  16
ATOM     16  N   UNL     1      -4.896  -2.578   0.035  0.00  0.00    -0.216 N 
ATOM     17  H   UNL     1      -5.046  -3.330   0.629  0.00  0.00    +0.174 HD
BRANCH  16  18
ATOM     18  S   UNL     1      -6.107  -2.062  -0.969  0.00  0.00    +0.072 S 
ATOM     19  O   UNL     1      -7.214  -2.925  -0.748  0.00  0.00    -0.150 OA
ATOM     20  O   UNL     1      -6.196  -0.653  -0.807  0.00  0.00    -0.150 OA
BRANCH  18  21
ATOM     21  C   UNL     1      -5.569  -2.345  -2.623  0.00  0.00    +0.109 A 
ATOM     22  C   UNL     1      -4.864  -1.367  -3.298  0.00  0.00    +0.029 A 
ATOM     23  C   UNL     1      -4.442  -1.589  -4.596  0.00  0.00    +0.002 A 
ATOM     24  C   UNL     1      -4.725  -2.791  -5.218  0.00  0.00    +0.012 A 
ATOM     25  C   UNL     1      -5.429  -3.770  -4.543  0.00  0.00    +0.057 A 
ATOM     26  C   UNL     1      -5.848  -3.549  -3.243  0.00  0.00    +0.041 A 
BRANCH  25  27
ATOM     27  C   UNL     1      -5.738  -5.080  -5.221  0.00  0.00    +0.417 C 
ATOM     28  F   UNL     1      -5.213  -5.068  -6.518  0.00  0.00    -0.166 F 
ATOM     29  F   UNL     1      -5.163  -6.128  -4.495  0.00  0.00    -0.166 F 
ATOM     30  F   UNL     1      -7.124  -5.259  -5.280  0.00  0.00    -0.166 F 
ENDBRANCH  25  27
ENDBRANCH  18  21
ENDBRANCH  16  18
ENDBRANCH   4  16
TORSDOF 6
