REMARK  Name = ZINC08575030
REMARK  9 active torsions:
REMARK  status: ('A' for Active; 'I' for Inactive)
REMARK    1  A    between atoms: C_1  and  C_2
REMARK    2  A    between atoms: C_2  and  N_3
REMARK    3  A    between atoms: C_4  and  C_23
REMARK    4  A    between atoms: C_7  and  S_8
REMARK    5  A    between atoms: S_8  and  C_9
REMARK    6  A    between atoms: C_9  and  C_10
REMARK    7  A    between atoms: N_12  and  N_13
REMARK    8  A    between atoms: N_13  and  C_14
REMARK    9  A    between atoms: C_26  and  C_29
REMARK                            x       y       z     vdW  Elec       q    Type
REMARK                         _______ _______ _______ _____ _____    ______ ____
ROOT
ATOM      1  C   UNL     1      -3.294  -0.839  -3.654  0.00  0.00    +0.174 C 
ENDROOT
BRANCH   1   2
ATOM      2  C   UNL     1      -3.087  -0.602  -5.128  0.00  0.00    +0.239 C 
ATOM      3  O   UNL     1      -2.032  -0.158  -5.528  0.00  0.00    -0.273 OA
ATOM      4  N   UNL     1      -4.074  -0.885  -6.001  0.00  0.00    -0.236 N 
ATOM      5  H   UNL     1      -4.918  -1.241  -5.681  0.00  0.00    +0.173 HD
BRANCH   4   6
ATOM      6  N   UNL     1      -3.881  -0.666  -7.371  0.00  0.00    -0.271 N 
ATOM      7  H   UNL     1      -3.037  -0.310  -7.691  0.00  0.00    +0.169 HD
BRANCH   6   8
ATOM      8  C   UNL     1      -4.864  -0.948  -8.241  0.00  0.00    +0.099 C 
ATOM      9  C   UNL     1      -4.672  -0.730  -9.606  0.00  0.00    +0.037 C 
ATOM     10  C   UNL     1      -3.441  -0.217 -10.076  0.00  0.00    +0.017 C 
ATOM     11  C   UNL     1      -3.257  -0.006 -11.402  0.00  0.00    +0.051 C 
ATOM     12  C   UNL     1      -4.290  -0.296 -12.316  0.00  0.00    +0.183 C 
ATOM     13  O   UNL     1      -4.117  -0.104 -13.513  0.00  0.00    -0.288 OA
ATOM     14  C   UNL     1      -5.516  -0.806 -11.860  0.00  0.00    +0.102 C 
ATOM     15  C   UNL     1      -5.709  -1.027 -10.527  0.00  0.00    +0.191 C 
ATOM     16  O   UNL     1      -6.889  -1.524 -10.085  0.00  0.00    -0.287 OA
ENDBRANCH   6   8
ENDBRANCH   4   6
ENDBRANCH   1   2
BRANCH   1  17
ATOM     17  S   UNL     1      -1.796  -0.364  -2.749  0.00  0.00    -0.077 S 
BRANCH  17  22
ATOM     18  N   UNL     1      -1.377  -0.498   0.014  0.00  0.00    -0.302 N 
ATOM     19  C   UNL     1      -2.111  -0.889   1.110  0.00  0.00    +0.165 A 
ATOM     20  N   UNL     1      -3.280  -1.290   0.668  0.00  0.00    -0.128 NA
ATOM     21  N   UNL     1      -3.327  -1.179  -0.611  0.00  0.00    -0.122 NA
ATOM     22  C   UNL     1      -2.192  -0.694  -1.064  0.00  0.00    +0.192 A 
BRANCH  19  23
ATOM     23  C   UNL     1      -1.666  -0.863   2.520  0.00  0.00    +0.019 A 
ATOM     24  C   UNL     1      -0.592  -0.057   2.901  0.00  0.00    +0.012 A 
ATOM     25  C   UNL     1      -0.181  -0.037   4.218  0.00  0.00    +0.004 A 
ATOM     26  C   UNL     1      -0.832  -0.813   5.160  0.00  0.00    -0.050 A 
ATOM     27  C   UNL     1      -1.898  -1.614   4.789  0.00  0.00    +0.004 A 
ATOM     28  C   UNL     1      -2.322  -1.638   3.477  0.00  0.00    +0.012 A 
ATOM     29  C   UNL     1      -0.378  -0.787   6.597  0.00  0.00    +0.044 C 
ENDBRANCH  19  23
BRANCH  18  31
ATOM     30  C   UNL     1      -0.048   1.554   0.025  0.00  0.00    +0.027 C 
ATOM     31  C   UNL     1      -0.009   0.025   0.005  0.00  0.00    +0.122 C 
ENDBRANCH  18  31
ENDBRANCH  17  22
ENDBRANCH   1  17
TORSDOF 7
