REMARK  Name = ZINC63511862
REMARK  9 active torsions:
REMARK  status: ('A' for Active; 'I' for Inactive)
REMARK    1  A    between atoms: C_1  and  C_2
REMARK    2  A    between atoms: C_2  and  C_3
REMARK    3  A    between atoms: C_3  and  C_28
REMARK    4  A    between atoms: N_6  and  N_10
REMARK    5  A    between atoms: C_11  and  C_13
REMARK    6  A    between atoms: C_13  and  N_14
REMARK    7  A    between atoms: N_14  and  C_15
REMARK    8  A    between atoms: C_15  and  C_22
REMARK    9  A    between atoms: C_24  and  C_27
REMARK                            x       y       z     vdW  Elec       q    Type
REMARK                         _______ _______ _______ _____ _____    ______ ____
ROOT
ATOM      1  C   UNL     1      -1.688  -5.376   3.491  0.00  0.00    +0.018 C 
ENDROOT
BRANCH   1   3
ATOM      2  N   UNL     1      -1.965  -3.755   1.643  0.00  0.00    -0.225 N 
ATOM      3  C   UNL     1      -1.461  -4.025   2.864  0.00  0.00    +0.213 C 
ATOM      4  O   UNL     1      -0.825  -3.180   3.457  0.00  0.00    -0.276 OA
ATOM      5  H   UNL     1      -2.474  -4.431   1.169  0.00  0.00    +0.173 HD
BRANCH   2   9
ATOM      6  C   UNL     1      -0.995  -0.785  -0.245  0.00  0.00    +0.111 C 
ATOM      7  C   UNL     1      -0.884  -2.266   0.058  0.00  0.00    +0.263 C 
ATOM      8  O   UNL     1      -0.162  -3.073  -0.488  0.00  0.00    -0.271 OA
ATOM      9  N   UNL     1      -1.754  -2.499   1.060  0.00  0.00    -0.137 N 
ATOM     10  C   UNL     1      -2.393  -1.383   1.429  0.00  0.00    +0.326 C 
ATOM     11  O   UNL     1      -3.226  -1.341   2.312  0.00  0.00    -0.251 OA
ATOM     12  N   UNL     1      -2.010  -0.311   0.711  0.00  0.00    -0.284 N 
ATOM     13  C   UNL     1      -1.464  -0.560  -1.684  0.00  0.00    +0.041 C 
ATOM     14  H   UNL     1      -2.338   0.597   0.806  0.00  0.00    +0.151 HD
BRANCH   6  16
ATOM     15  C   UNL     1       0.149   1.431  -0.086  0.00  0.00    +0.006 C 
ATOM     16  C   UNL     1       0.344  -0.085  -0.002  0.00  0.00    +0.032 C 
ENDBRANCH   6  16
ENDBRANCH   2   9
ENDBRANCH   1   3
BRANCH   1  17
ATOM     17  N   UNL     1      -1.043  -5.418   4.810  0.00  0.00    +0.393 N 
ATOM     18  H   UNL     1      -0.042  -5.353   4.698  0.00  0.00    -0.084 HD
ATOM     19  H   UNL     1      -1.369  -4.644   5.369  0.00  0.00    -0.084 HD
BRANCH  17  20
ATOM     20  C   UNL     1      -1.379  -6.681   5.480  0.00  0.00    -0.003 C 
ATOM     21  C   UNL     1      -0.606  -6.770   6.768  0.00  0.00    -0.005 C 
ATOM     22  C   UNL     1       0.683  -5.935   6.624  0.00  0.00    -0.001 C 
ATOM     23  C   UNL     1       1.725  -6.644   5.896  0.00  0.00    -0.000 C 
ATOM     24  C   UNL     1       1.308  -6.980   4.450  0.00  0.00    -0.000 C 
ATOM     25  C   UNL     1       0.429  -8.202   4.477  0.00  0.00    -0.001 C 
ATOM     26  C   UNL     1      -1.070  -7.849   4.525  0.00  0.00    -0.005 C 
BRANCH  20  27
ATOM     27  C   UNL     1      -2.852  -6.687   5.797  0.00  0.00    +0.161 A 
ATOM     28  N   UNL     1      -3.502  -5.747   6.491  0.00  0.00    -0.198 NA
ATOM     29  C   UNL     1      -4.766  -6.054   6.586  0.00  0.00    +0.224 A 
ATOM     30  O   UNL     1      -4.965  -7.213   5.947  0.00  0.00    -0.338 OA
ATOM     31  N   UNL     1      -3.701  -7.606   5.435  0.00  0.00    -0.063 NA
ATOM     32  C   UNL     1      -5.822  -5.242   7.293  0.00  0.00    +0.112 C 
ENDBRANCH  20  27
ENDBRANCH  17  20
ENDBRANCH   1  17
TORSDOF 6
