REMARK  Name = ZINC00623079
REMARK  5 active torsions:
REMARK  status: ('A' for Active; 'I' for Inactive)
REMARK    1  A    between atoms: C_1  and  C_2
REMARK    2  A    between atoms: C_2  and  C_24
REMARK    3  A    between atoms: C_6  and  C_14
REMARK    4  A    between atoms: C_8  and  C_12
REMARK    5  A    between atoms: C_9  and  N_11
REMARK                            x       y       z     vdW  Elec       q    Type
REMARK                         _______ _______ _______ _____ _____    ______ ____
ROOT
ATOM      1  C   UNL     1      -3.648   5.878   0.957  0.00  0.00    +0.012 C 
ATOM      2  C   UNL     1      -3.388   5.878  -0.551  0.00  0.00    -0.021 C 
ATOM      3  C   UNL     1      -2.119   5.078  -0.853  0.00  0.00    +0.081 C 
ATOM      4  C   UNL     1      -2.300   3.648  -0.399  0.00  0.00    +0.115 C 
ATOM      5  C   UNL     1      -3.515   3.070  -0.416  0.00  0.00    +0.046 C 
ATOM      6  C   UNL     1      -3.691   1.637   0.025  0.00  0.00    +0.101 C 
ATOM      7  C   UNL     1      -2.365   0.929   0.018  0.00  0.00    +0.098 C 
ATOM      8  C   UNL     1      -1.209   1.636   0.017  0.00  0.00    +0.198 C 
ATOM      9  O   UNL     1      -1.211   2.978   0.029  0.00  0.00    -0.445 OA
ATOM     10  C   UNL     1      -4.655   3.778  -0.842  0.00  0.00    +0.164 C 
ATOM     11  O   UNL     1      -5.733   3.217  -0.860  0.00  0.00    -0.292 OA
ATOM     12  C   UNL     1      -4.564   5.215  -1.276  0.00  0.00    +0.086 C 
ATOM     13  C   UNL     1      -3.218   7.316  -1.044  0.00  0.00    +0.012 C 
ENDROOT
BRANCH   6  14
ATOM     14  C   UNL     1      -4.263   1.613   1.419  0.00  0.00    -0.034 A 
ATOM     15  C   UNL     1      -3.563   2.189   2.463  0.00  0.00    +0.004 A 
ATOM     16  C   UNL     1      -4.090   2.173   3.741  0.00  0.00    +0.001 A 
ATOM     17  C   UNL     1      -5.312   1.570   3.977  0.00  0.00    +0.015 A 
ATOM     18  C   UNL     1      -6.009   0.989   2.934  0.00  0.00    +0.018 A 
ATOM     19  C   UNL     1      -5.484   1.011   1.654  0.00  0.00    +0.020 A 
ATOM     20 BR   UNL     1      -7.680   0.164   3.256  0.00  0.00    -0.050 Br
ENDBRANCH   6  14
BRANCH   8  21
ATOM     21  N   UNL     1      -0.011   0.966   0.007  0.00  0.00    -0.328 N 
ATOM     22  H   UNL     1       0.002  -0.004   0.002  0.00  0.00    +0.145 HD
ATOM     23  H   UNL     1       0.822   1.462   0.002  0.00  0.00    +0.145 HD
ENDBRANCH   8  21
BRANCH   7  24
ATOM     24  C   UNL     1      -2.324  -0.503   0.014  0.00  0.00    +0.101 C 
ATOM     25  N   UNL     1      -2.291  -1.638   0.010  0.00  0.00    -0.191 NA
ENDBRANCH   7  24
TORSDOF 3
