REMARK  Name = ZINC09120571
REMARK  11 active torsions:
REMARK  status: ('A' for Active; 'I' for Inactive)
REMARK    1  A    between atoms: C_1  and  C_2
REMARK    2  A    between atoms: N_4  and  C_5
REMARK    3  A    between atoms: C_8  and  S_11
REMARK    4  A    between atoms: S_11  and  N_14
REMARK    5  A    between atoms: N_14  and  C_15
REMARK    6  A    between atoms: C_15  and  C_16
REMARK    7  A    between atoms: C_16  and  O_18
REMARK    8  A    between atoms: O_18  and  C_19
REMARK    9  A    between atoms: C_19  and  C_20
REMARK   10  A    between atoms: N_22  and  C_23
REMARK   11  A    between atoms: C_24  and  C_28
REMARK                            x       y       z     vdW  Elec       q    Type
REMARK                         _______ _______ _______ _____ _____    ______ ____
ROOT
ATOM      1  C   UNL     1      -2.010  -7.491   4.054  0.00  0.00    +0.323 C 
ATOM      2  O   UNL     1      -1.060  -8.199   4.288  0.00  0.00    -0.249 OA
ENDROOT
BRANCH   1   3
ATOM      3  C   UNL     1      -2.077  -6.723   2.759  0.00  0.00    +0.226 C 
BRANCH   3   4
ATOM      4  N   UNL     1      -0.878  -7.002   1.964  0.00  0.00    -0.179 NA
ATOM      5  H   UNL     1      -0.108  -7.420   2.378  0.00  0.00    +0.149 HD
BRANCH   4   6
ATOM      6  S   UNL     1      -0.840  -6.603   0.357  0.00  0.00    +0.059 S 
ATOM      7  O   UNL     1      -2.038  -7.108  -0.216  0.00  0.00    -0.153 OA
ATOM      8  O   UNL     1       0.447  -6.970  -0.121  0.00  0.00    -0.153 OA
BRANCH   6  12
ATOM      9  C   UNL     1      -1.081  -2.089   0.091  0.00  0.00    +0.033 A 
ATOM     10  C   UNL     1       0.155  -2.716   0.178  0.00  0.00    +0.025 A 
ATOM     11  C   UNL     1       0.225  -4.092   0.259  0.00  0.00    +0.030 A 
ATOM     12  C   UNL     1      -0.934  -4.847   0.254  0.00  0.00    +0.105 A 
ATOM     13  C   UNL     1      -2.166  -4.226   0.168  0.00  0.00    +0.030 A 
ATOM     14  C   UNL     1      -2.244  -2.849   0.093  0.00  0.00    +0.025 A 
BRANCH   9  18
ATOM     15  C   UNL     1      -2.194   1.470   0.609  0.00  0.00    +0.109 C 
ATOM     16  C   UNL     1      -2.169  -0.037   0.608  0.00  0.00    +0.214 C 
ATOM     17  O   UNL     1      -3.061  -0.658   1.145  0.00  0.00    -0.276 OA
ATOM     18  N   UNL     1      -1.156  -0.694   0.009  0.00  0.00    -0.286 N 
ATOM     19  H   UNL     1      -0.478  -0.200  -0.478  0.00  0.00    +0.155 HD
ENDBRANCH   9  18
ENDBRANCH   6  12
ENDBRANCH   4   6
ENDBRANCH   3   4
ENDBRANCH   1   3
BRANCH   1  20
ATOM     20  O   UNL     1      -3.007  -7.389   4.947  0.00  0.00    -0.454 OA
BRANCH  20  21
ATOM     21  C   UNL     1      -2.879  -8.145   6.153  0.00  0.00    +0.328 C 
BRANCH  21  22
ATOM     22  C   UNL     1      -4.083  -7.906   7.026  0.00  0.00    +0.255 C 
ATOM     23  O   UNL     1      -4.965  -7.161   6.653  0.00  0.00    -0.272 OA
ATOM     24  N   UNL     1      -4.180  -8.520   8.222  0.00  0.00    -0.277 N 
ATOM     25  H   UNL     1      -3.475  -9.115   8.521  0.00  0.00    +0.155 HD
BRANCH  24  26
ATOM     26  C   UNL     1      -5.288  -8.300   9.026  0.00  0.00    +0.084 A 
ATOM     27  C   UNL     1      -5.554  -8.836  10.278  0.00  0.00    +0.065 A 
ATOM     28  C   UNL     1      -6.794  -8.436  10.902  0.00  0.00    +0.022 A 
ATOM     29  C   UNL     1      -7.559  -7.584  10.195  0.00  0.00    +0.048 A 
ATOM     30  S   UNL     1      -6.613  -7.319   8.712  0.00  0.00    -0.081 S 
BRANCH  27  31
ATOM     31  C   UNL     1      -4.624  -9.760  10.934  0.00  0.00    +0.244 C 
ATOM     32  O   UNL     1      -3.587 -10.076  10.379  0.00  0.00    -0.270 OA
ATOM     33  N   UNL     1      -4.916 -10.260  12.151  0.00  0.00    -0.325 N 
ATOM     34  H   UNL     1      -5.742 -10.009  12.593  0.00  0.00    +0.145 HD
ATOM     35  H   UNL     1      -4.301 -10.872  12.584  0.00  0.00    +0.145 HD
ENDBRANCH  27  31
ENDBRANCH  24  26
ENDBRANCH  21  22
ENDBRANCH  20  21
ENDBRANCH   1  20
TORSDOF 10
