REMARK  Name = ZINC21253019
REMARK  7 active torsions:
REMARK  status: ('A' for Active; 'I' for Inactive)
REMARK    1  A    between atoms: C_1  and  C_2
REMARK    2  A    between atoms: C_9  and  C_16
REMARK    3  A    between atoms: C_11  and  O_12
REMARK    4  A    between atoms: C_16  and  O_17
REMARK    5  A    between atoms: O_17  and  C_18
REMARK    6  A    between atoms: C_21  and  C_24
REMARK    7  A    between atoms: C_24  and  C_26
REMARK                            x       y       z     vdW  Elec       q    Type
REMARK                         _______ _______ _______ _____ _____    ______ ____
ROOT
ATOM      1  C   UNL     1      -1.256   1.304  -2.530  0.00  0.00    +0.109 C 
ATOM      2  C   UNL     1      -1.080  -0.192  -2.483  0.00  0.00    +0.214 C 
ATOM      3  O   UNL     1      -1.440  -0.874  -3.420  0.00  0.00    -0.276 OA
ATOM      4  N   UNL     1      -0.523  -0.772  -1.402  0.00  0.00    -0.286 N 
ATOM      5  C   UNL     1      -0.448  -2.162  -1.317  0.00  0.00    +0.037 A 
ATOM      6  C   UNL     1      -0.595  -2.789  -0.080  0.00  0.00    +0.024 A 
ATOM      7  C   UNL     1      -0.530  -4.148   0.018  0.00  0.00    +0.014 A 
ATOM      8  C   UNL     1      -0.302  -4.918  -1.128  0.00  0.00    +0.024 A 
ATOM      9  C   UNL     1      -0.222  -6.379  -1.051  0.00  0.00    +0.007 A 
ATOM     10  C   UNL     1       0.001  -7.071  -2.199  0.00  0.00    +0.095 A 
ATOM     11  C   UNL     1       0.147  -6.378  -3.419  0.00  0.00    +0.285 A 
ATOM     12  O   UNL     1       0.072  -5.039  -3.482  0.00  0.00    -0.425 OA
ATOM     13  C   UNL     1      -0.147  -4.292  -2.379  0.00  0.00    +0.141 A 
ATOM     14  C   UNL     1      -0.222  -2.910  -2.463  0.00  0.00    +0.070 A 
ATOM     15  H   UNL     1      -0.128  -0.149  -0.586  0.00  0.00    +0.155 HD
ENDROOT
BRANCH  11  16
ATOM     16  O   UNL     1       0.346  -7.010  -4.440  0.00  0.00    -0.480 OA
ATOM     17  H   UNL     1       0.462  -6.484  -5.399  0.00  0.00    +0.295 HD
ENDBRANCH  11  16
BRANCH   9  18
ATOM     18  C   UNL     1      -0.381  -7.094   0.265  0.00  0.00    +0.265 C 
BRANCH  18  19
ATOM     19  O   UNL     1      -0.260  -8.503   0.059  0.00  0.00    -0.487 OA
BRANCH  19  20
ATOM     20  C   UNL     1      -0.380  -9.298   1.153  0.00  0.00    +0.121 A 
ATOM     21  C   UNL     1      -0.604  -8.730   2.401  0.00  0.00    +0.046 A 
ATOM     22  C   UNL     1      -0.732  -9.533   3.512  0.00  0.00    +0.015 A 
ATOM     23  C   UNL     1      -0.624 -10.921   3.385  0.00  0.00    +0.022 A 
ATOM     24  C   UNL     1      -0.392 -11.488   2.128  0.00  0.00    +0.015 A 
ATOM     25  C   UNL     1      -0.272 -10.678   1.021  0.00  0.00    +0.046 A 
BRANCH  23  26
ATOM     26  C   UNL     1      -0.754 -11.785   4.573  0.00  0.00    +0.193 C 
ATOM     27  O   UNL     1      -0.364 -11.393   5.656  0.00  0.00    -0.287 OA
BRANCH  26  28
ATOM     28  C   UNL     1      -1.359 -13.127   4.448  0.00  0.00    +0.022 A 
ATOM     29  C   UNL     1      -1.949 -13.521   3.244  0.00  0.00    +0.013 A 
ATOM     30  C   UNL     1      -2.506 -14.777   3.132  0.00  0.00    +0.021 A 
ATOM     31  C   UNL     1      -2.492 -15.644   4.212  0.00  0.00    +0.041 A 
ATOM     32  C   UNL     1      -1.914 -15.257   5.410  0.00  0.00    +0.021 A 
ATOM     33  C   UNL     1      -1.348 -14.006   5.534  0.00  0.00    +0.013 A 
ATOM     34 CL   UNL     1      -3.202 -17.221   4.065  0.00  0.00    -0.084 Cl
ENDBRANCH  26  28
ENDBRANCH  23  26
ENDBRANCH  19  20
ENDBRANCH  18  19
ENDBRANCH   9  18
TORSDOF 6
