REMARK  Name = ZINC38510512
REMARK  2 active torsions:
REMARK  status: ('A' for Active; 'I' for Inactive)
REMARK    1  A    between atoms: C_6  and  C_7
REMARK    2  A    between atoms: C_21  and  C_24
REMARK                            x       y       z     vdW  Elec       q    Type
REMARK                         _______ _______ _______ _____ _____    ______ ____
ROOT
ATOM      1  C   UNL     1      -1.279  -0.764   0.010  0.00  0.00    +0.247 C 
ATOM      2  O   UNL     1      -2.337  -0.178   0.136  0.00  0.00    -0.270 OA
ATOM      3  N   UNL     1      -1.261  -2.107  -0.099  0.00  0.00    -0.295 N 
ATOM      4  C   UNL     1       0.013  -2.838  -0.125  0.00  0.00    +0.127 C 
ATOM      5  C   UNL     1      -0.005  -3.894   0.987  0.00  0.00    +0.125 C 
ATOM      6  N   UNL     1      -1.259  -4.654   0.892  0.00  0.00    -0.311 N 
ATOM      7  C   UNL     1      -2.534  -3.923   0.918  0.00  0.00    +0.125 C 
ATOM      8  C   UNL     1      -2.516  -2.867  -0.188  0.00  0.00    +0.127 C 
ATOM      9  C   UNL     1      -1.240  -6.040   0.780  0.00  0.00    +0.142 A 
ATOM     10  C   UNL     1      -0.016  -6.730   0.882  0.00  0.00    +0.049 A 
ATOM     11  C   UNL     1       0.014  -8.084   0.773  0.00  0.00    +0.053 A 
ATOM     12  C   UNL     1      -1.190  -8.782   0.558  0.00  0.00    +0.178 A 
ATOM     13  N   UNL     1      -1.493 -10.062   0.412  0.00  0.00    -0.128 NA
ATOM     14  N   UNL     1      -2.763 -10.180   0.237  0.00  0.00    -0.132 NA
ATOM     15  C   UNL     1      -3.334  -9.001   0.261  0.00  0.00    +0.158 A 
ATOM     16  N   UNL     1      -2.366  -8.081   0.464  0.00  0.00    -0.195 N 
ATOM     17  N   UNL     1      -2.364  -6.690   0.585  0.00  0.00    -0.148 NA
ENDROOT
BRANCH   1  23
ATOM     18  C   UNL     1       0.121   1.168   0.726  0.00  0.00    +0.014 A 
ATOM     19  C   UNL     1       1.306   1.874   0.691  0.00  0.00    +0.015 A 
ATOM     20  C   UNL     1       2.360   1.424  -0.085  0.00  0.00    +0.013 A 
ATOM     21  C   UNL     1       2.233   0.264  -0.831  0.00  0.00    +0.015 A 
ATOM     22  C   UNL     1       1.054  -0.450  -0.804  0.00  0.00    +0.014 A 
ATOM     23  C   UNL     1      -0.013  -0.002  -0.023  0.00  0.00    +0.037 A 
ATOM     24  I   UNL     1       4.155   2.503  -0.132  0.00  0.00    -0.044 I 
ENDBRANCH   1  23
BRANCH  15  25
ATOM     25  C   UNL     1      -4.805  -8.721   0.092  0.00  0.00    +0.059 C 
ATOM     26  C   UNL     1      -5.754  -9.921   0.075  0.00  0.00    +0.012 C 
ATOM     27  C   UNL     1      -5.461  -9.158  -1.219  0.00  0.00    +0.012 C 
ENDBRANCH  15  25
TORSDOF 2
