REMARK  Name = ZINC04515185
REMARK  4 active torsions:
REMARK  status: ('A' for Active; 'I' for Inactive)
REMARK    1  A    between atoms: C_1  and  C_2
REMARK    2  A    between atoms: C_9  and  C_14
REMARK    3  A    between atoms: C_14  and  N_15
REMARK    4  A    between atoms: C_23  and  C_25
REMARK                            x       y       z     vdW  Elec       q    Type
REMARK                         _______ _______ _______ _____ _____    ______ ____
ROOT
ATOM      1  C   UNL     1      -0.136  -1.956   3.153  0.00  0.00    +0.154 C 
ENDROOT
BRANCH   1   2
ATOM      2  N   UNL     1      -0.337  -1.260   1.880  0.00  0.00    -0.220 N 
ATOM      3  C   UNL     1       0.617  -0.544   1.248  0.00  0.00    +0.247 C 
ATOM      4  O   UNL     1       1.759  -0.361   1.612  0.00  0.00    -0.273 OA
ATOM      5  C   UNL     1      -0.038  -0.019  -0.009  0.00  0.00    +0.115 C 
ATOM      6  C   UNL     1       0.677  -0.553  -1.245  0.00  0.00    +0.035 C 
ATOM      7  C   UNL     1       2.112  -0.021  -1.278  0.00  0.00    +0.003 C 
ATOM      8  C   UNL     1       2.088   1.508  -1.302  0.00  0.00    +0.000 C 
ATOM      9  C   UNL     1       1.390   2.029  -0.044  0.00  0.00    +0.006 C 
ATOM     10  C   UNL     1      -0.049   1.506  -0.007  0.00  0.00    +0.018 C 
ATOM     11  C   UNL     1      -0.741   2.009   1.261  0.00  0.00    +0.010 C 
ATOM     12  N   UNL     1      -1.409  -0.542   0.058  0.00  0.00    -0.285 N 
ATOM     13  C   UNL     1      -1.489  -1.256   1.198  0.00  0.00    +0.310 C 
ATOM     14  O   UNL     1      -2.494  -1.831   1.566  0.00  0.00    -0.252 OA
ATOM     15  H   UNL     1      -2.116  -0.402  -0.590  0.00  0.00    +0.151 HD
ENDBRANCH   1   2
BRANCH   1  24
ATOM     16  C   UNL     1       0.770  -7.203   7.149  0.00  0.00    +0.045 C 
ATOM     17  C   UNL     1       0.631  -6.201   6.032  0.00  0.00    -0.029 A 
ATOM     18  C   UNL     1       0.848  -6.598   4.729  0.00  0.00    +0.051 A 
ATOM     19  C   UNL     1       0.722  -5.681   3.694  0.00  0.00    +0.140 A 
ATOM     20  C   UNL     1       0.371  -4.351   3.987  0.00  0.00    +0.024 A 
ATOM     21  C   UNL     1       0.153  -3.962   5.312  0.00  0.00    +0.032 A 
ATOM     22  C   UNL     1       0.284  -4.889   6.324  0.00  0.00    +0.045 A 
ATOM     23 CL   UNL     1       0.016  -4.413   7.972  0.00  0.00    -0.083 Cl
ATOM     24  C   UNL     1       0.239  -3.391   2.887  0.00  0.00    -0.012 A 
ATOM     25  C   UNL     1       0.458  -3.832   1.622  0.00  0.00    +0.098 A 
ATOM     26  C   UNL     1       0.810  -5.181   1.401  0.00  0.00    +0.338 A 
ATOM     27  O   UNL     1       1.008  -5.563   0.261  0.00  0.00    -0.245 OA
ATOM     28  O   UNL     1       0.930  -6.053   2.413  0.00  0.00    -0.422 OA
ENDBRANCH   1  24
TORSDOF 2
