REMARK  Name = ZINC00848889
REMARK  13 active torsions:
REMARK  status: ('A' for Active; 'I' for Inactive)
REMARK    1  A    between atoms: N_6  and  C_7
REMARK    2  A    between atoms: C_7  and  C_8
REMARK    3  A    between atoms: C_8  and  C_10
REMARK    4  A    between atoms: C_8  and  O_30
REMARK    5  A    between atoms: C_10  and  O_11
REMARK    6  A    between atoms: O_11  and  C_12
REMARK    7  A    between atoms: C_15  and  O_18
REMARK    8  A    between atoms: O_18  and  C_19
REMARK    9  A    between atoms: C_19  and  C_20
REMARK   10  A    between atoms: C_20  and  C_22
REMARK   11  A    between atoms: C_20  and  O_29
REMARK   12  A    between atoms: C_22  and  N_23
REMARK   13  A    between atoms: N_23  and  C_24
REMARK                            x       y       z     vdW  Elec       q    Type
REMARK                         _______ _______ _______ _____ _____    ______ ____
ROOT
ATOM      1  C   UNL     1       4.726  12.386   0.185  0.00  0.00    +0.121 A 
ATOM      2  C   UNL     1       3.420  12.839   0.295  0.00  0.00    +0.049 A 
ATOM      3  C   UNL     1       2.373  11.938   0.285  0.00  0.00    +0.049 A 
ATOM      4  C   UNL     1       2.627  10.580   0.164  0.00  0.00    +0.121 A 
ATOM      5  C   UNL     1       3.934  10.127   0.059  0.00  0.00    +0.049 A 
ATOM      6  C   UNL     1       4.981  11.028   0.066  0.00  0.00    +0.049 A 
ENDROOT
BRANCH   1   7
ATOM      7  O   UNL     1       5.756  13.273   0.195  0.00  0.00    -0.489 OA
BRANCH   7   8
ATOM      8  C   UNL     1       7.076  12.736   0.078  0.00  0.00    +0.261 C 
BRANCH   8   9
ATOM      9  C   UNL     1       8.095  13.877   0.107  0.00  0.00    +0.169 C 
BRANCH   9  10
ATOM     10  O   UNL     1       7.919  14.703  -1.045  0.00  0.00    -0.387 OA
ATOM     11  H   UNL     1       8.037  14.237  -1.885  0.00  0.00    +0.210 HD
ENDBRANCH   9  10
BRANCH   9  12
ATOM     12  C   UNL     1       9.510  13.296   0.108  0.00  0.00    +0.137 C 
BRANCH  12  18
ATOM     13  C   UNL     1      13.630  12.508   0.198  0.00  0.00    +0.005 A 
ATOM     14  C   UNL     1      14.514  13.569   0.341  0.00  0.00    +0.018 A 
ATOM     15  C   UNL     1      14.018  14.853   0.449  0.00  0.00    +0.084 A 
ATOM     16  C   UNL     1      11.844  14.095   0.284  0.00  0.00    +0.096 A 
ATOM     17  C   UNL     1      12.274  12.777   0.175  0.00  0.00    +0.041 A 
ATOM     18  N   UNL     1      10.484  14.381   0.256  0.00  0.00    -0.328 N 
ATOM     19  H   UNL     1      10.179  15.298   0.336  0.00  0.00    +0.147 HD
ATOM     20  N   UNL     1      12.692  15.155   0.425  0.00  0.00    -0.350 N 
ATOM     21  H   UNL     1      12.351  16.119   0.507  0.00  0.00    +0.166 HD
ENDBRANCH  12  18
ENDBRANCH   9  12
ENDBRANCH   8   9
ENDBRANCH   7   8
ENDBRANCH   1   7
BRANCH   4  22
ATOM     22  O   UNL     1       1.597   9.693   0.154  0.00  0.00    -0.489 OA
BRANCH  22  23
ATOM     23  C   UNL     1       1.932   8.310   0.026  0.00  0.00    +0.261 C 
BRANCH  23  24
ATOM     24  C   UNL     1       0.652   7.472   0.034  0.00  0.00    +0.169 C 
BRANCH  24  25
ATOM     25  O   UNL     1      -0.126   7.781  -1.124  0.00  0.00    -0.387 OA
ATOM     26  H   UNL     1       0.326   7.604  -1.960  0.00  0.00    +0.210 HD
ENDBRANCH  24  25
BRANCH  24  27
ATOM     27  C   UNL     1       1.016   5.986   0.023  0.00  0.00    +0.137 C 
BRANCH  27  28
ATOM     28  N   UNL     1      -0.210   5.183   0.030  0.00  0.00    -0.328 N 
ATOM     29  H   UNL     1      -1.076   5.620   0.041  0.00  0.00    +0.147 HD
BRANCH  28  30
ATOM     30  C   UNL     1      -0.132   3.796   0.023  0.00  0.00    +0.096 A 
ATOM     31  C   UNL     1       1.113   3.175   0.008  0.00  0.00    +0.041 A 
ATOM     32  C   UNL     1       1.176   1.794   0.001  0.00  0.00    +0.005 A 
ATOM     33  C   UNL     1      -0.013   1.076   0.008  0.00  0.00    +0.018 A 
ATOM     34  C   UNL     1      -1.213   1.757   0.017  0.00  0.00    +0.084 A 
ATOM     35  N   UNL     1      -1.313   3.113   0.031  0.00  0.00    -0.350 N 
ATOM     36  H   UNL     1      -2.220   3.593   0.047  0.00  0.00    +0.166 HD
ENDBRANCH  28  30
ENDBRANCH  27  28
ENDBRANCH  24  27
ENDBRANCH  23  24
ENDBRANCH  22  23
ENDBRANCH   4  22
TORSDOF 13
