REMARK  Name = ZINC34957722
REMARK  5 active torsions:
REMARK  status: ('A' for Active; 'I' for Inactive)
REMARK    1  A    between atoms: C_1  and  C_2
REMARK    2  A    between atoms: C_5  and  S_9
REMARK    3  A    between atoms: C_7  and  N_8
REMARK    4  A    between atoms: S_9  and  N_12
REMARK    5  A    between atoms: N_12  and  C_13
REMARK                            x       y       z     vdW  Elec       q    Type
REMARK                         _______ _______ _______ _____ _____    ______ ____
ROOT
ATOM      1  S   UNL     1       0.512  -3.979   0.462  0.00  0.00    +0.072 S 
ATOM      2  O   UNL     1      -0.005  -4.621   1.620  0.00  0.00    -0.150 OA
ATOM      3  O   UNL     1      -0.319  -3.563  -0.614  0.00  0.00    -0.150 OA
ENDROOT
BRANCH   1   8
ATOM      4  C   UNL     1       3.437   0.948   2.368  0.00  0.00    +0.045 C 
ATOM      5  C   UNL     1       2.708  -0.283   1.894  0.00  0.00    -0.030 A 
ATOM      6  C   UNL     1       2.124  -0.301   0.642  0.00  0.00    +0.007 A 
ATOM      7  C   UNL     1       1.454  -1.430   0.207  0.00  0.00    +0.029 A 
ATOM      8  C   UNL     1       1.367  -2.544   1.022  0.00  0.00    +0.110 A 
ATOM      9  C   UNL     1       1.948  -2.532   2.274  0.00  0.00    +0.051 A 
ATOM     10  C   UNL     1       2.627  -1.402   2.713  0.00  0.00    +0.029 A 
BRANCH  10  11
ATOM     11  N   UNL     1       3.221  -1.388   3.977  0.00  0.00    -0.358 N 
ATOM     12  H   UNL     1       3.690  -0.597   4.284  0.00  0.00    +0.142 HD
ATOM     13  H   UNL     1       3.163  -2.170   4.548  0.00  0.00    +0.142 HD
ENDBRANCH  10  11
ENDBRANCH   1   8
BRANCH   1  14
ATOM     14  N   UNL     1       1.643  -5.003  -0.181  0.00  0.00    -0.216 N 
ATOM     15  H   UNL     1       1.791  -5.875   0.218  0.00  0.00    +0.174 HD
BRANCH  14  16
ATOM     16  C   UNL     1       2.384  -4.612  -1.299  0.00  0.00    +0.048 A 
ATOM     17  C   UNL     1       1.794  -4.600  -2.557  0.00  0.00    +0.025 A 
ATOM     18  C   UNL     1       2.529  -4.213  -3.660  0.00  0.00    +0.016 A 
ATOM     19  C   UNL     1       3.852  -3.837  -3.513  0.00  0.00    +0.013 A 
ATOM     20  C   UNL     1       4.443  -3.847  -2.263  0.00  0.00    +0.016 A 
ATOM     21  C   UNL     1       3.711  -4.227  -1.155  0.00  0.00    +0.025 A 
ATOM     22  I   UNL     1       4.963  -3.251  -5.190  0.00  0.00    -0.044 I 
ENDBRANCH  14  16
ENDBRANCH   1  14
TORSDOF 4
