REMARK  Name = ZINC18186163
REMARK  8 active torsions:
REMARK  status: ('A' for Active; 'I' for Inactive)
REMARK    1  A    between atoms: C_1  and  C_2
REMARK    2  A    between atoms: C_6  and  C_16
REMARK    3  A    between atoms: N_8  and  C_9
REMARK    4  A    between atoms: N_18  and  C_19
REMARK    5  A    between atoms: C_19  and  C_20
REMARK    6  A    between atoms: C_20  and  C_22
REMARK    7  A    between atoms: C_20  and  N_59
REMARK    8  A    between atoms: C_29  and  C_32
REMARK                            x       y       z     vdW  Elec       q    Type
REMARK                         _______ _______ _______ _____ _____    ______ ____
ROOT
ATOM      1  C   UNL     1      -1.367   3.698  -4.906  0.00  0.00    +0.268 C 
ATOM      2  O   UNL     1      -2.072   3.001  -5.610  0.00  0.00    -0.268 OA
ATOM      3  N   UNL     1      -0.305   3.161  -4.274  0.00  0.00    -0.311 N 
ATOM      4  H   UNL     1       0.258   3.717  -3.712  0.00  0.00    +0.149 HD
ENDROOT
BRANCH   1  10
ATOM      5  C   UNL     1      -2.406   9.259  -4.168  0.00  0.00    +0.066 C 
ATOM      6  C   UNL     1      -2.201   7.787  -4.415  0.00  0.00    +0.044 A 
ATOM      7  C   UNL     1      -3.058   7.119  -5.222  0.00  0.00    +0.076 A 
ATOM      8  C   UNL     1      -2.827   5.735  -5.433  0.00  0.00    +0.213 A 
ATOM      9  O   UNL     1      -3.556   5.070  -6.153  0.00  0.00    -0.285 OA
ATOM     10  C   UNL     1      -1.675   5.133  -4.744  0.00  0.00    +0.192 A 
ATOM     11  N   UNL     1      -0.920   5.899  -3.985  0.00  0.00    -0.158 NA
ATOM     12  N   UNL     1      -1.161   7.148  -3.825  0.00  0.00    -0.233 N 
BRANCH  12  13
ATOM     13  C   UNL     1      -0.307   7.889  -3.001  0.00  0.00    +0.101 A 
ATOM     14  C   UNL     1       0.347   9.007  -3.501  0.00  0.00    +0.031 A 
ATOM     15  C   UNL     1       1.186   9.739  -2.684  0.00  0.00    +0.002 A 
ATOM     16  C   UNL     1       1.383   9.355  -1.370  0.00  0.00    +0.003 A 
ATOM     17  C   UNL     1       0.738   8.240  -0.868  0.00  0.00    +0.040 A 
ATOM     18  C   UNL     1      -0.107   7.504  -1.679  0.00  0.00    +0.149 A 
ATOM     19  F   UNL     1      -0.737   6.415  -1.188  0.00  0.00    -0.203 F 
ENDBRANCH  12  13
ENDBRANCH   1  10
BRANCH   3  20
ATOM     20  C   UNL     1       0.001   1.737  -4.434  0.00  0.00    +0.094 C 
BRANCH  20  21
ATOM     21  C   UNL     1       1.312   1.413  -3.716  0.00  0.00    -0.013 C 
BRANCH  21  28
ATOM     22  C   UNL     1       0.095   1.191  -1.636  0.00  0.00    -0.078 C 
ATOM     23  C   UNL     1      -0.057   1.769  -0.227  0.00  0.00    -0.015 C 
ATOM     24  C   UNL     1       1.238   1.536   0.557  0.00  0.00    -0.018 C 
ATOM     25  C   UNL     1       2.404   2.183  -0.196  0.00  0.00    -0.015 C 
ATOM     26  C   UNL     1       2.484   1.593  -1.606  0.00  0.00    -0.078 C 
ATOM     27  C   UNL     1       1.115   2.165   1.946  0.00  0.00    +0.007 C 
ATOM     28  N   UNL     1       1.218   1.872  -2.315  0.00  0.00    +0.386 N 
ATOM     29  H   UNL     1       1.047   2.884  -2.307  0.00  0.00    -0.081 HD
ENDBRANCH  21  28
BRANCH  21  30
ATOM     30  C   UNL     1       1.561  -0.073  -3.772  0.00  0.00    -0.022 A 
ATOM     31  C   UNL     1       2.560  -0.748  -4.391  0.00  0.00    +0.009 A 
ATOM     32  C   UNL     1       2.589  -2.128  -4.306  0.00  0.00    +0.008 A 
ATOM     33  C   UNL     1       1.618  -2.764  -3.606  0.00  0.00    +0.045 A 
ATOM     34  S   UNL     1       0.621  -1.398  -3.033  0.00  0.00    -0.103 S 
ENDBRANCH  21  30
ENDBRANCH  20  21
ENDBRANCH   3  20
TORSDOF 6
