REMARK  Name = ZINC02370754
REMARK  4 active torsions:
REMARK  status: ('A' for Active; 'I' for Inactive)
REMARK    1  A    between atoms: C_1  and  C_2
REMARK    2  A    between atoms: C_2  and  C_3
REMARK    3  A    between atoms: C_3  and  C_26
REMARK    4  A    between atoms: C_7  and  N_18
REMARK                            x       y       z     vdW  Elec       q    Type
REMARK                         _______ _______ _______ _____ _____    ______ ____
ROOT
ATOM      1  C   UNL     1       6.774   1.012   2.718  0.00  0.00    +0.071 C 
ATOM      2  C   UNL     1       6.421  -0.191   3.596  0.00  0.00    +0.071 C 
ATOM      3  C   UNL     1       4.962  -0.524   3.438  0.00  0.00    -0.024 A 
ATOM      4  C   UNL     1       4.225  -0.057   2.395  0.00  0.00    +0.020 A 
ATOM      5  C   UNL     1       2.874  -0.404   2.286  0.00  0.00    +0.105 A 
ATOM      6  C   UNL     1       2.989  -1.647   4.218  0.00  0.00    +0.089 A 
ATOM      7  C   UNL     1       4.350  -1.354   4.409  0.00  0.00    +0.035 A 
ATOM      8  C   UNL     1       4.978  -1.952   5.602  0.00  0.00    +0.092 A 
ATOM      9  C   UNL     1       4.138  -2.741   6.406  0.00  0.00    +0.077 A 
ATOM     10  S   UNL     1       2.564  -2.686   5.594  0.00  0.00    -0.066 S 
ATOM     11  C   UNL     1       4.615  -3.350   7.547  0.00  0.00    +0.147 A 
ATOM     12  N   UNL     1       5.892  -3.175   7.870  0.00  0.00    -0.223 NA
ATOM     13  C   UNL     1       6.672  -2.432   7.108  0.00  0.00    +0.223 A 
ATOM     14  N   UNL     1       6.256  -1.837   6.017  0.00  0.00    -0.234 NA
ATOM     15 CL   UNL     1       3.574  -4.323   8.538  0.00  0.00    -0.061 Cl
ATOM     16  C   UNL     1       4.828   0.841   1.345  0.00  0.00    +0.199 C 
ATOM     17  O   UNL     1       6.253   0.781   1.404  0.00  0.00    -0.369 OA
ATOM     18  C   UNL     1       6.149   2.279   3.305  0.00  0.00    +0.042 C 
ATOM     19  N   UNL     1       2.230  -1.195   3.190  0.00  0.00    -0.337 N 
ATOM     20  H   UNL     1       1.236  -1.433   3.098  0.00  0.00    +0.168 HD
ENDROOT
BRANCH   5  21
ATOM     21  N   UNL     1       2.125   0.070   1.217  0.00  0.00    -0.312 N 
ATOM     22  C   UNL     1       1.615  -1.040   0.399  0.00  0.00    +0.134 C 
ATOM     23  C   UNL     1       0.847  -0.472  -0.798  0.00  0.00    +0.178 C 
ATOM     24  O   UNL     1      -0.201   0.379  -0.326  0.00  0.00    -0.377 OA
ATOM     25  C   UNL     1       0.260   1.470   0.475  0.00  0.00    +0.178 C 
ATOM     26  C   UNL     1       1.022   0.922   1.684  0.00  0.00    +0.134 C 
ENDBRANCH   5  21
BRANCH   1  28
ATOM     27  C   UNL     1       8.638   2.446   1.875  0.00  0.00    +0.007 C 
ATOM     28  C   UNL     1       8.294   1.172   2.649  0.00  0.00    +0.032 C 
ENDBRANCH   1  28
TORSDOF 2
