REMARK  Name = ZINC01416623
REMARK  5 active torsions:
REMARK  status: ('A' for Active; 'I' for Inactive)
REMARK    1  A    between atoms: C_1  and  O_2
REMARK    2  A    between atoms: O_2  and  C_3
REMARK    3  A    between atoms: C_5  and  C_11
REMARK    4  A    between atoms: C_8  and  O_9
REMARK    5  A    between atoms: N_15  and  C_19
REMARK                            x       y       z     vdW  Elec       q    Type
REMARK                         _______ _______ _______ _____ _____    ______ ____
ROOT
ATOM      1  C   UNL     1      -7.275  -0.501   0.250  0.00  0.00    +0.028 C 
ATOM      2  C   UNL     1      -6.046  -0.907  -0.159  0.00  0.00    +0.078 C 
ATOM      3  C   UNL     1      -4.953  -0.127  -0.773  0.00  0.00    +0.263 C 
ATOM      4  O   UNL     1      -5.062   1.066  -0.989  0.00  0.00    -0.269 OA
ATOM      5  N   UNL     1      -3.850  -0.789  -1.075  0.00  0.00    -0.223 N 
ATOM      6  C   UNL     1      -3.735  -2.112  -0.839  0.00  0.00    +0.125 C 
ATOM      7  S   UNL     1      -2.404  -3.139  -1.163  0.00  0.00    -0.027 S 
ATOM      8  S   UNL     1      -5.307  -2.533  -0.104  0.00  0.00    -0.061 S 
ENDROOT
BRANCH   5   9
ATOM      9  C   UNL     1      -2.776  -0.102  -1.661  0.00  0.00    +0.046 A 
ATOM     10  C   UNL     1      -2.910   0.442  -2.931  0.00  0.00    +0.028 A 
ATOM     11  C   UNL     1      -1.852   1.114  -3.511  0.00  0.00    +0.051 A 
ATOM     12  C   UNL     1      -0.657   1.257  -2.823  0.00  0.00    +0.166 A 
ATOM     13  C   UNL     1      -0.520   0.712  -1.548  0.00  0.00    +0.168 A 
ATOM     14  C   UNL     1      -1.580   0.034  -0.970  0.00  0.00    +0.073 A 
ATOM     15  O   UNL     1       0.738   0.981  -1.092  0.00  0.00    -0.453 OA
ATOM     16  C   UNL     1       1.231   2.045  -1.928  0.00  0.00    +0.466 C 
ATOM     17  O   UNL     1       0.516   1.868  -3.165  0.00  0.00    -0.453 OA
ENDBRANCH   5   9
BRANCH   1  20
ATOM     18  C   UNL     1      -6.974   3.207   0.726  0.00  0.00    +0.163 A 
ATOM     19  C   UNL     1      -6.659   1.863   0.714  0.00  0.00    +0.057 A 
ATOM     20  C   UNL     1      -7.606   0.930   0.273  0.00  0.00    -0.019 A 
ATOM     21  C   UNL     1      -8.871   1.365  -0.141  0.00  0.00    +0.027 A 
ATOM     22  C   UNL     1      -9.178   2.708  -0.119  0.00  0.00    +0.063 A 
ATOM     23  C   UNL     1      -8.236   3.633   0.313  0.00  0.00    +0.173 A 
ATOM     24 BR   UNL     1     -10.887   3.294  -0.679  0.00  0.00    -0.046 Br
BRANCH  18  26
ATOM     25  C   UNL     1      -4.783   3.611   1.558  0.00  0.00    +0.277 C 
ATOM     26  O   UNL     1      -6.055   4.116   1.149  0.00  0.00    -0.491 OA
ENDBRANCH  18  26
BRANCH  23  27
ATOM     27  O   UNL     1      -8.544   4.956   0.333  0.00  0.00    -0.503 OA
ATOM     28  H   UNL     1      -8.933   5.257   1.166  0.00  0.00    +0.292 HD
ENDBRANCH  23  27
ENDBRANCH   1  20
TORSDOF 4
