REMARK  Name = ZINC67567946
REMARK  6 active torsions:
REMARK  status: ('A' for Active; 'I' for Inactive)
REMARK    1  A    between atoms: C_1  and  C_2
REMARK    2  A    between atoms: C_2  and  O_3
REMARK    3  A    between atoms: O_3  and  C_4
REMARK    4  A    between atoms: C_9  and  N_10
REMARK    5  A    between atoms: C_11  and  C_13
REMARK    6  A    between atoms: C_18  and  N_21
REMARK                            x       y       z     vdW  Elec       q    Type
REMARK                         _______ _______ _______ _____ _____    ______ ____
ROOT
ATOM      1  N   UNL     1      -3.901  -1.567   0.031  0.00  0.00    -0.275 N 
ATOM      2  C   UNL     1      -5.136  -2.098  -0.062  0.00  0.00    +0.303 C 
ATOM      3  O   UNL     1      -5.280  -3.303  -0.067  0.00  0.00    -0.265 OA
ATOM      4  H   UNL     1      -3.791  -0.607   0.116  0.00  0.00    +0.155 HD
ENDROOT
BRANCH   1  10
ATOM      5  C   UNL     1      -1.584  -1.982   0.590  0.00  0.00    +0.142 A 
ATOM      6  C   UNL     1      -0.476  -2.813   0.567  0.00  0.00    +0.050 A 
ATOM      7  C   UNL     1      -0.553  -4.052  -0.042  0.00  0.00    +0.042 A 
ATOM      8  C   UNL     1      -1.737  -4.467  -0.629  0.00  0.00    +0.125 A 
ATOM      9  C   UNL     1      -2.848  -3.643  -0.609  0.00  0.00    +0.065 A 
ATOM     10  C   UNL     1      -2.778  -2.400   0.004  0.00  0.00    +0.079 A 
ATOM     11  F   UNL     1      -1.806  -5.679  -1.222  0.00  0.00    -0.205 F 
BRANCH   5  12
ATOM     12  O   UNL     1      -1.509  -0.763   1.188  0.00  0.00    -0.490 OA
BRANCH  12  14
ATOM     13  C   UNL     1      -0.362   0.993   2.389  0.00  0.00    +0.048 C 
ATOM     14  C   UNL     1      -0.254  -0.401   1.768  0.00  0.00    +0.226 C 
ENDBRANCH  12  14
ENDBRANCH   5  12
ENDBRANCH   1  10
BRANCH   2  15
ATOM     15  C   UNL     1      -6.328  -1.203  -0.158  0.00  0.00    +0.302 C 
ATOM     16  O   UNL     1      -6.185   0.002  -0.153  0.00  0.00    -0.265 OA
ATOM     17  N   UNL     1      -7.563  -1.734  -0.251  0.00  0.00    -0.295 N 
ATOM     18  C   UNL     1      -7.880  -3.170  -0.262  0.00  0.00    +0.106 C 
ATOM     19  C   UNL     1      -9.415  -3.300  -0.354  0.00  0.00    +0.005 C 
ATOM     20  C   UNL     1      -9.912  -1.931   0.180  0.00  0.00    -0.049 C 
ATOM     21  C   UNL     1      -8.821  -0.972  -0.352  0.00  0.00    +0.093 C 
BRANCH  20  22
ATOM     22  N   UNL     1     -11.230  -1.595  -0.377  0.00  0.00    +0.383 N 
ATOM     23  C   UNL     1     -12.242  -2.585   0.071  0.00  0.00    -0.078 C 
ATOM     24  C   UNL     1     -13.581  -1.822  -0.096  0.00  0.00    -0.020 C 
ATOM     25  C   UNL     1     -13.212  -0.381   0.324  0.00  0.00    -0.020 C 
ATOM     26  C   UNL     1     -11.685  -0.288   0.144  0.00  0.00    -0.078 C 
ATOM     27  H   UNL     1     -11.186  -1.572  -1.385  0.00  0.00    -0.081 HD
ENDBRANCH  20  22
ENDBRANCH   2  15
TORSDOF 5
