REMARK  Name = ZINC64314238
REMARK  5 active torsions:
REMARK  status: ('A' for Active; 'I' for Inactive)
REMARK    1  A    between atoms: C_1  and  C_2
REMARK    2  A    between atoms: C_2  and  C_3
REMARK    3  A    between atoms: C_2  and  C_4
REMARK    4  A    between atoms: C_2  and  N_13
REMARK    5  A    between atoms: C_14  and  C_16
REMARK                            x       y       z     vdW  Elec       q    Type
REMARK                         _______ _______ _______ _____ _____    ______ ____
ROOT
ATOM      1  C   UNL     1       0.048   1.524   0.065  0.00  0.00    +0.036 C 
ATOM      2  C   UNL     1       0.002  -0.004   0.002  0.00  0.00    +0.055 C 
ATOM      3  C   UNL     1       0.667  -0.586   1.251  0.00  0.00    +0.036 C 
ENDROOT
BRANCH   2   4
ATOM      4  C   UNL     1      -1.432  -0.461  -0.062  0.00  0.00    -0.021 A 
ATOM      5  C   UNL     1      -2.410   0.236   0.622  0.00  0.00    +0.009 A 
ATOM      6  C   UNL     1      -3.728  -0.179   0.566  0.00  0.00    +0.050 A 
ATOM      7  C   UNL     1      -4.071  -1.297  -0.177  0.00  0.00    +0.166 A 
ATOM      8  C   UNL     1      -3.086  -1.999  -0.867  0.00  0.00    +0.167 A 
ATOM      9  C   UNL     1      -1.769  -1.574  -0.810  0.00  0.00    +0.055 A 
ATOM     10  O   UNL     1      -3.671  -3.048  -1.515  0.00  0.00    -0.453 OA
ATOM     11  C   UNL     1      -4.956  -3.220  -0.888  0.00  0.00    +0.466 C 
ATOM     12  O   UNL     1      -5.274  -1.905  -0.394  0.00  0.00    -0.453 OA
ENDBRANCH   2   4
BRANCH   2  13
ATOM     13  N   UNL     1       0.716  -0.465  -1.192  0.00  0.00    -0.302 N 
ATOM     14  C   UNL     1       2.027  -0.191  -1.341  0.00  0.00    +0.246 C 
ATOM     15  O   UNL     1       2.617   0.438  -0.484  0.00  0.00    -0.270 OA
ATOM     16  H   UNL     1       0.244  -0.967  -1.875  0.00  0.00    +0.150 HD
BRANCH  14  17
ATOM     17  C   UNL     1       2.747  -0.656  -2.545  0.00  0.00    +0.056 A 
ATOM     18  C   UNL     1       4.110  -0.384  -2.709  0.00  0.00    +0.031 A 
ATOM     19  C   UNL     1       4.738  -0.841  -3.855  0.00  0.00    +0.037 A 
ATOM     20  C   UNL     1       4.004  -1.548  -4.793  0.00  0.00    +0.126 A 
ATOM     21  N   UNL     1       2.720  -1.789  -4.611  0.00  0.00    -0.261 NA
ATOM     22  C   UNL     1       2.081  -1.380  -3.535  0.00  0.00    +0.123 A 
ATOM     23 BR   UNL     1       6.577  -0.505  -4.136  0.00  0.00    -0.049 Br
ENDBRANCH  14  17
ENDBRANCH   2  13
TORSDOF 3
