REMARK  Name = ZINC65331384
REMARK  3 active torsions:
REMARK  status: ('A' for Active; 'I' for Inactive)
REMARK    1  A    between atoms: C_1  and  C_2
REMARK    2  A    between atoms: C_3  and  N_9
REMARK    3  A    between atoms: C_14  and  C_20
REMARK                            x       y       z     vdW  Elec       q    Type
REMARK                         _______ _______ _______ _____ _____    ______ ____
ROOT
ATOM      1  N   UNL     1      -0.161  -0.119  -2.481  0.00  0.00    -0.218 N 
ATOM      2  C   UNL     1      -0.347  -0.722  -3.673  0.00  0.00    +0.132 A 
ATOM      3  C   UNL     1      -0.375   0.258  -4.631  0.00  0.00    +0.020 A 
ATOM      4  C   UNL     1      -0.204   1.480  -3.999  0.00  0.00    +0.141 A 
ATOM      5  N   UNL     1      -0.081   1.264  -2.710  0.00  0.00    -0.173 NA
ATOM      6  C   UNL     1      -0.563  -0.055  -6.094  0.00  0.00    +0.065 C 
ATOM      7  C   UNL     1       0.003  -1.452  -6.365  0.00  0.00    +0.109 C 
ATOM      8  C   UNL     1      -0.401  -2.425  -5.295  0.00  0.00    +0.219 C 
ATOM      9  O   UNL     1      -0.648  -3.571  -5.609  0.00  0.00    -0.275 OA
ATOM     10  N   UNL     1      -0.499  -2.070  -3.996  0.00  0.00    -0.270 N 
ATOM     11  H   UNL     1      -0.670  -2.732  -3.308  0.00  0.00    +0.156 HD
ENDROOT
BRANCH   1  14
ATOM     12  C   UNL     1      -1.710   0.906  -0.324  0.00  0.00    +0.047 C 
ATOM     13  C   UNL     1      -0.808  -0.290  -0.158  0.00  0.00    -0.007 A 
ATOM     14  C   UNL     1      -0.069  -0.758  -1.236  0.00  0.00    +0.072 A 
ATOM     15  C   UNL     1       0.760  -1.860  -1.080  0.00  0.00    +0.028 A 
ATOM     16  C   UNL     1       0.849  -2.489   0.147  0.00  0.00    +0.004 A 
ATOM     17  C   UNL     1       0.112  -2.022   1.219  0.00  0.00    +0.020 A 
ATOM     18  C   UNL     1      -0.712  -0.919   1.069  0.00  0.00    +0.046 A 
ATOM     19 CL   UNL     1      -1.630  -0.331   2.420  0.00  0.00    -0.083 Cl
ENDBRANCH   1  14
BRANCH   6  20
ATOM     20  C   UNL     1      -2.030  -0.025  -6.435  0.00  0.00    -0.001 A 
ATOM     21  C   UNL     1      -2.906  -0.882  -5.794  0.00  0.00    +0.007 A 
ATOM     22  C   UNL     1      -4.253  -0.856  -6.106  0.00  0.00    +0.003 A 
ATOM     23  C   UNL     1      -4.726   0.026  -7.059  0.00  0.00    +0.041 A 
ATOM     24  C   UNL     1      -3.852   0.884  -7.703  0.00  0.00    +0.159 A 
ATOM     25  C   UNL     1      -2.502   0.862  -7.386  0.00  0.00    +0.162 A 
ATOM     26  F   UNL     1      -1.647   1.703  -8.009  0.00  0.00    -0.202 F 
ATOM     27  F   UNL     1      -4.314   1.746  -8.635  0.00  0.00    -0.202 F 
ENDBRANCH   6  20
TORSDOF 2
