REMARK  Name = ZINC18200693
REMARK  4 active torsions:
REMARK  status: ('A' for Active; 'I' for Inactive)
REMARK    1  A    between atoms: C_3  and  C_6
REMARK    2  A    between atoms: C_11  and  C_20
REMARK    3  A    between atoms: C_23  and  O_26
REMARK    4  A    between atoms: O_26  and  C_27
REMARK                            x       y       z     vdW  Elec       q    Type
REMARK                         _______ _______ _______ _____ _____    ______ ____
ROOT
ATOM      1  C   UNL     1      -0.273  -2.723  -0.690  0.00  0.00    +0.068 C 
ATOM      2  C   UNL     1       1.111  -2.216  -0.281  0.00  0.00    +0.063 C 
ATOM      3  C   UNL     1       1.120  -0.705  -0.282  0.00  0.00    +0.020 C 
ATOM      4  C   UNL     1       0.002  -0.004   0.002  0.00  0.00    +0.041 C 
ATOM      5  C   UNL     1      -0.018   1.509   0.010  0.00  0.00    +0.175 C 
ATOM      6  N   UNL     1       1.344   2.027   0.000  0.00  0.00    -0.219 N 
ATOM      7  C   UNL     1       2.429   1.266  -0.283  0.00  0.00    +0.220 A 
ATOM      8  N   UNL     1       3.487   2.027  -0.217  0.00  0.00    -0.180 NA
ATOM      9  C   UNL     1       3.122   3.274   0.111  0.00  0.00    +0.233 A 
ATOM     10  N   UNL     1       1.815   3.314   0.254  0.00  0.00    -0.132 NA
ATOM     11  N   UNL     1       3.988   4.356   0.274  0.00  0.00    -0.326 N 
ATOM     12  N   UNL     1       2.310  -0.083  -0.576  0.00  0.00    -0.287 N 
ATOM     13  C   UNL     1      -1.204  -0.662   0.304  0.00  0.00    +0.164 C 
ATOM     14  O   UNL     1      -2.189  -0.003   0.575  0.00  0.00    -0.292 OA
ATOM     15  C   UNL     1      -1.302  -2.162   0.297  0.00  0.00    +0.091 C 
ATOM     16  H   UNL     1       4.942   4.237   0.149  0.00  0.00    +0.145 HD
ATOM     17  H   UNL     1       3.636   5.228   0.513  0.00  0.00    +0.145 HD
ATOM     18  H   UNL     1       3.044  -0.573  -0.978  0.00  0.00    +0.155 HD
ENDROOT
BRANCH   5  19
ATOM     19  C   UNL     1      -0.751   2.006  -1.209  0.00  0.00    -0.018 A 
ATOM     20  C   UNL     1      -0.286   1.687  -2.471  0.00  0.00    +0.009 A 
ATOM     21  C   UNL     1      -0.959   2.137  -3.591  0.00  0.00    +0.046 A 
ATOM     22  C   UNL     1      -2.097   2.918  -3.448  0.00  0.00    +0.130 A 
ATOM     23  C   UNL     1      -2.558   3.240  -2.180  0.00  0.00    +0.046 A 
ATOM     24  C   UNL     1      -1.885   2.784  -1.064  0.00  0.00    +0.009 A 
BRANCH  22  25
ATOM     25  O   UNL     1      -2.757   3.367  -4.547  0.00  0.00    -0.406 OA
BRANCH  25  26
ATOM     26  C   UNL     1      -2.224   2.995  -5.820  0.00  0.00    +0.575 C 
ATOM     27  F   UNL     1      -2.212   1.601  -5.932  0.00  0.00    -0.133 F 
ATOM     28  F   UNL     1      -3.021   3.538  -6.835  0.00  0.00    -0.133 F 
ATOM     29  F   UNL     1      -0.919   3.484  -5.940  0.00  0.00    -0.133 F 
ENDBRANCH  25  26
ENDBRANCH  22  25
ENDBRANCH   5  19
BRANCH   1  32
ATOM     30  C   UNL     1      -0.480  -6.367  -1.198  0.00  0.00    +0.041 A 
ATOM     31  C   UNL     1      -0.572  -5.042  -1.682  0.00  0.00    +0.045 A 
ATOM     32  C   UNL     1      -0.295  -4.229  -0.646  0.00  0.00    +0.109 A 
ATOM     33  O   UNL     1      -0.037  -4.987   0.432  0.00  0.00    -0.468 OA
ATOM     34  C   UNL     1      -0.154  -6.285   0.105  0.00  0.00    +0.195 A 
ENDBRANCH   1  32
TORSDOF 4
