REMARK  Name = ZINC35511892
REMARK  3 active torsions:
REMARK  status: ('A' for Active; 'I' for Inactive)
REMARK    1  A    between atoms: C_1  and  C_2
REMARK    2  A    between atoms: C_2  and  C_3
REMARK    3  A    between atoms: C_9  and  C_25
REMARK                            x       y       z     vdW  Elec       q    Type
REMARK                         _______ _______ _______ _____ _____    ______ ____
ROOT
ATOM      1  C   UNL     1       0.707  -0.490  -1.238  0.00  0.00    +0.103 A 
ATOM      2  N   UNL     1       1.983  -0.760  -1.437  0.00  0.00    -0.145 NA
ATOM      3  N   UNL     1       2.418  -1.163  -2.549  0.00  0.00    -0.125 NA
ATOM      4  C   UNL     1       1.617  -1.342  -3.591  0.00  0.00    +0.191 A 
ATOM      5  S   UNL     1       0.051  -0.874  -2.859  0.00  0.00    -0.035 S 
ATOM      6  N   UNL     1       1.908  -1.774  -4.878  0.00  0.00    -0.230 N 
ATOM      7  C   UNL     1       3.239  -2.150  -5.384  0.00  0.00    +0.152 C 
ATOM      8  C   UNL     1       3.036  -2.537  -6.812  0.00  0.00    +0.072 A 
ATOM      9  C   UNL     1       3.985  -2.991  -7.834  0.00  0.00    +0.199 A 
ATOM     10  O   UNL     1       5.139  -3.291  -7.587  0.00  0.00    -0.287 OA
ATOM     11  C   UNL     1       3.404  -3.049  -9.200  0.00  0.00    +0.065 A 
ATOM     12  C   UNL     1       4.225  -3.268 -10.306  0.00  0.00    +0.030 A 
ATOM     13  C   UNL     1       3.670  -3.314 -11.567  0.00  0.00    +0.019 A 
ATOM     14  C   UNL     1       2.301  -3.143 -11.731  0.00  0.00    +0.019 A 
ATOM     15  C   UNL     1       1.482  -2.928 -10.646  0.00  0.00    +0.048 A 
ATOM     16  C   UNL     1       2.019  -2.880  -9.360  0.00  0.00    +0.140 A 
ATOM     17  O   UNL     1       1.190  -2.677  -8.310  0.00  0.00    -0.450 OA
ATOM     18  C   UNL     1       1.707  -2.399  -7.097  0.00  0.00    +0.199 A 
ATOM     19  C   UNL     1       1.021  -1.927  -5.882  0.00  0.00    +0.289 C 
ATOM     20  O   UNL     1      -0.171  -1.704  -5.798  0.00  0.00    -0.266 OA
ATOM     21 BR   UNL     1       4.773  -3.611 -13.074  0.00  0.00    -0.050 Br
ENDROOT
BRANCH   7  22
ATOM     22  C   UNL     1       4.182  -0.979  -5.290  0.00  0.00    -0.021 A 
ATOM     23  C   UNL     1       3.728   0.298  -5.562  0.00  0.00    +0.006 A 
ATOM     24  C   UNL     1       4.592   1.373  -5.475  0.00  0.00    +0.002 A 
ATOM     25  C   UNL     1       5.912   1.172  -5.117  0.00  0.00    +0.020 A 
ATOM     26  C   UNL     1       6.367  -0.106  -4.844  0.00  0.00    +0.041 A 
ATOM     27  C   UNL     1       5.500  -1.181  -4.925  0.00  0.00    +0.025 A 
ATOM     28 CL   UNL     1       8.024  -0.360  -4.394  0.00  0.00    -0.084 Cl
ENDBRANCH   7  22
BRANCH   1  30
ATOM     29  C   UNL     1      -0.019   1.526   0.010  0.00  0.00    +0.011 C 
ATOM     30  C   UNL     1       0.002  -0.004   0.002  0.00  0.00    +0.061 C 
ENDBRANCH   1  30
TORSDOF 2
