REMARK  Name = ZINC16936562
REMARK  8 active torsions:
REMARK  status: ('A' for Active; 'I' for Inactive)
REMARK    1  A    between atoms: C_1  and  C_2
REMARK    2  A    between atoms: C_2  and  C_3
REMARK    3  A    between atoms: C_3  and  C_5
REMARK    4  A    between atoms: C_3  and  O_8
REMARK    5  A    between atoms: O_8  and  C_9
REMARK    6  A    between atoms: C_12  and  C_15
REMARK    7  A    between atoms: N_21  and  C_22
REMARK    8  A    between atoms: C_25  and  C_28
REMARK                            x       y       z     vdW  Elec       q    Type
REMARK                         _______ _______ _______ _____ _____    ______ ____
ROOT
ATOM      1  C   UNL     1      -7.641   0.300   1.398  0.00  0.00    +0.028 C 
ATOM      2  C   UNL     1      -8.253   0.759   2.520  0.00  0.00    +0.078 C 
ATOM      3  C   UNL     1      -9.680   1.051   2.756  0.00  0.00    +0.256 C 
ATOM      4  O   UNL     1     -10.514   0.893   1.885  0.00  0.00    -0.269 OA
ATOM      5  N   UNL     1     -10.010   1.493   3.958  0.00  0.00    -0.260 N 
ATOM      6  C   UNL     1      -9.052   1.666   4.930  0.00  0.00    +0.166 C 
ATOM      7  N   UNL     1      -9.208   2.094   6.167  0.00  0.00    -0.226 NA
ATOM      8  S   UNL     1      -7.548   1.163   4.111  0.00  0.00    -0.049 S 
ATOM      9  H   UNL     1     -10.937   1.698   4.155  0.00  0.00    +0.157 HD
ENDROOT
BRANCH   1  13
ATOM     10  C   UNL     1      -3.410   0.101   1.219  0.00  0.00    +0.122 A 
ATOM     11  C   UNL     1      -4.176  -0.614   0.306  0.00  0.00    +0.046 A 
ATOM     12  C   UNL     1      -5.550  -0.553   0.359  0.00  0.00    +0.011 A 
ATOM     13  C   UNL     1      -6.176   0.231   1.336  0.00  0.00    -0.024 A 
ATOM     14  C   UNL     1      -5.399   0.949   2.254  0.00  0.00    +0.011 A 
ATOM     15  C   UNL     1      -4.026   0.877   2.195  0.00  0.00    +0.046 A 
BRANCH  10  16
ATOM     16  O   UNL     1      -2.055   0.037   1.162  0.00  0.00    -0.477 OA
BRANCH  16  17
ATOM     17  C   UNL     1      -1.330   0.695   2.204  0.00  0.00    +0.285 C 
BRANCH  17  18
ATOM     18  C   UNL     1      -1.166   2.152   1.860  0.00  0.00    +0.396 C 
ATOM     19  O   UNL     1      -1.546   2.570   0.779  0.00  0.00    -0.242 OA
ATOM     20  O   UNL     1      -0.653   2.914   2.662  0.00  0.00    -0.242 OA
ENDBRANCH  17  18
BRANCH  17  22
ATOM     21  C   UNL     1      -0.115  -1.399   2.823  0.00  0.00    +0.008 C 
ATOM     22  C   UNL     1       0.049   0.048   2.353  0.00  0.00    +0.053 C 
ENDBRANCH  17  22
ENDBRANCH  16  17
ENDBRANCH  10  16
ENDBRANCH   1  13
BRANCH   7  23
ATOM     23  C   UNL     1      -8.130   2.200   6.991  0.00  0.00    +0.067 A 
ATOM     24  C   UNL     1      -7.185   1.167   7.045  0.00  0.00    +0.028 A 
ATOM     25  C   UNL     1      -6.106   1.274   7.871  0.00  0.00    +0.017 A 
ATOM     26  C   UNL     1      -5.941   2.417   8.666  0.00  0.00    +0.063 A 
ATOM     27  C   UNL     1      -6.887   3.450   8.611  0.00  0.00    +0.017 A 
ATOM     28  C   UNL     1      -7.963   3.345   7.781  0.00  0.00    +0.028 A 
BRANCH  26  29
ATOM     29  C   UNL     1      -4.778   2.531   9.557  0.00  0.00    +0.387 C 
ATOM     30  O   UNL     1      -3.953   1.629   9.604  0.00  0.00    -0.241 OA
ATOM     31  O   UNL     1      -4.635   3.529  10.251  0.00  0.00    -0.241 OA
ENDBRANCH  26  29
ENDBRANCH   7  23
TORSDOF 7
