REMARK  Name = ZINC32084913
REMARK  7 active torsions:
REMARK  status: ('A' for Active; 'I' for Inactive)
REMARK    1  A    between atoms: C_1  and  C_2
REMARK    2  A    between atoms: C_5  and  S_11
REMARK    3  A    between atoms: C_7  and  C_8
REMARK    4  A    between atoms: S_11  and  N_14
REMARK    5  A    between atoms: N_14  and  C_15
REMARK    6  A    between atoms: C_17  and  C_22
REMARK    7  A    between atoms: C_20  and  C_21
REMARK                            x       y       z     vdW  Elec       q    Type
REMARK                         _______ _______ _______ _____ _____    ______ ____
ROOT
ATOM      1  N   UNL     1      -2.559   2.903   1.809  0.00  0.00    -0.216 N 
ATOM      2  H   UNL     1      -3.524   2.478   2.122  0.00  0.00    +0.174 HD
ENDROOT
BRANCH   1   3
ATOM      3  C   UNL     1      -1.665   3.386   2.767  0.00  0.00    +0.052 A 
ATOM      4  C   UNL     1      -0.887   4.500   2.491  0.00  0.00    +0.036 A 
ATOM      5  C   UNL     1       0.003   4.978   3.451  0.00  0.00    +0.021 A 
ATOM      6  C   UNL     1       0.107   4.332   4.684  0.00  0.00    +0.012 A 
ATOM      7  C   UNL     1      -0.671   3.223   4.949  0.00  0.00    +0.006 A 
ATOM      8  C   UNL     1      -1.558   2.752   4.000  0.00  0.00    -0.028 A 
ATOM      9  C   UNL     1      -2.409   1.545   4.300  0.00  0.00    +0.046 C 
BRANCH   5  10
ATOM     10  C   UNL     1       0.837   6.166   3.164  0.00  0.00    +0.164 A 
ATOM     11  N   UNL     1       1.229   6.582   1.978  0.00  0.00    -0.129 NA
ATOM     12  N   UNL     1       1.933   7.652   2.103  0.00  0.00    -0.134 NA
ATOM     13  C   UNL     1       2.032   7.974   3.363  0.00  0.00    +0.134 A 
ATOM     14  N   UNL     1       1.351   7.040   4.077  0.00  0.00    -0.311 N 
ATOM     15  C   UNL     1       1.215   6.984   5.533  0.00  0.00    +0.125 C 
ATOM     16  C   UNL     1       1.312   8.402   6.105  0.00  0.00    +0.022 C 
ATOM     17  C   UNL     1       2.771   8.738   6.407  0.00  0.00    +0.002 C 
ATOM     18  C   UNL     1       3.606   8.698   5.130  0.00  0.00    +0.008 C 
ATOM     19  C   UNL     1       2.754   9.162   3.945  0.00  0.00    +0.076 C 
ENDBRANCH   5  10
ENDBRANCH   1   3
BRANCH   1  20
ATOM     20  S   UNL     1      -2.167   2.971   0.202  0.00  0.00    +0.072 S 
ATOM     21  O   UNL     1      -1.826   4.322  -0.077  0.00  0.00    -0.150 OA
ATOM     22  O   UNL     1      -3.197   2.285  -0.497  0.00  0.00    -0.150 OA
BRANCH  20  27
ATOM     23  C   UNL     1       2.895  -0.242  -0.556  0.00  0.00    +0.044 C 
ATOM     24  C   UNL     1       1.631   0.555  -0.366  0.00  0.00    -0.038 A 
ATOM     25  C   UNL     1       1.700   1.903  -0.079  0.00  0.00    +0.006 A 
ATOM     26  C   UNL     1       0.541   2.637   0.096  0.00  0.00    +0.029 A 
ATOM     27  C   UNL     1      -0.696   2.026  -0.016  0.00  0.00    +0.109 A 
ATOM     28  C   UNL     1      -0.779   0.679  -0.303  0.00  0.00    +0.042 A 
ATOM     29  C   UNL     1       0.387  -0.067  -0.480  0.00  0.00    +0.041 A 
BRANCH  29  30
ATOM     30  C   UNL     1       0.305  -1.511  -0.787  0.00  0.00    +0.242 C 
ATOM     31  O   UNL     1       1.317  -2.138  -1.037  0.00  0.00    -0.270 OA
ATOM     32  N   UNL     1      -0.890  -2.133  -0.790  0.00  0.00    -0.325 N 
ATOM     33  H   UNL     1      -0.951  -3.207  -1.019  0.00  0.00    +0.145 HD
ATOM     34  H   UNL     1      -1.806  -1.566  -0.564  0.00  0.00    +0.145 HD
ENDBRANCH  29  30
ENDBRANCH  20  27
ENDBRANCH   1  20
TORSDOF 5
