REMARK  Name = ZINC58162697
REMARK  8 active torsions:
REMARK  status: ('A' for Active; 'I' for Inactive)
REMARK    1  A    between atoms: C_1  and  C_2
REMARK    2  A    between atoms: C_2  and  C_4
REMARK    3  A    between atoms: C_2  and  N_18
REMARK    4  A    between atoms: C_9  and  N_10
REMARK    5  A    between atoms: N_13  and  C_16
REMARK    6  A    between atoms: C_19  and  C_21
REMARK    7  A    between atoms: C_24  and  O_28
REMARK    8  A    between atoms: O_28  and  C_29
REMARK                            x       y       z     vdW  Elec       q    Type
REMARK                         _______ _______ _______ _____ _____    ______ ____
ROOT
ATOM      1  C   UNL     1      -0.019   1.526   0.010  0.00  0.00    +0.033 C 
ATOM      2  C   UNL     1       0.002  -0.004   0.002  0.00  0.00    +0.102 C 
ENDROOT
BRANCH   2   3
ATOM      3  C   UNL     1       0.731  -0.503   1.223  0.00  0.00    -0.004 A 
ATOM      4  C   UNL     1       2.076  -0.808   1.148  0.00  0.00    +0.045 A 
ATOM      5  C   UNL     1       2.747  -1.266   2.270  0.00  0.00    +0.124 A 
ATOM      6  C   UNL     1       2.070  -1.421   3.468  0.00  0.00    +0.040 A 
ATOM      7  C   UNL     1       0.725  -1.118   3.547  0.00  0.00    +0.026 A 
ATOM      8  C   UNL     1       0.052  -0.652   2.425  0.00  0.00    +0.035 A 
ATOM      9  F   UNL     1       4.062  -1.563   2.195  0.00  0.00    -0.205 F 
BRANCH   8  10
ATOM     10  N   UNL     1      -1.308  -0.339   2.504  0.00  0.00    -0.333 N 
ATOM     11  C   UNL     1      -2.336  -1.358   2.242  0.00  0.00    +0.086 C 
ATOM     12  C   UNL     1      -3.338  -1.347   3.400  0.00  0.00    -0.060 C 
ATOM     13  N   UNL     1      -3.865   0.012   3.578  0.00  0.00    +0.380 N 
ATOM     14  C   UNL     1      -2.783   0.918   3.983  0.00  0.00    -0.060 C 
ATOM     15  C   UNL     1      -1.753   1.018   2.859  0.00  0.00    +0.086 C 
ATOM     16  C   UNL     1      -4.905   0.001   4.614  0.00  0.00    -0.096 C 
ATOM     17  H   UNL     1      -4.263   0.333   2.708  0.00  0.00    -0.082 HD
ENDBRANCH   8  10
ENDBRANCH   2   3
BRANCH   2  18
ATOM     18  N   UNL     1       0.688  -0.476  -1.203  0.00  0.00    -0.305 N 
ATOM     19  C   UNL     1       0.006  -0.608  -2.358  0.00  0.00    +0.245 C 
ATOM     20  O   UNL     1      -1.178  -0.335  -2.400  0.00  0.00    -0.270 OA
ATOM     21  H   UNL     1       1.632  -0.695  -1.170  0.00  0.00    +0.150 HD
BRANCH  19  22
ATOM     22  C   UNL     1       0.697  -1.084  -3.573  0.00  0.00    +0.038 A 
ATOM     23  C   UNL     1       2.057  -1.404  -3.526  0.00  0.00    +0.017 A 
ATOM     24  C   UNL     1       2.698  -1.849  -4.660  0.00  0.00    +0.047 A 
ATOM     25  C   UNL     1       1.995  -1.978  -5.852  0.00  0.00    +0.134 A 
ATOM     26  C   UNL     1       0.642  -1.661  -5.904  0.00  0.00    +0.060 A 
ATOM     27  C   UNL     1      -0.008  -1.221  -4.771  0.00  0.00    +0.032 A 
ATOM     28 BR   UNL     1      -0.308  -1.838  -7.530  0.00  0.00    -0.046 Br
BRANCH  25  29
ATOM     29  O   UNL     1       2.631  -2.416  -6.969  0.00  0.00    -0.494 OA
ATOM     30  C   UNL     1       4.021  -2.725  -6.845  0.00  0.00    +0.277 C 
ENDBRANCH  25  29
ENDBRANCH  19  22
ENDBRANCH   2  18
TORSDOF 5
