REMARK  Name = ZINC25148225
REMARK  8 active torsions:
REMARK  status: ('A' for Active; 'I' for Inactive)
REMARK    1  A    between atoms: C_1  and  C_2
REMARK    2  A    between atoms: C_2  and  C_3
REMARK    3  A    between atoms: C_3  and  C_5
REMARK    4  A    between atoms: C_3  and  C_6
REMARK    5  A    between atoms: N_8  and  C_9
REMARK    6  A    between atoms: C_12  and  N_15
REMARK    7  A    between atoms: N_15  and  S_16
REMARK    8  A    between atoms: S_16  and  C_19
REMARK                            x       y       z     vdW  Elec       q    Type
REMARK                         _______ _______ _______ _____ _____    ______ ____
ROOT
ATOM      1  N   UNL     1       0.051   0.100   0.060  0.00  0.00    -0.216 N 
ATOM      2  H   UNL     1       0.419  -0.164  -0.942  0.00  0.00    +0.174 HD
ENDROOT
BRANCH   1   6
ATOM      3  C   UNL     1       1.974  -1.387   3.446  0.00  0.00    +0.034 A 
ATOM      4  C   UNL     1       0.749  -1.912   3.057  0.00  0.00    +0.025 A 
ATOM      5  C   UNL     1       0.112  -1.420   1.935  0.00  0.00    +0.026 A 
ATOM      6  C   UNL     1       0.696  -0.399   1.197  0.00  0.00    +0.048 A 
ATOM      7  C   UNL     1       1.925   0.122   1.583  0.00  0.00    +0.026 A 
ATOM      8  C   UNL     1       2.559  -0.367   2.707  0.00  0.00    +0.025 A 
BRANCH   3  11
ATOM      9  C   UNL     1       2.503  -3.190   4.909  0.00  0.00    +0.220 C 
ATOM     10  O   UNL     1       1.918  -3.949   4.166  0.00  0.00    -0.275 OA
ATOM     11  N   UNL     1       2.621  -1.887   4.584  0.00  0.00    -0.285 N 
ATOM     12  H   UNL     1       3.225  -1.216   5.213  0.00  0.00    +0.155 HD
BRANCH   9  13
ATOM     13  C   UNL     1       3.100  -3.704   6.194  0.00  0.00    +0.072 C 
ATOM     14  C   UNL     1       4.610  -3.459   6.189  0.00  0.00    +0.017 C 
BRANCH  13  16
ATOM     15  C   UNL     1       3.322  -5.700   7.679  0.00  0.00    +0.004 C 
ATOM     16  C   UNL     1       2.827  -5.204   6.319  0.00  0.00    +0.009 C 
ENDBRANCH  13  16
ENDBRANCH   9  13
ENDBRANCH   3  11
ENDBRANCH   1   6
BRANCH   1  17
ATOM     17  S   UNL     1      -1.268   1.088   0.224  0.00  0.00    +0.072 S 
ATOM     18  O   UNL     1      -1.679   1.437  -1.091  0.00  0.00    -0.150 OA
ATOM     19  O   UNL     1      -2.138   0.454   1.152  0.00  0.00    -0.150 OA
BRANCH  17  20
ATOM     20  C   UNL     1      -0.713   2.575   0.989  0.00  0.00    +0.112 A 
ATOM     21  C   UNL     1      -0.634   2.653   2.368  0.00  0.00    +0.032 A 
ATOM     22  C   UNL     1      -0.195   3.815   2.975  0.00  0.00    +0.051 A 
ATOM     23  C   UNL     1       0.157   4.906   2.198  0.00  0.00    +0.162 A 
ATOM     24  C   UNL     1       0.073   4.829   0.815  0.00  0.00    +0.164 A 
ATOM     25  C   UNL     1      -0.362   3.663   0.209  0.00  0.00    +0.078 A 
ATOM     26  O   UNL     1       0.423   5.909   0.058  0.00  0.00    -0.488 OA
ATOM     27  C   UNL     1      -0.440   7.045   0.152  0.00  0.00    +0.232 C 
ATOM     28  C   UNL     1      -0.069   7.905   1.350  0.00  0.00    +0.082 C 
ATOM     29  C   UNL     1      -0.287   7.183   2.671  0.00  0.00    +0.232 C 
ATOM     30  O   UNL     1       0.588   6.060   2.785  0.00  0.00    -0.488 OA
ENDBRANCH  17  20
ENDBRANCH   1  17
TORSDOF 6
