REMARK  Name = ZINC31404240
REMARK  4 active torsions:
REMARK  status: ('A' for Active; 'I' for Inactive)
REMARK    1  A    between atoms: C_1  and  C_2
REMARK    2  A    between atoms: C_16  and  C_17
REMARK    3  A    between atoms: N_22  and  C_25
REMARK    4  A    between atoms: C_30  and  C_31
REMARK                            x       y       z     vdW  Elec       q    Type
REMARK                         _______ _______ _______ _____ _____    ______ ____
ROOT
ATOM      1  C   UNL     1      -1.131  -0.935   0.008  0.00  0.00    +0.254 C 
ATOM      2  O   UNL     1      -2.266  -0.511   0.125  0.00  0.00    -0.269 OA
ATOM      3  N   UNL     1      -0.915  -2.260  -0.103  0.00  0.00    -0.294 N 
ATOM      4  C   UNL     1       0.452  -2.803  -0.127  0.00  0.00    +0.127 C 
ATOM      5  C   UNL     1       0.544  -3.924   0.920  0.00  0.00    +0.124 C 
ATOM      6  N   UNL     1      -0.519  -4.908   0.671  0.00  0.00    -0.326 N 
ATOM      7  C   UNL     1      -1.849  -4.307   0.835  0.00  0.00    +0.124 C 
ATOM      8  C   UNL     1      -2.039  -3.202  -0.209  0.00  0.00    +0.127 C 
ENDROOT
BRANCH   1  24
ATOM      9  C   UNL     1      -0.904   1.611   1.651  0.00  0.00    +0.046 C 
ATOM     10  C   UNL     1       0.168   1.150   0.697  0.00  0.00    -0.017 A 
ATOM     11  C   UNL     1       1.331   1.905   0.533  0.00  0.00    +0.076 A 
ATOM     12  C   UNL     1       2.272   1.394  -0.390  0.00  0.00    +0.116 A 
ATOM     13  N   UNL     1       3.417   2.017  -0.641  0.00  0.00    -0.226 NA
ATOM     14  C   UNL     1       3.732   3.137  -0.054  0.00  0.00    +0.114 A 
ATOM     15  N   UNL     1       2.905   3.723   0.859  0.00  0.00    -0.296 N 
ATOM     16  C   UNL     1       1.726   3.171   1.192  0.00  0.00    +0.263 A 
ATOM     17  O   UNL     1       0.999   3.700   2.014  0.00  0.00    -0.267 OA
ATOM     18  C   UNL     1       3.337   4.985   1.476  0.00  0.00    +0.126 C 
ATOM     19  C   UNL     1       3.201   6.114   0.456  0.00  0.00    +0.022 C 
ATOM     20  C   UNL     1       4.473   6.273  -0.358  0.00  0.00    +0.002 C 
ATOM     21  C   UNL     1       4.753   5.060  -1.228  0.00  0.00    +0.008 C 
ATOM     22  C   UNL     1       5.038   3.825  -0.376  0.00  0.00    +0.074 C 
ATOM     23  S   UNL     1       1.503  -0.096  -0.973  0.00  0.00    -0.064 S 
ATOM     24  C   UNL     1       0.001  -0.003  -0.013  0.00  0.00    +0.080 A 
ENDBRANCH   1  24
BRANCH   6  25
ATOM     25  C   UNL     1      -0.370  -6.020   1.492  0.00  0.00    +0.050 A 
ATOM     26  C   UNL     1      -0.485  -5.892   2.869  0.00  0.00    +0.024 A 
ATOM     27  C   UNL     1      -0.336  -6.997   3.684  0.00  0.00    +0.005 A 
ATOM     28  C   UNL     1      -0.072  -8.241   3.137  0.00  0.00    +0.040 A 
ATOM     29  C   UNL     1       0.046  -8.391   1.769  0.00  0.00    +0.142 A 
ATOM     30  C   UNL     1      -0.108  -7.280   0.931  0.00  0.00    +0.108 A 
ATOM     31  F   UNL     1       0.303  -9.607   1.241  0.00  0.00    -0.204 F 
BRANCH  30  32
ATOM     32  C   UNL     1       0.007  -7.427  -0.489  0.00  0.00    +0.104 C 
ATOM     33  N   UNL     1       0.098  -7.544  -1.615  0.00  0.00    -0.191 NA
ENDBRANCH  30  32
ENDBRANCH   6  25
TORSDOF 3
