REMARK  Name = ZINC24484613
REMARK  7 active torsions:
REMARK  status: ('A' for Active; 'I' for Inactive)
REMARK    1  A    between atoms: C_3  and  N_11
REMARK    2  A    between atoms: C_6  and  C_7
REMARK    3  A    between atoms: C_7  and  C_8
REMARK    4  A    between atoms: C_12  and  C_14
REMARK    5  A    between atoms: C_17  and  N_20
REMARK    6  A    between atoms: N_20  and  S_21
REMARK    7  A    between atoms: S_21  and  C_24
REMARK                            x       y       z     vdW  Elec       q    Type
REMARK                         _______ _______ _______ _____ _____    ______ ____
ROOT
ATOM      1  C   UNL     1       1.823  -2.028   3.235  0.00  0.00    +0.037 A 
ATOM      2  C   UNL     1       0.604  -2.498   2.737  0.00  0.00    +0.015 A 
ATOM      3  C   UNL     1       0.008  -1.866   1.670  0.00  0.00    +0.027 A 
ATOM      4  C   UNL     1       0.618  -0.758   1.087  0.00  0.00    +0.074 A 
ATOM      5  C   UNL     1       1.834  -0.290   1.577  0.00  0.00    +0.027 A 
ATOM      6  C   UNL     1       2.432  -0.916   2.647  0.00  0.00    +0.015 A 
ENDROOT
BRANCH   1   8
ATOM      7  N   UNL     1       3.639  -2.249   4.858  0.00  0.00    -0.282 N 
ATOM      8  C   UNL     1       2.464  -2.704   4.378  0.00  0.00    +0.248 C 
ATOM      9  O   UNL     1       1.933  -3.672   4.888  0.00  0.00    -0.270 OA
ATOM     10  H   UNL     1       4.157  -1.423   4.349  0.00  0.00    +0.155 HD
BRANCH   7  13
ATOM     11  C   UNL     1       4.610  -4.758   7.363  0.00  0.00    +0.006 A 
ATOM     12  C   UNL     1       4.056  -4.190   6.233  0.00  0.00    +0.023 A 
ATOM     13  C   UNL     1       4.198  -2.828   6.001  0.00  0.00    +0.034 A 
ATOM     14  C   UNL     1       4.902  -2.043   6.905  0.00  0.00    +0.023 A 
ATOM     15  C   UNL     1       5.448  -2.616   8.037  0.00  0.00    +0.006 A 
ATOM     16  C   UNL     1       5.305  -3.973   8.264  0.00  0.00    -0.039 A 
BRANCH  16  17
ATOM     17  C   UNL     1       5.908  -4.596   9.497  0.00  0.00    +0.130 C 
BRANCH  17  18
ATOM     18  C   UNL     1       7.313  -5.050   9.194  0.00  0.00    +0.215 C 
ATOM     19  O   UNL     1       7.778  -4.884   8.087  0.00  0.00    -0.276 OA
ATOM     20  N   UNL     1       8.051  -5.641  10.154  0.00  0.00    -0.329 N 
ATOM     21  H   UNL     1       9.077  -5.973   9.933  0.00  0.00    +0.145 HD
ATOM     22  H   UNL     1       7.629  -5.792  11.159  0.00  0.00    +0.145 HD
ENDBRANCH  17  18
ENDBRANCH  16  17
ENDBRANCH   7  13
ENDBRANCH   1   8
BRANCH   4  23
ATOM     23  N   UNL     1       0.013  -0.120   0.009  0.00  0.00    -0.098 NA
BRANCH  23  24
ATOM     24  S   UNL     1      -1.308   0.847   0.255  0.00  0.00    +0.092 S 
ATOM     25  O   UNL     1      -1.647   1.400  -1.010  0.00  0.00    -0.148 OA
ATOM     26  O   UNL     1      -2.230   0.088   1.026  0.00  0.00    -0.148 OA
BRANCH  24  27
ATOM     27  C   UNL     1      -0.789   2.191   1.269  0.00  0.00    +0.113 A 
ATOM     28  C   UNL     1      -0.777   2.054   2.645  0.00  0.00    +0.032 A 
ATOM     29  C   UNL     1      -0.365   3.105   3.442  0.00  0.00    +0.043 A 
ATOM     30  C   UNL     1       0.026   4.300   2.864  0.00  0.00    +0.159 A 
ATOM     31  C   UNL     1       0.009   4.439   1.485  0.00  0.00    +0.160 A 
ATOM     32  C   UNL     1      -0.399   3.383   0.689  0.00  0.00    +0.070 A 
ATOM     33  F   UNL     1       0.391   5.605   0.918  0.00  0.00    -0.202 F 
ATOM     34  F   UNL     1       0.424   5.329   3.643  0.00  0.00    -0.202 F 
ENDBRANCH  24  27
ENDBRANCH  23  24
ENDBRANCH   4  23
TORSDOF 7
