REMARK  Name = ZINC44881410
REMARK  8 active torsions:
REMARK  status: ('A' for Active; 'I' for Inactive)
REMARK    1  A    between atoms: C_1  and  C_2
REMARK    2  A    between atoms: C_2  and  C_3
REMARK    3  A    between atoms: C_2  and  C_4
REMARK    4  A    between atoms: C_4  and  C_6
REMARK    5  A    between atoms: C_4  and  S_9
REMARK    6  A    between atoms: S_9  and  C_10
REMARK    7  A    between atoms: N_18  and  C_19
REMARK    8  A    between atoms: C_19  and  C_20
REMARK                            x       y       z     vdW  Elec       q    Type
REMARK                         _______ _______ _______ _____ _____    ______ ____
ROOT
ATOM      1  C   UNL     1       0.528  -1.261   3.972  0.00  0.00    +0.172 A 
ATOM      2  N   UNL     1       1.620  -1.961   3.783  0.00  0.00    -0.217 NA
ATOM      3  C   UNL     1       1.992  -2.540   4.952  0.00  0.00    +0.148 A 
ATOM      4  C   UNL     1       3.050  -3.377   5.343  0.00  0.00    +0.147 A 
ATOM      5  N   UNL     1       3.111  -3.769   6.612  0.00  0.00    -0.219 NA
ATOM      6  C   UNL     1       2.203  -3.386   7.490  0.00  0.00    +0.225 A 
ATOM      7  N   UNL     1       1.195  -2.603   7.168  0.00  0.00    -0.216 NA
ATOM      8  C   UNL     1       1.052  -2.160   5.924  0.00  0.00    +0.166 A 
ATOM      9  N   UNL     1       0.143  -1.351   5.282  0.00  0.00    -0.299 N 
ATOM     10  N   UNL     1       4.007  -3.785   4.428  0.00  0.00    -0.341 N 
ATOM     11  H   UNL     1       3.951  -3.492   3.505  0.00  0.00    +0.144 HD
ATOM     12  H   UNL     1       4.733  -4.363   4.710  0.00  0.00    +0.144 HD
ENDROOT
BRANCH   1  13
ATOM     13  S   UNL     1      -0.313  -0.338   2.728  0.00  0.00    -0.072 S 
BRANCH  13  14
ATOM     14  C   UNL     1       0.675  -0.617   1.232  0.00  0.00    +0.170 C 
BRANCH  14  16
ATOM     15  C   UNL     1       0.832  -0.167  -1.220  0.00  0.00    +0.009 C 
ATOM     16  C   UNL     1      -0.019   0.035   0.035  0.00  0.00    +0.007 C 
ATOM     17  C   UNL     1      -1.392  -0.609  -0.172  0.00  0.00    +0.009 C 
ENDBRANCH  14  16
BRANCH  14  18
ATOM     18  C   UNL     1       2.042  -0.009   1.412  0.00  0.00    +0.369 C 
ATOM     19  O   UNL     1       2.165   1.202   1.490  0.00  0.00    -0.245 OA
ATOM     20  O   UNL     1       3.024  -0.728   1.480  0.00  0.00    -0.245 OA
ENDBRANCH  14  18
ENDBRANCH  13  14
ENDBRANCH   1  13
BRANCH   9  21
ATOM     21  C   UNL     1      -1.024  -0.706   5.889  0.00  0.00    +0.162 C 
BRANCH  21  22
ATOM     22  C   UNL     1      -2.214  -1.625   5.787  0.00  0.00    -0.009 A 
ATOM     23  C   UNL     1      -3.098  -1.497   4.732  0.00  0.00    +0.007 A 
ATOM     24  C   UNL     1      -4.190  -2.339   4.639  0.00  0.00    +0.000 A 
ATOM     25  C   UNL     1      -4.399  -3.310   5.601  0.00  0.00    +0.001 A 
ATOM     26  C   UNL     1      -3.516  -3.439   6.656  0.00  0.00    +0.020 A 
ATOM     27  C   UNL     1      -2.420  -2.599   6.747  0.00  0.00    +0.046 A 
ATOM     28 CL   UNL     1      -1.307  -2.765   8.069  0.00  0.00    -0.083 Cl
ENDBRANCH  21  22
ENDBRANCH   9  21
TORSDOF 6
