REMARK  Name = ZINC01454576
REMARK  7 active torsions:
REMARK  status: ('A' for Active; 'I' for Inactive)
REMARK    1  A    between atoms: C_1  and  C_2
REMARK    2  A    between atoms: C_2  and  C_34
REMARK    3  A    between atoms: C_7  and  C_33
REMARK    4  A    between atoms: C_10  and  C_11
REMARK    5  A    between atoms: C_10  and  N_65
REMARK    6  A    between atoms: C_12  and  O_32
REMARK    7  A    between atoms: C_19  and  C_22
REMARK                            x       y       z     vdW  Elec       q    Type
REMARK                         _______ _______ _______ _____ _____    ______ ____
ROOT
ATOM      1  C   UNL     1      -7.211  -3.042  -0.151  0.00  0.00    +0.020 A 
ATOM      2  C   UNL     1      -8.254  -2.816   0.731  0.00  0.00    +0.122 A 
ATOM      3  C   UNL     1      -8.157  -1.825   1.705  0.00  0.00    +0.046 A 
ATOM      4  C   UNL     1      -7.028  -1.062   1.802  0.00  0.00    +0.019 A 
ATOM      5  C   UNL     1      -5.969  -1.278   0.921  0.00  0.00    +0.065 A 
ATOM      6  C   UNL     1      -6.057  -2.275  -0.067  0.00  0.00    +0.143 A 
ATOM      7  O   UNL     1      -5.032  -2.482  -0.917  0.00  0.00    -0.462 OA
ATOM      8  C   UNL     1      -3.898  -1.778  -0.884  0.00  0.00    +0.208 A 
ATOM      9  C   UNL     1      -3.680  -0.785   0.017  0.00  0.00    +0.064 A 
ATOM     10  C   UNL     1      -4.733  -0.478   0.999  0.00  0.00    +0.200 A 
ATOM     11  O   UNL     1      -4.592   0.399   1.834  0.00  0.00    -0.286 OA
ENDROOT
BRANCH   9  12
ATOM     12  C   UNL     1      -2.403  -0.030   0.015  0.00  0.00    -0.008 A 
ATOM     13  C   UNL     1      -2.416   1.364   0.025  0.00  0.00    +0.012 A 
ATOM     14  C   UNL     1      -1.228   2.065   0.019  0.00  0.00    +0.050 A 
ATOM     15  C   UNL     1      -0.017   1.387   0.010  0.00  0.00    +0.162 A 
ATOM     16  C   UNL     1       0.002  -0.004   0.002  0.00  0.00    +0.163 A 
ATOM     17  C   UNL     1      -1.189  -0.712   0.004  0.00  0.00    +0.058 A 
ATOM     18  O   UNL     1       1.181  -0.685  -0.006  0.00  0.00    -0.485 OA
ATOM     19  C   UNL     1       2.347   0.053  -0.386  0.00  0.00    +0.270 C 
ATOM     20  C   UNL     1       2.335   1.391   0.365  0.00  0.00    +0.270 C 
ATOM     21  O   UNL     1       1.144   2.098   0.002  0.00  0.00    -0.485 OA
ENDBRANCH   9  12
BRANCH   2  22
ATOM     22  O   UNL     1      -9.382  -3.567   0.646  0.00  0.00    -0.506 OA
ATOM     23  H   UNL     1      -9.360  -4.371   1.183  0.00  0.00    +0.292 HD
ENDBRANCH   2  22
BRANCH   1  24
ATOM     24  C   UNL     1      -7.329  -4.117  -1.201  0.00  0.00    -0.035 C 
BRANCH  24  35
ATOM     25  C   UNL     1      -4.918  -4.781  -3.694  0.00  0.00    +0.011 C 
ATOM     26  C   UNL     1      -5.223  -6.226  -3.249  0.00  0.00    -0.036 C 
ATOM     27  C   UNL     1      -6.699  -6.348  -2.947  0.00  0.00    -0.009 C 
ATOM     28  C   UNL     1      -7.089  -6.561  -1.496  0.00  0.00    -0.067 C 
ATOM     29  C   UNL     1      -6.117  -7.617  -0.895  0.00  0.00    -0.011 C 
ATOM     30  C   UNL     1      -4.839  -6.741  -0.769  0.00  0.00    -0.048 C 
ATOM     31  C   UNL     1      -4.239  -6.622  -2.168  0.00  0.00    +0.011 C 
ATOM     32  C   UNL     1      -5.390  -5.355  -0.356  0.00  0.00    -0.071 C 
ATOM     33  C   UNL     1      -3.846  -7.302   0.259  0.00  0.00    +0.009 C 
ATOM     34  C   UNL     1      -4.932  -7.121  -4.481  0.00  0.00    +0.011 C 
ATOM     35  N   UNL     1      -6.829  -5.404  -0.610  0.00  0.00    +0.385 N 
ATOM     36  H   UNL     1      -7.318  -5.555   0.281  0.00  0.00    -0.081 HD
ENDBRANCH  24  35
ENDBRANCH   1  24
TORSDOF 4
