REMARK  Name = ZINC39159034
REMARK  6 active torsions:
REMARK  status: ('A' for Active; 'I' for Inactive)
REMARK    1  A    between atoms: C_1  and  C_2
REMARK    2  A    between atoms: C_5  and  N_8
REMARK    3  A    between atoms: C_21  and  C_25
REMARK    4  A    between atoms: C_25  and  C_26
REMARK    5  A    between atoms: C_25  and  C_27
REMARK    6  A    between atoms: C_25  and  C_28
REMARK                            x       y       z     vdW  Elec       q    Type
REMARK                         _______ _______ _______ _____ _____    ______ ____
ROOT
ATOM      1  N   UNL     1       0.063  -4.169  -0.020  0.00  0.00    -0.274 N 
ATOM      2  C   UNL     1       0.175  -4.880   1.184  0.00  0.00    +0.126 A 
ATOM      3  N   UNL     1      -0.280  -4.444   2.328  0.00  0.00    -0.384 N 
ATOM      4  C   UNL     1       0.866  -6.176   1.015  0.00  0.00    +0.107 A 
ATOM      5  C   UNL     1       1.482  -7.047   1.857  0.00  0.00    +0.193 A 
ATOM      6  N   UNL     1       1.948  -8.095   1.083  0.00  0.00    -0.176 N 
ATOM      7  N   UNL     1       1.615  -7.874  -0.252  0.00  0.00    -0.142 NA
ATOM      8  C   UNL     1       0.967  -6.747  -0.352  0.00  0.00    +0.190 A 
ATOM      9  N   UNL     1       0.414  -6.075  -1.401  0.00  0.00    -0.201 NA
ATOM     10  C   UNL     1      -0.038  -4.851  -1.207  0.00  0.00    +0.188 A 
ATOM     11  S   UNL     1      -0.817  -4.034  -2.560  0.00  0.00    -0.011 SA
ATOM     12  C   UNL     1       2.614  -9.126   1.643  0.00  0.00    +0.276 C 
ATOM     13  O   UNL     1       3.020 -10.041   0.966  0.00  0.00    -0.268 OA
ATOM     14  C   UNL     1       2.839  -9.109   3.132  0.00  0.00    +0.223 C 
ATOM     15  N   UNL     1       2.277  -7.930   3.767  0.00  0.00    -0.172 NA
ATOM     16  N   UNL     1       1.676  -7.016   3.202  0.00  0.00    -0.133 NA
ATOM     17  H   UNL     1      -0.790  -3.620   2.365  0.00  0.00    +0.157 HD
ATOM     18  H   UNL     1      -0.107  -4.944   3.141  0.00  0.00    +0.157 HD
ENDROOT
BRANCH   1  23
ATOM     19  C   UNL     1       0.001   1.504   0.018  0.00  0.00    +0.044 C 
ATOM     20  C   UNL     1       0.017  -0.002   0.008  0.00  0.00    -0.050 A 
ATOM     21  C   UNL     1      -1.163  -0.706   0.161  0.00  0.00    +0.005 A 
ATOM     22  C   UNL     1      -1.151  -2.087   0.152  0.00  0.00    +0.026 A 
ATOM     23  C   UNL     1       0.047  -2.769  -0.011  0.00  0.00    +0.050 A 
ATOM     24  C   UNL     1       1.231  -2.059  -0.164  0.00  0.00    +0.026 A 
ATOM     25  C   UNL     1       1.212  -0.678  -0.160  0.00  0.00    +0.005 A 
ENDBRANCH   1  23
BRANCH  14  26
ATOM     26  C   UNL     1       4.343  -9.146   3.406  0.00  0.00    -0.005 C 
ATOM     27  C   UNL     1       5.008  -7.925   2.769  0.00  0.00    +0.013 C 
ATOM     28  C   UNL     1       4.588  -9.130   4.917  0.00  0.00    +0.013 C 
ATOM     29  C   UNL     1       4.939 -10.422   2.807  0.00  0.00    +0.013 C 
ENDBRANCH  14  26
TORSDOF 2
