REMARK  Name = ZINC20477484
REMARK  5 active torsions:
REMARK  status: ('A' for Active; 'I' for Inactive)
REMARK    1  A    between atoms: C_1  and  C_2
REMARK    2  A    between atoms: C_2  and  C_4
REMARK    3  A    between atoms: C_2  and  N_15
REMARK    4  A    between atoms: C_8  and  N_10
REMARK    5  A    between atoms: N_15  and  C_16
REMARK                            x       y       z     vdW  Elec       q    Type
REMARK                         _______ _______ _______ _____ _____    ______ ____
ROOT
ATOM      1  C   UNL     1      -0.013   1.086   0.008  0.00  0.00    +0.033 C 
ATOM      2  C   UNL     1      -0.729   1.579   1.267  0.00  0.00    +0.098 C 
ENDROOT
BRANCH   2   3
ATOM      3  C   UNL     1      -2.143   1.058   1.278  0.00  0.00    -0.026 A 
ATOM      4  C   UNL     1      -2.397  -0.240   1.683  0.00  0.00    +0.005 A 
ATOM      5  C   UNL     1      -3.693  -0.722   1.694  0.00  0.00    +0.002 A 
ATOM      6  C   UNL     1      -4.737   0.092   1.300  0.00  0.00    +0.028 A 
ATOM      7  C   UNL     1      -4.485   1.394   0.892  0.00  0.00    +0.069 A 
ATOM      8  C   UNL     1      -3.183   1.877   0.888  0.00  0.00    +0.033 A 
BRANCH   7   9
ATOM      9  N   UNL     1      -5.543   2.223   0.491  0.00  0.00    -0.200 N 
ATOM     10  C   UNL     1      -6.864   1.943   0.531  0.00  0.00    +0.250 A 
ATOM     11  N   UNL     1      -7.497   2.988   0.065  0.00  0.00    -0.116 NA
ATOM     12  N   UNL     1      -6.666   3.910  -0.266  0.00  0.00    -0.023 NA
ATOM     13  N   UNL     1      -5.457   3.525  -0.032  0.00  0.00    -0.039 NA
ENDBRANCH   7   9
ENDBRANCH   2   3
BRANCH   2  14
ATOM     14  N   UNL     1      -0.020   1.094   2.454  0.00  0.00    -0.337 N 
ATOM     15  H   UNL     1      -0.347   0.168   2.949  0.00  0.00    +0.147 HD
BRANCH  14  16
ATOM     16  C   UNL     1       1.070   1.808   2.957  0.00  0.00    +0.028 A 
ATOM     17  C   UNL     1       1.488   2.974   2.329  0.00  0.00    +0.024 A 
ATOM     18  C   UNL     1       2.562   3.681   2.833  0.00  0.00    +0.016 A 
ATOM     19  C   UNL     1       3.230   3.221   3.953  0.00  0.00    +0.013 A 
ATOM     20  C   UNL     1       2.821   2.056   4.577  0.00  0.00    +0.016 A 
ATOM     21  C   UNL     1       1.743   1.349   4.082  0.00  0.00    +0.024 A 
ATOM     22  I   UNL     1       4.865   4.292   4.708  0.00  0.00    -0.044 I 
ENDBRANCH  14  16
ENDBRANCH   2  14
TORSDOF 4
