REMARK  Name = ZINC39845351
REMARK  9 active torsions:
REMARK  status: ('A' for Active; 'I' for Inactive)
REMARK    1  A    between atoms: C_1  and  C_2
REMARK    2  A    between atoms: C_2  and  O_3
REMARK    3  A    between atoms: O_3  and  C_4
REMARK    4  A    between atoms: C_7  and  C_10
REMARK    5  A    between atoms: C_12  and  S_25
REMARK    6  A    between atoms: C_13  and  N_15
REMARK    7  A    between atoms: C_17  and  C_24
REMARK    8  A    between atoms: C_20  and  C_23
REMARK    9  A    between atoms: S_25  and  C_28
REMARK                            x       y       z     vdW  Elec       q    Type
REMARK                         _______ _______ _______ _____ _____    ______ ____
ROOT
ATOM      1  C   UNL     1      -1.889  -6.057   0.001  0.00  0.00    +0.231 A 
ATOM      2  N   UNL     1      -0.965  -6.983   0.106  0.00  0.00    -0.188 NA
ATOM      3  C   UNL     1      -1.557  -8.187   0.088  0.00  0.00    +0.243 A 
ATOM      4  C   UNL     1      -2.892  -7.989  -0.031  0.00  0.00    +0.236 A 
ATOM      5  O   UNL     1      -3.093  -6.656  -0.080  0.00  0.00    -0.420 OA
ENDROOT
BRANCH   4   6
ATOM      6  N   UNL     1      -3.872  -8.975  -0.088  0.00  0.00    -0.298 N 
ATOM      7  C   UNL     1      -4.514  -9.463   1.140  0.00  0.00    +0.111 C 
ATOM      8  C   UNL     1      -6.033  -9.344   0.983  0.00  0.00    +0.004 C 
ATOM      9  C   UNL     1      -6.469 -10.075  -0.288  0.00  0.00    +0.009 C 
ATOM     10  C   UNL     1      -5.805  -9.427  -1.506  0.00  0.00    +0.004 C 
ATOM     11  C   UNL     1      -4.288  -9.543  -1.377  0.00  0.00    +0.111 C 
ATOM     12  C   UNL     1      -6.197  -7.950  -1.575  0.00  0.00    +0.009 C 
ATOM     13  C   UNL     1      -6.723  -9.971   2.196  0.00  0.00    +0.009 C 
ENDBRANCH   4   6
BRANCH   1  17
ATOM     14  C   UNL     1      -1.200  -1.866  -0.056  0.00  0.00    +0.121 A 
ATOM     15  C   UNL     1      -0.128  -2.743   0.054  0.00  0.00    +0.046 A 
ATOM     16  C   UNL     1      -0.347  -4.103   0.073  0.00  0.00    +0.017 A 
ATOM     17  C   UNL     1      -1.649  -4.600  -0.018  0.00  0.00    +0.037 A 
ATOM     18  C   UNL     1      -2.724  -3.715  -0.129  0.00  0.00    +0.017 A 
ATOM     19  C   UNL     1      -2.496  -2.356  -0.142  0.00  0.00    +0.046 A 
BRANCH  14  20
ATOM     20  O   UNL     1      -0.979  -0.526  -0.075  0.00  0.00    -0.492 OA
BRANCH  20  22
ATOM     21  C   UNL     1       0.428   1.439  -0.020  0.00  0.00    +0.048 C 
ATOM     22  C   UNL     1       0.379  -0.090   0.017  0.00  0.00    +0.225 C 
ENDBRANCH  20  22
ENDBRANCH  14  20
ENDBRANCH   1  17
BRANCH   3  23
ATOM     23  S   UNL     1      -0.744  -9.746   0.201  0.00  0.00    +0.047 S 
ATOM     24  O   UNL     1      -1.659 -10.717  -0.289  0.00  0.00    -0.163 OA
ATOM     25  O   UNL     1       0.551  -9.570  -0.356  0.00  0.00    -0.163 OA
BRANCH  23  26
ATOM     26  C   UNL     1      -0.513 -10.091   1.913  0.00  0.00    +0.095 A 
ATOM     27  C   UNL     1       0.574  -9.562   2.584  0.00  0.00    +0.028 A 
ATOM     28  C   UNL     1       0.756  -9.831   3.928  0.00  0.00    +0.017 A 
ATOM     29  C   UNL     1      -0.150 -10.630   4.601  0.00  0.00    +0.018 A 
ATOM     30  C   UNL     1      -1.238 -11.159   3.930  0.00  0.00    +0.017 A 
ATOM     31  C   UNL     1      -1.422 -10.885   2.587  0.00  0.00    +0.028 A 
ATOM     32 BR   UNL     1       0.098 -11.000   6.439  0.00  0.00    -0.050 Br
ENDBRANCH  23  26
ENDBRANCH   3  23
TORSDOF 6
