REMARK  Name = ZINC59813717
REMARK  3 active torsions:
REMARK  status: ('A' for Active; 'I' for Inactive)
REMARK    1  A    between atoms: C_3  and  C_16
REMARK    2  A    between atoms: C_5  and  S_7
REMARK    3  A    between atoms: S_7  and  N_10
REMARK                            x       y       z     vdW  Elec       q    Type
REMARK                         _______ _______ _______ _____ _____    ______ ____
ROOT
ATOM      1  C   UNL     1       0.174   1.150   0.957  0.00  0.00    +0.003 A 
ATOM      2  C   UNL     1       1.360   1.853   0.892  0.00  0.00    +0.013 A 
ATOM      3  C   UNL     1       2.384   1.412   0.053  0.00  0.00    +0.039 A 
ATOM      4  C   UNL     1       2.202   0.260  -0.715  0.00  0.00    +0.041 A 
ATOM      5  C   UNL     1       1.012  -0.433  -0.640  0.00  0.00    +0.106 A 
ATOM      6  C   UNL     1       0.000   0.010   0.193  0.00  0.00    +0.028 A 
ENDROOT
BRANCH   3   7
ATOM      7  C   UNL     1       3.657   2.160  -0.022  0.00  0.00    +0.251 C 
ATOM      8  O   UNL     1       4.715   1.563   0.002  0.00  0.00    -0.270 OA
ATOM      9  N   UNL     1       3.643   3.504  -0.117  0.00  0.00    -0.267 N 
ATOM     10  C   UNL     1       2.373   4.242  -0.096  0.00  0.00    +0.114 C 
ATOM     11  C   UNL     1       2.427   5.301  -1.205  0.00  0.00    +0.024 C 
ATOM     12  C   UNL     1       3.548   6.290  -0.889  0.00  0.00    +0.038 C 
ATOM     13  C   UNL     1       4.834   5.558  -0.607  0.00  0.00    -0.025 A 
ATOM     14  C   UNL     1       4.841   4.223  -0.231  0.00  0.00    +0.040 A 
ATOM     15  C   UNL     1       6.044   3.578   0.032  0.00  0.00    +0.025 A 
ATOM     16  C   UNL     1       7.236   4.267  -0.077  0.00  0.00    +0.017 A 
ATOM     17  C   UNL     1       7.231   5.599  -0.450  0.00  0.00    +0.018 A 
ATOM     18  C   UNL     1       6.033   6.241  -0.722  0.00  0.00    +0.020 A 
ATOM     19 BR   UNL     1       8.862   6.543  -0.602  0.00  0.00    -0.050 Br
ENDBRANCH   3   7
BRANCH   5  20
ATOM     20  S   UNL     1       0.779  -1.887  -1.609  0.00  0.00    +0.061 S 
ATOM     21  O   UNL     1      -0.623  -2.047  -1.770  0.00  0.00    -0.153 OA
ATOM     22  O   UNL     1       1.667  -1.785  -2.714  0.00  0.00    -0.153 OA
BRANCH  20  23
ATOM     23  N   UNL     1       1.300  -3.169  -0.700  0.00  0.00    -0.172 NA
ATOM     24  C   UNL     1       2.700  -3.619  -0.757  0.00  0.00    +0.137 C 
ATOM     25  C   UNL     1       3.231  -3.732   0.677  0.00  0.00    +0.177 C 
ATOM     26  O   UNL     1       2.336  -4.537   1.448  0.00  0.00    -0.377 OA
ATOM     27  C   UNL     1       1.021  -3.992   1.577  0.00  0.00    +0.177 C 
ATOM     28  C   UNL     1       0.379  -3.889   0.194  0.00  0.00    +0.137 C 
ENDBRANCH  20  23
ENDBRANCH   5  20
TORSDOF 3
