REMARK  Name = ZINC58489867
REMARK  9 active torsions:
REMARK  status: ('A' for Active; 'I' for Inactive)
REMARK    1  A    between atoms: C_1  and  C_2
REMARK    2  A    between atoms: C_7  and  N_8
REMARK    3  A    between atoms: C_9  and  C_11
REMARK    4  A    between atoms: C_11  and  N_12
REMARK    5  A    between atoms: N_15  and  C_16
REMARK    6  A    between atoms: C_16  and  C_18
REMARK    7  A    between atoms: C_16  and  C_19
REMARK    8  A    between atoms: C_22  and  S_25
REMARK    9  A    between atoms: S_25  and  C_28
REMARK                            x       y       z     vdW  Elec       q    Type
REMARK                         _______ _______ _______ _____ _____    ______ ____
ROOT
ATOM      1  N   UNL     1      -0.240  -0.903   5.989  0.00  0.00    -0.291 N 
ATOM      2  C   UNL     1      -0.345  -0.460   7.257  0.00  0.00    +0.300 C 
ATOM      3  O   UNL     1      -0.377   0.734   7.484  0.00  0.00    -0.253 OA
ATOM      4  N   UNL     1      -0.412  -1.341   8.275  0.00  0.00    -0.293 N 
ATOM      5  H   UNL     1      -0.214  -1.856   5.809  0.00  0.00    +0.151 HD
ATOM      6  H   UNL     1      -0.386  -2.294   8.095  0.00  0.00    +0.151 HD
ENDROOT
BRANCH   4   7
ATOM      7  C   UNL     1      -0.526  -0.859   9.654  0.00  0.00    +0.102 C 
ATOM      8  C   UNL     1      -1.996  -0.591   9.982  0.00  0.00    +0.033 C 
BRANCH   7   9
ATOM      9  C   UNL     1       0.017  -1.903  10.597  0.00  0.00    -0.027 A 
ATOM     10  C   UNL     1      -0.237  -3.242  10.366  0.00  0.00    +0.007 A 
ATOM     11  C   UNL     1       0.260  -4.199  11.231  0.00  0.00    +0.027 A 
ATOM     12  C   UNL     1       1.012  -3.816  12.326  0.00  0.00    +0.088 A 
ATOM     13  C   UNL     1       1.267  -2.477  12.556  0.00  0.00    +0.027 A 
ATOM     14  C   UNL     1       0.773  -1.521  11.689  0.00  0.00    +0.007 A 
BRANCH  12  15
ATOM     15  S   UNL     1       1.646  -5.036  13.429  0.00  0.00    -0.006 S 
ATOM     16  O   UNL     1       1.793  -4.361  14.670  0.00  0.00    -0.170 OA
ATOM     17  O   UNL     1       0.754  -6.136  13.304  0.00  0.00    -0.170 OA
ATOM     18  C   UNL     1       3.273  -5.472  12.757  0.00  0.00    +0.200 C 
ENDBRANCH  12  15
ENDBRANCH   7   9
ENDBRANCH   4   7
BRANCH   1  19
ATOM     19  C   UNL     1      -0.167   0.054   4.882  0.00  0.00    +0.202 C 
BRANCH  19  21
ATOM     20  N   UNL     1       0.026  -0.014   2.417  0.00  0.00    -0.284 N 
ATOM     21  C   UNL     1      -0.056  -0.694   3.578  0.00  0.00    +0.234 C 
ATOM     22  O   UNL     1      -0.040  -1.906   3.574  0.00  0.00    -0.274 OA
ATOM     23  H   UNL     1       0.079   0.955   2.425  0.00  0.00    +0.155 HD
BRANCH  20  30
ATOM     24  C   UNL     1      -1.265   1.183   0.182  0.00  0.00    +0.046 C 
ATOM     25  C   UNL     1      -0.584  -0.158   0.085  0.00  0.00    -0.028 A 
ATOM     26  C   UNL     1      -0.570  -0.840  -1.116  0.00  0.00    +0.020 A 
ATOM     27  C   UNL     1       0.055  -2.071  -1.206  0.00  0.00    +0.018 A 
ATOM     28  C   UNL     1       0.666  -2.623  -0.094  0.00  0.00    +0.017 A 
ATOM     29  C   UNL     1       0.655  -1.945   1.109  0.00  0.00    +0.024 A 
ATOM     30  C   UNL     1       0.034  -0.706   1.201  0.00  0.00    +0.036 A 
ATOM     31 BR   UNL     1       0.072  -3.002  -2.852  0.00  0.00    -0.050 Br
ENDBRANCH  20  30
ENDBRANCH  19  21
ENDBRANCH   1  19
TORSDOF 6
