REMARK  Name = ZINC25573192
REMARK  10 active torsions:
REMARK  status: ('A' for Active; 'I' for Inactive)
REMARK    1  A    between atoms: C_1  and  C_2
REMARK    2  A    between atoms: C_5  and  S_23
REMARK    3  A    between atoms: C_7  and  C_8
REMARK    4  A    between atoms: N_10  and  C_11
REMARK    5  A    between atoms: C_14  and  O_21
REMARK    6  A    between atoms: C_15  and  N_17
REMARK    7  A    between atoms: C_18  and  C_20
REMARK    8  A    between atoms: O_21  and  C_22
REMARK    9  A    between atoms: S_23  and  N_26
REMARK   10  A    between atoms: N_26  and  C_27
REMARK                            x       y       z     vdW  Elec       q    Type
REMARK                         _______ _______ _______ _____ _____    ______ ____
ROOT
ATOM      1  C   UNL     1       2.084  -0.504   4.602  0.00  0.00    +0.044 C 
ATOM      2  C   UNL     1       1.505  -0.634   3.216  0.00  0.00    -0.038 A 
ATOM      3  C   UNL     1       2.246  -0.249   2.118  0.00  0.00    +0.006 A 
ATOM      4  C   UNL     1       1.718  -0.373   0.846  0.00  0.00    +0.029 A 
ATOM      5  C   UNL     1       0.441  -0.874   0.665  0.00  0.00    +0.109 A 
ATOM      6  C   UNL     1      -0.311  -1.262   1.755  0.00  0.00    +0.042 A 
ATOM      7  C   UNL     1       0.218  -1.145   3.042  0.00  0.00    +0.042 A 
ENDROOT
BRANCH   7   8
ATOM      8  C   UNL     1      -0.582  -1.559   4.214  0.00  0.00    +0.249 C 
ATOM      9  O   UNL     1      -0.084  -1.552   5.323  0.00  0.00    -0.270 OA
ATOM     10  N   UNL     1      -1.864  -1.944   4.053  0.00  0.00    -0.281 N 
ATOM     11  H   UNL     1      -2.291  -2.026   3.042  0.00  0.00    +0.155 HD
BRANCH  10  12
ATOM     12  C   UNL     1      -2.652  -2.239   5.172  0.00  0.00    +0.036 A 
ATOM     13  C   UNL     1      -2.098  -2.912   6.253  0.00  0.00    +0.027 A 
ATOM     14  C   UNL     1      -2.872  -3.200   7.361  0.00  0.00    +0.049 A 
ATOM     15  C   UNL     1      -4.206  -2.828   7.392  0.00  0.00    +0.141 A 
ATOM     16  C   UNL     1      -4.767  -2.157   6.307  0.00  0.00    +0.077 A 
ATOM     17  C   UNL     1      -3.988  -1.864   5.198  0.00  0.00    +0.050 A 
BRANCH  16  18
ATOM     18  N   UNL     1      -6.116  -1.780   6.337  0.00  0.00    -0.283 N 
ATOM     19  C   UNL     1      -6.795  -1.617   5.184  0.00  0.00    +0.214 C 
ATOM     20  O   UNL     1      -6.269  -1.889   4.126  0.00  0.00    -0.276 OA
ATOM     21  C   UNL     1      -8.209  -1.096   5.210  0.00  0.00    +0.109 C 
ATOM     22  H   UNL     1      -6.620  -1.617   7.300  0.00  0.00    +0.155 HD
ENDBRANCH  16  18
BRANCH  15  23
ATOM     23  O   UNL     1      -4.968  -3.116   8.481  0.00  0.00    -0.493 OA
ATOM     24  C   UNL     1      -4.328  -3.805   9.557  0.00  0.00    +0.277 C 
ENDBRANCH  15  23
ENDBRANCH  10  12
ENDBRANCH   7   8
BRANCH   5  25
ATOM     25  S   UNL     1      -0.225  -1.022  -0.959  0.00  0.00    +0.072 S 
ATOM     26  O   UNL     1      -1.308  -1.937  -0.873  0.00  0.00    -0.150 OA
ATOM     27  O   UNL     1       0.877  -1.227  -1.832  0.00  0.00    -0.150 OA
BRANCH  25  28
ATOM     28  N   UNL     1      -0.877   0.447  -1.357  0.00  0.00    -0.216 N 
ATOM     29  H   UNL     1      -0.489   1.005  -2.222  0.00  0.00    +0.174 HD
BRANCH  28  30
ATOM     30  C   UNL     1      -1.921   0.979  -0.594  0.00  0.00    +0.048 A 
ATOM     31  C   UNL     1      -2.984   0.171  -0.212  0.00  0.00    +0.027 A 
ATOM     32  C   UNL     1      -4.012   0.697   0.546  0.00  0.00    +0.040 A 
ATOM     33  C   UNL     1      -3.988   2.031   0.916  0.00  0.00    +0.124 A 
ATOM     34  C   UNL     1      -2.931   2.839   0.532  0.00  0.00    +0.040 A 
ATOM     35  C   UNL     1      -1.899   2.317  -0.221  0.00  0.00    +0.027 A 
ATOM     36  F   UNL     1      -4.997   2.545   1.654  0.00  0.00    -0.205 F 
ENDBRANCH  28  30
ENDBRANCH  25  28
ENDBRANCH   5  25
TORSDOF 7
