REMARK  Name = ZINC50441402
REMARK  6 active torsions:
REMARK  status: ('A' for Active; 'I' for Inactive)
REMARK    1  A    between atoms: C_1  and  C_2
REMARK    2  A    between atoms: C_2  and  C_4
REMARK    3  A    between atoms: C_2  and  C_17
REMARK    4  A    between atoms: C_4  and  O_5
REMARK    5  A    between atoms: O_5  and  C_6
REMARK    6  A    between atoms: C_9  and  N_13
REMARK                            x       y       z     vdW  Elec       q    Type
REMARK                         _______ _______ _______ _____ _____    ______ ____
ROOT
ATOM      1  O   UNL     1      -0.036  -0.123  -2.412  0.00  0.00    -0.489 OA
ENDROOT
BRANCH   1   2
ATOM      2  C   UNL     1       0.466  -0.488  -3.621  0.00  0.00    +0.148 A 
ATOM      3  C   UNL     1       1.333   0.358  -4.298  0.00  0.00    +0.063 A 
ATOM      4  C   UNL     1       1.842  -0.016  -5.527  0.00  0.00    +0.051 A 
ATOM      5  C   UNL     1       1.487  -1.231  -6.083  0.00  0.00    +0.129 A 
ATOM      6  C   UNL     1       0.623  -2.076  -5.412  0.00  0.00    +0.051 A 
ATOM      7  C   UNL     1       0.116  -1.710  -4.179  0.00  0.00    +0.063 A 
ATOM      8 BR   UNL     1      -1.060  -2.869  -3.257  0.00  0.00    -0.046 Br
ATOM      9 BR   UNL     1       1.818   2.020  -3.538  0.00  0.00    -0.046 Br
BRANCH   5  10
ATOM     10  N   UNL     1       2.033  -1.628  -7.401  0.00  0.00    +0.056 N 
ATOM     11  O   UNL     1       2.788  -0.890  -7.989  0.00  0.00    -0.126 OA
ATOM     12  O   UNL     1       1.724  -2.690  -7.888  0.00  0.00    -0.126 OA
ENDBRANCH   5  10
ENDBRANCH   1   2
BRANCH   1  13
ATOM     13  C   UNL     1       0.718  -0.497  -1.257  0.00  0.00    +0.239 C 
BRANCH  13  15
ATOM     14  C   UNL     1      -0.019   1.526   0.010  0.00  0.00    +0.019 C 
ATOM     15  C   UNL     1       0.002  -0.004   0.002  0.00  0.00    +0.084 C 
BRANCH  15  16
ATOM     16  C   UNL     1       0.731  -0.503   1.223  0.00  0.00    +0.069 C 
ATOM     17  N   UNL     1       1.630   0.264   1.816  0.00  0.00    -0.390 N 
ATOM     18  N   UNL     1       0.471  -1.708   1.701  0.00  0.00    -0.348 N 
ATOM     19  H   UNL     1       1.820   1.148   1.465  0.00  0.00    +0.157 HD
ATOM     20  H   UNL     1      -0.188  -2.271   1.266  0.00  0.00    +0.143 HD
ATOM     21  H   UNL     1       0.941  -2.029   2.487  0.00  0.00    +0.143 HD
ATOM     22  H   UNL     1       2.099  -0.058   2.602  0.00  0.00    +0.157 HD
ENDBRANCH  15  16
ENDBRANCH  13  15
ENDBRANCH   1  13
TORSDOF 5
