REMARK  Name = ZINC47147170
REMARK  2 active torsions:
REMARK  status: ('A' for Active; 'I' for Inactive)
REMARK    1  A    between atoms: C_4  and  C_7
REMARK    2  A    between atoms: N_23  and  C_26
REMARK                            x       y       z     vdW  Elec       q    Type
REMARK                         _______ _______ _______ _____ _____    ______ ____
ROOT
ATOM      1  C   UNL     1       3.711  -0.707  -0.038  0.00  0.00    +0.072 C 
ATOM      2  C   UNL     1       3.872  -1.403   1.265  0.00  0.00    +0.033 A 
ATOM      3  C   UNL     1       4.245  -2.675   1.500  0.00  0.00    +0.088 A 
ATOM      4  N   UNL     1       4.334  -3.016   2.830  0.00  0.00    -0.311 N 
ATOM      5  H   UNL     1       4.616  -3.909   3.084  0.00  0.00    +0.170 HD
ATOM      6  C   UNL     1       4.030  -2.113   3.780  0.00  0.00    +0.289 A 
ATOM      7  O   UNL     1       4.049  -2.252   4.990  0.00  0.00    -0.260 OA
ATOM      8  S   UNL     1       3.618  -0.744   2.894  0.00  0.00    -0.030 S 
ATOM      9  S   UNL     1       4.565  -3.801   0.168  0.00  0.00    -0.093 S 
ATOM     10  C   UNL     1       4.766  -2.717  -1.281  0.00  0.00    +0.152 C 
ATOM     11  C   UNL     1       3.739  -1.579  -1.235  0.00  0.00    +0.110 C 
ATOM     12  C   UNL     1       2.473  -2.232  -1.695  0.00  0.00    +0.232 C 
ATOM     13  O   UNL     1       1.339  -1.904  -1.415  0.00  0.00    -0.274 OA
ATOM     14  N   UNL     1       2.852  -3.261  -2.488  0.00  0.00    -0.209 N 
ATOM     15  C   UNL     1       4.180  -3.506  -2.465  0.00  0.00    +0.240 C 
ATOM     16  O   UNL     1       4.794  -4.220  -3.228  0.00  0.00    -0.274 OA
ENDROOT
BRANCH  14  17
ATOM     17  C   UNL     1       1.950  -3.998  -3.269  0.00  0.00    +0.044 A 
ATOM     18  C   UNL     1       0.599  -3.681  -3.256  0.00  0.00    +0.027 A 
ATOM     19  C   UNL     1      -0.288  -4.408  -4.026  0.00  0.00    +0.040 A 
ATOM     20  C   UNL     1       0.170  -5.453  -4.810  0.00  0.00    +0.124 A 
ATOM     21  C   UNL     1       1.518  -5.771  -4.825  0.00  0.00    +0.040 A 
ATOM     22  C   UNL     1       2.408  -5.043  -4.061  0.00  0.00    +0.027 A 
ATOM     23  F   UNL     1      -0.699  -6.164  -5.562  0.00  0.00    -0.205 F 
ENDBRANCH  14  17
BRANCH   1  27
ATOM     24  C   UNL     1      -0.016   1.379   0.014  0.00  0.00    +0.000 A 
ATOM     25  C   UNL     1       0.116   0.182   0.693  0.00  0.00    +0.000 A 
ATOM     26  C   UNL     1       1.322  -0.493   0.676  0.00  0.00    +0.004 A 
ATOM     27  C   UNL     1       2.396   0.029  -0.020  0.00  0.00    -0.039 A 
ATOM     28  C   UNL     1       2.264   1.225  -0.700  0.00  0.00    +0.004 A 
ATOM     29  C   UNL     1       1.058   1.901  -0.682  0.00  0.00    +0.000 A 
ENDBRANCH   1  27
TORSDOF 2
