REMARK  Name = ZINC13297908
REMARK  7 active torsions:
REMARK  status: ('A' for Active; 'I' for Inactive)
REMARK    1  A    between atoms: C_1  and  O_2
REMARK    2  A    between atoms: O_2  and  C_3
REMARK    3  A    between atoms: C_6  and  C_33
REMARK    4  A    between atoms: C_8  and  N_9
REMARK    5  A    between atoms: N_9  and  C_10
REMARK    6  A    between atoms: N_13  and  C_18
REMARK    7  A    between atoms: C_29  and  C_31
REMARK                            x       y       z     vdW  Elec       q    Type
REMARK                         _______ _______ _______ _____ _____    ______ ____
ROOT
ATOM      1  C   UNL     1      -2.835   2.824   4.522  0.00  0.00    +0.075 A 
ATOM      2  C   UNL     1      -4.139   2.354   4.784  0.00  0.00    +0.157 A 
ATOM      3  N   UNL     1      -4.825   2.832   5.784  0.00  0.00    -0.174 NA
ATOM      4  N   UNL     1      -4.289   3.818   6.620  0.00  0.00    -0.221 N 
ATOM      5  C   UNL     1      -3.048   4.296   6.406  0.00  0.00    +0.288 A 
ATOM      6  O   UNL     1      -2.586   5.157   7.140  0.00  0.00    -0.265 OA
ATOM      7  C   UNL     1      -2.286   3.795   5.340  0.00  0.00    +0.129 A 
ATOM      8 CL   UNL     1      -0.681   4.388   5.049  0.00  0.00    -0.076 Cl
ENDROOT
BRANCH   4   9
ATOM      9  C   UNL     1      -5.085   4.335   7.736  0.00  0.00    +0.081 C 
ATOM     10  C   UNL     1      -6.455   3.655   7.743  0.00  0.00    +0.034 C 
ATOM     11  C   UNL     1      -7.287   4.194   8.909  0.00  0.00    -0.008 C 
ATOM     12  C   UNL     1      -6.566   3.903  10.226  0.00  0.00    +0.007 C 
ATOM     13  C   UNL     1      -5.195   4.583  10.219  0.00  0.00    -0.008 C 
ATOM     14  C   UNL     1      -4.364   4.043   9.054  0.00  0.00    +0.034 C 
ATOM     15  C   UNL     1      -5.376   6.094  10.060  0.00  0.00    +0.008 C 
ATOM     16  C   UNL     1      -6.097   6.385   8.742  0.00  0.00    +0.006 C 
ATOM     17  C   UNL     1      -7.467   5.705   8.749  0.00  0.00    +0.008 C 
ATOM     18  C   UNL     1      -5.266   5.845   7.577  0.00  0.00    +0.133 C 
BRANCH  18  19
ATOM     19  C   UNL     1      -5.975   6.132   6.279  0.00  0.00    +0.362 C 
ATOM     20  O   UNL     1      -6.211   5.233   5.507  0.00  0.00    -0.246 OA
ATOM     21  O   UNL     1      -6.346   7.387   5.979  0.00  0.00    -0.246 OA
ENDBRANCH  18  19
ENDBRANCH   4   9
BRANCH   1  22
ATOM     22  N   UNL     1      -2.109   2.315   3.458  0.00  0.00    -0.309 N 
ATOM     23  H   UNL     1      -1.185   2.582   3.329  0.00  0.00    +0.152 HD
BRANCH  22  29
ATOM     24  C   UNL     1      -3.721   1.848   1.712  0.00  0.00    +0.141 A 
ATOM     25  C   UNL     1      -4.312   0.959   0.826  0.00  0.00    +0.048 A 
ATOM     26  C   UNL     1      -3.906  -0.358   0.791  0.00  0.00    +0.019 A 
ATOM     27  C   UNL     1      -2.897  -0.801   1.650  0.00  0.00    +0.065 A 
ATOM     28  C   UNL     1      -2.300   0.093   2.543  0.00  0.00    +0.042 A 
ATOM     29  C   UNL     1      -2.708   1.414   2.569  0.00  0.00    +0.074 A 
BRANCH  27  30
ATOM     30  C   UNL     1      -2.462  -2.210   1.613  0.00  0.00    +0.387 C 
ATOM     31  O   UNL     1      -1.584  -2.594   2.360  0.00  0.00    -0.241 OA
ATOM     32  O   UNL     1      -3.038  -3.071   0.751  0.00  0.00    -0.241 OA
ENDBRANCH  27  30
BRANCH  24  34
ATOM     33  C   UNL     1      -5.161   3.522   0.834  0.00  0.00    +0.277 C 
ATOM     34  O   UNL     1      -4.124   3.144   1.742  0.00  0.00    -0.493 OA
ENDBRANCH  24  34
ENDBRANCH  22  29
ENDBRANCH   1  22
TORSDOF 6
