REMARK  Name = ZINC59253990
REMARK  7 active torsions:
REMARK  status: ('A' for Active; 'I' for Inactive)
REMARK    1  A    between atoms: C_1  and  C_2
REMARK    2  A    between atoms: N_4  and  C_5
REMARK    3  A    between atoms: C_9  and  C_11
REMARK    4  A    between atoms: N_13  and  C_14
REMARK    5  A    between atoms: C_17  and  N_24
REMARK    6  A    between atoms: C_19  and  C_20
REMARK    7  A    between atoms: C_25  and  C_27
REMARK                            x       y       z     vdW  Elec       q    Type
REMARK                         _______ _______ _______ _____ _____    ______ ____
ROOT
ATOM      1  C   UNL     1      -4.462  -7.197  -0.001  0.00  0.00    +0.045 A 
ATOM      2  C   UNL     1      -5.675  -6.528  -0.103  0.00  0.00    +0.026 A 
ATOM      3  C   UNL     1      -6.848  -7.243  -0.234  0.00  0.00    +0.025 A 
ATOM      4  C   UNL     1      -6.816  -8.632  -0.264  0.00  0.00    +0.034 A 
ATOM      5  C   UNL     1      -5.603  -9.300  -0.163  0.00  0.00    +0.037 A 
ATOM      6  C   UNL     1      -4.428  -8.585  -0.037  0.00  0.00    +0.078 A 
ENDROOT
BRANCH   1   9
ATOM      7  C   UNL     1      -3.295  -5.228   0.652  0.00  0.00    +0.248 C 
ATOM      8  O   UNL     1      -4.330  -4.776   1.099  0.00  0.00    -0.270 OA
ATOM      9  N   UNL     1      -3.272  -6.471   0.131  0.00  0.00    -0.281 N 
ATOM     10  H   UNL     1      -2.431  -6.863  -0.151  0.00  0.00    +0.155 HD
BRANCH   7  15
ATOM     11  C   UNL     1      -0.920  -2.372   1.238  0.00  0.00    +0.034 A 
ATOM     12  C   UNL     1       0.260  -2.896   0.724  0.00  0.00    +0.023 A 
ATOM     13  C   UNL     1       0.281  -4.171   0.191  0.00  0.00    +0.003 A 
ATOM     14  C   UNL     1      -0.870  -4.933   0.166  0.00  0.00    +0.013 A 
ATOM     15  C   UNL     1      -2.060  -4.415   0.679  0.00  0.00    +0.039 A 
ATOM     16  C   UNL     1      -2.080  -3.130   1.222  0.00  0.00    +0.036 A 
BRANCH  11  20
ATOM     17  C   UNL     1      -1.657   0.558   3.483  0.00  0.00    +0.109 C 
ATOM     18  C   UNL     1      -1.719  -0.802   2.837  0.00  0.00    +0.214 C 
ATOM     19  O   UNL     1      -2.474  -1.646   3.272  0.00  0.00    -0.276 OA
ATOM     20  N   UNL     1      -0.936  -1.080   1.776  0.00  0.00    -0.286 N 
ATOM     21  H   UNL     1      -0.384  -0.385   1.385  0.00  0.00    +0.155 HD
ENDBRANCH  11  20
ENDBRANCH   7  15
ENDBRANCH   1   9
BRANCH   6  22
ATOM     22  C   UNL     1      -3.112  -9.310   0.067  0.00  0.00    +0.419 C 
ATOM     23  F   UNL     1      -3.333 -10.690   0.007  0.00  0.00    -0.166 F 
ATOM     24  F   UNL     1      -2.282  -8.924  -0.992  0.00  0.00    -0.166 F 
ATOM     25  F   UNL     1      -2.497  -8.989   1.282  0.00  0.00    -0.166 F 
ENDBRANCH   6  22
BRANCH   4  26
ATOM     26  N   UNL     1      -8.006  -9.357  -0.397  0.00  0.00    -0.281 N 
ATOM     27  C   UNL     1      -9.010  -8.871  -1.153  0.00  0.00    +0.251 C 
ATOM     28  O   UNL     1      -8.849  -7.852  -1.795  0.00  0.00    -0.270 OA
ATOM     29  H   UNL     1      -8.107 -10.209   0.055  0.00  0.00    +0.155 HD
BRANCH  27  30
ATOM     30  C   UNL     1     -10.306  -9.577  -1.200  0.00  0.00    +0.072 A 
ATOM     31  C   UNL     1     -10.497 -10.745  -0.459  0.00  0.00    +0.016 A 
ATOM     32  C   UNL     1     -11.710 -11.399  -0.507  0.00  0.00    +0.001 A 
ATOM     33  C   UNL     1     -12.739 -10.902  -1.288  0.00  0.00    +0.003 A 
ATOM     34  C   UNL     1     -12.560  -9.746  -2.025  0.00  0.00    +0.039 A 
ATOM     35  C   UNL     1     -11.351  -9.076  -1.983  0.00  0.00    +0.135 A 
ATOM     36  F   UNL     1     -11.179  -7.944  -2.699  0.00  0.00    -0.205 F 
ENDBRANCH  27  30
ENDBRANCH   4  26
TORSDOF 6
