REMARK  Name = ZINC12705216
REMARK  9 active torsions:
REMARK  status: ('A' for Active; 'I' for Inactive)
REMARK    1  A    between atoms: C_1  and  C_2
REMARK    2  A    between atoms: C_5  and  C_8
REMARK    3  A    between atoms: C_8  and  C_10
REMARK    4  A    between atoms: C_8  and  N_19
REMARK    5  A    between atoms: N_12  and  C_13
REMARK    6  A    between atoms: N_19  and  C_20
REMARK    7  A    between atoms: C_25  and  C_27
REMARK    8  A    between atoms: C_28  and  N_35
REMARK    9  A    between atoms: C_29  and  C_32
REMARK                            x       y       z     vdW  Elec       q    Type
REMARK                         _______ _______ _______ _____ _____    ______ ____
ROOT
ATOM      1  N   UNL     1      -1.299  -0.323   0.145  0.00  0.00    -0.278 N 
ATOM      2  C   UNL     1      -2.175  -0.899  -0.702  0.00  0.00    +0.258 C 
ATOM      3  O   UNL     1      -1.822  -1.210  -1.824  0.00  0.00    -0.269 OA
ENDROOT
BRANCH   1   4
ATOM      4  C   UNL     1      -1.686  -0.063   1.534  0.00  0.00    +0.077 C 
ATOM      5  C   UNL     1      -0.578   0.736   2.251  0.00  0.00    +0.022 C 
ATOM      6  C   UNL     1      -0.561   0.157   3.688  0.00  0.00    +0.002 C 
ATOM      7  C   UNL     1      -0.811  -1.353   3.451  0.00  0.00    +0.002 C 
ATOM      8  C   UNL     1      -1.834  -1.391   2.297  0.00  0.00    +0.022 C 
ENDBRANCH   1   4
BRANCH   2   9
ATOM      9  C   UNL     1      -3.552  -1.150  -0.272  0.00  0.00    +0.115 A 
ATOM     10  C   UNL     1      -4.573  -1.837  -0.930  0.00  0.00    +0.076 A 
ATOM     11  C   UNL     1      -5.758  -1.867  -0.194  0.00  0.00    +0.155 A 
ATOM     12  N   UNL     1      -5.800  -1.279   0.981  0.00  0.00    -0.203 NA
ATOM     13  S   UNL     1      -4.370  -0.667   1.234  0.00  0.00    +0.019 S 
BRANCH  11  14
ATOM     14  C   UNL     1      -6.950  -2.550  -0.729  0.00  0.00    +0.262 C 
ATOM     15  O   UNL     1      -6.904  -3.091  -1.817  0.00  0.00    -0.269 OA
ATOM     16  N   UNL     1      -8.091  -2.574  -0.012  0.00  0.00    -0.324 N 
ATOM     17  H   UNL     1      -8.128  -2.142   0.856  0.00  0.00    +0.145 HD
ATOM     18  H   UNL     1      -8.876  -3.023  -0.364  0.00  0.00    +0.145 HD
ENDBRANCH  11  14
BRANCH  10  19
ATOM     19  N   UNL     1      -4.426  -2.426  -2.179  0.00  0.00    -0.355 N 
ATOM     20  H   UNL     1      -3.576  -2.373  -2.643  0.00  0.00    +0.142 HD
ATOM     21  H   UNL     1      -5.173  -2.891  -2.587  0.00  0.00    +0.142 HD
ENDBRANCH  10  19
ENDBRANCH   2   9
BRANCH   1  22
ATOM     22  C   UNL     1       0.040   0.043  -0.323  0.00  0.00    +0.193 C 
BRANCH  22  27
ATOM     23  C   UNL     1       4.010  -2.686   2.869  0.00  0.00    +0.044 C 
ATOM     24  C   UNL     1       2.974  -1.974   2.037  0.00  0.00    -0.050 A 
ATOM     25  C   UNL     1       1.858  -2.656   1.591  0.00  0.00    +0.004 A 
ATOM     26  C   UNL     1       0.908  -2.004   0.827  0.00  0.00    +0.006 A 
ATOM     27  C   UNL     1       1.075  -0.669   0.510  0.00  0.00    -0.018 A 
ATOM     28  C   UNL     1       2.194   0.012   0.952  0.00  0.00    +0.006 A 
ATOM     29  C   UNL     1       3.141  -0.639   1.720  0.00  0.00    +0.004 A 
ENDBRANCH  22  27
BRANCH  22  30
ATOM     30  C   UNL     1       0.228   1.532  -0.193  0.00  0.00    +0.238 C 
ATOM     31  O   UNL     1      -0.648   2.214   0.295  0.00  0.00    -0.273 OA
ATOM     32  N   UNL     1       1.368   2.108  -0.625  0.00  0.00    -0.311 N 
ATOM     33  H   UNL     1       2.041   1.573  -1.075  0.00  0.00    +0.149 HD
BRANCH  32  34
ATOM     34  C   UNL     1       1.591   3.540  -0.413  0.00  0.00    +0.073 C 
ATOM     35  C   UNL     1       0.935   4.331  -1.546  0.00  0.00    +0.022 C 
ATOM     36  C   UNL     1       1.168   5.827  -1.325  0.00  0.00    +0.002 C 
ATOM     37  C   UNL     1       2.671   6.112  -1.308  0.00  0.00    +0.000 C 
ATOM     38  C   UNL     1       3.327   5.321  -0.174  0.00  0.00    +0.002 C 
ATOM     39  C   UNL     1       3.094   3.825  -0.395  0.00  0.00    +0.022 C 
ENDBRANCH  32  34
ENDBRANCH  22  30
ENDBRANCH   1  22
TORSDOF 8
