REMARK  Name = ZINC12467062
REMARK  9 active torsions:
REMARK  status: ('A' for Active; 'I' for Inactive)
REMARK    1  A    between atoms: C_6  and  C_7
REMARK    2  A    between atoms: C_7  and  N_8
REMARK    3  A    between atoms: C_9  and  C_11
REMARK    4  A    between atoms: C_11  and  N_12
REMARK    5  A    between atoms: N_12  and  C_13
REMARK    6  A    between atoms: C_13  and  C_14
REMARK    7  A    between atoms: C_21  and  C_23
REMARK    8  A    between atoms: C_24  and  N_31
REMARK    9  A    between atoms: C_25  and  C_28
REMARK                            x       y       z     vdW  Elec       q    Type
REMARK                         _______ _______ _______ _____ _____    ______ ____
ROOT
ATOM      1  N   UNL     1       0.964   4.038   1.488  0.00  0.00    -0.284 N 
ATOM      2  C   UNL     1      -0.350   4.137   1.773  0.00  0.00    +0.257 C 
ATOM      3  O   UNL     1      -1.178   3.939   0.903  0.00  0.00    -0.269 OA
ENDROOT
BRANCH   2   4
ATOM      4  C   UNL     1      -0.781   4.484   3.129  0.00  0.00    +0.115 A 
ATOM      5  C   UNL     1      -2.068   4.508   3.670  0.00  0.00    +0.076 A 
ATOM      6  C   UNL     1      -2.077   4.894   5.010  0.00  0.00    +0.155 A 
ATOM      7  N   UNL     1      -0.940   5.181   5.605  0.00  0.00    -0.203 NA
ATOM      8  S   UNL     1       0.197   4.980   4.532  0.00  0.00    +0.019 S 
BRANCH   6   9
ATOM      9  C   UNL     1      -3.348   4.978   5.753  0.00  0.00    +0.262 C 
ATOM     10  O   UNL     1      -4.396   4.712   5.196  0.00  0.00    -0.269 OA
ATOM     11  N   UNL     1      -3.348   5.351   7.048  0.00  0.00    -0.324 N 
ATOM     12  H   UNL     1      -2.512   5.564   7.492  0.00  0.00    +0.145 HD
ATOM     13  H   UNL     1      -4.184   5.407   7.536  0.00  0.00    +0.145 HD
ENDBRANCH   6   9
BRANCH   5  14
ATOM     14  N   UNL     1      -3.212   4.185   2.952  0.00  0.00    -0.355 N 
ATOM     15  H   UNL     1      -3.143   3.924   2.021  0.00  0.00    +0.142 HD
ATOM     16  H   UNL     1      -4.080   4.221   3.383  0.00  0.00    +0.142 HD
ENDBRANCH   5  14
ENDBRANCH   2   4
BRANCH   1  17
ATOM     17  C   UNL     1       1.961   4.349   2.515  0.00  0.00    +0.204 C 
BRANCH  17  19
ATOM     18  N   UNL     1       3.069   6.359   3.437  0.00  0.00    -0.310 N 
ATOM     19  C   UNL     1       2.187   5.838   2.562  0.00  0.00    +0.231 C 
ATOM     20  O   UNL     1       1.574   6.568   1.811  0.00  0.00    -0.274 OA
ATOM     21  H   UNL     1       3.559   5.775   4.037  0.00  0.00    +0.149 HD
BRANCH  18  22
ATOM     22  C   UNL     1       3.288   7.807   3.483  0.00  0.00    +0.139 C 
BRANCH  22  28
ATOM     23  C   UNL     1       3.913   8.385   5.836  0.00  0.00    +0.008 A 
ATOM     24  C   UNL     1       4.854   8.673   6.806  0.00  0.00    +0.038 A 
ATOM     25  C   UNL     1       6.198   8.714   6.476  0.00  0.00    +0.123 A 
ATOM     26  C   UNL     1       6.599   8.460   5.176  0.00  0.00    +0.038 A 
ATOM     27  C   UNL     1       5.656   8.167   4.208  0.00  0.00    +0.008 A 
ATOM     28  C   UNL     1       4.315   8.126   4.539  0.00  0.00    -0.030 A 
ATOM     29  F   UNL     1       7.119   9.001   7.423  0.00  0.00    -0.205 F 
ENDBRANCH  22  28
ENDBRANCH  18  22
ENDBRANCH  17  19
ENDBRANCH   1  17
BRANCH   1  30
ATOM     30  C   UNL     1       1.393   3.619   0.152  0.00  0.00    +0.143 C 
BRANCH  30  31
ATOM     31  C   UNL     1       1.419   2.114   0.081  0.00  0.00    -0.030 A 
ATOM     32  C   UNL     1       0.263   1.417  -0.221  0.00  0.00    +0.008 A 
ATOM     33  C   UNL     1       0.285   0.037  -0.286  0.00  0.00    +0.038 A 
ATOM     34  C   UNL     1       1.465  -0.648  -0.048  0.00  0.00    +0.123 A 
ATOM     35  C   UNL     1       2.621   0.051   0.254  0.00  0.00    +0.038 A 
ATOM     36  C   UNL     1       2.597   1.431   0.318  0.00  0.00    +0.008 A 
ATOM     37  F   UNL     1       1.487  -1.998  -0.111  0.00  0.00    -0.205 F 
ENDBRANCH  30  31
ENDBRANCH   1  30
TORSDOF 9
