REMARK  Name = ZINC12603140
REMARK  7 active torsions:
REMARK  status: ('A' for Active; 'I' for Inactive)
REMARK    1  A    between atoms: C_1  and  O_2
REMARK    2  A    between atoms: O_2  and  C_3
REMARK    3  A    between atoms: C_6  and  C_9
REMARK    4  A    between atoms: C_9  and  C_11
REMARK    5  A    between atoms: C_9  and  N_54
REMARK    6  A    between atoms: C_11  and  N_12
REMARK    7  A    between atoms: C_13  and  C_15
REMARK                            x       y       z     vdW  Elec       q    Type
REMARK                         _______ _______ _______ _____ _____    ______ ____
ROOT
ATOM      1  C   UNL     1      -2.513   0.977   0.019  0.00  0.00    -0.020 C 
ENDROOT
BRANCH   1   7
ATOM      2  C   UNL     1      -3.801   2.933   0.634  0.00  0.00    -0.078 C 
ATOM      3  C   UNL     1      -4.866   3.455   1.600  0.00  0.00    -0.019 C 
ATOM      4  C   UNL     1      -4.312   3.425   3.028  0.00  0.00    -0.004 C 
ATOM      5  C   UNL     1      -3.890   1.994   3.373  0.00  0.00    -0.019 C 
ATOM      6  C   UNL     1      -2.853   1.514   2.355  0.00  0.00    -0.078 C 
ATOM      7  N   UNL     1      -3.456   1.544   1.005  0.00  0.00    +0.385 N 
ATOM      8  H   UNL     1      -4.313   0.978   1.011  0.00  0.00    -0.081 HD
ENDBRANCH   1   7
BRANCH   1  12
ATOM      9  C   UNL     1       0.984   3.415  -0.281  0.00  0.00    +0.120 A 
ATOM     10  C   UNL     1      -0.231   3.881  -0.762  0.00  0.00    +0.046 A 
ATOM     11  C   UNL     1      -1.359   3.089  -0.667  0.00  0.00    +0.005 A 
ATOM     12  C   UNL     1      -1.280   1.836  -0.089  0.00  0.00    -0.059 A 
ATOM     13  C   UNL     1      -0.069   1.367   0.386  0.00  0.00    +0.005 A 
ATOM     14  C   UNL     1       1.063   2.155   0.293  0.00  0.00    +0.046 A 
BRANCH   9  16
ATOM     15  C   UNL     1       3.312   3.648   0.143  0.00  0.00    +0.277 C 
ATOM     16  O   UNL     1       2.095   4.192  -0.373  0.00  0.00    -0.495 OA
ENDBRANCH   9  16
ENDBRANCH   1  12
BRANCH   1  17
ATOM     17  C   UNL     1      -3.206   0.907  -1.343  0.00  0.00    +0.094 C 
BRANCH  17  18
ATOM     18  N   UNL     1      -4.467   0.172  -1.212  0.00  0.00    -0.313 N 
ATOM     19  C   UNL     1      -5.253  -0.016  -2.291  0.00  0.00    +0.244 C 
ATOM     20  O   UNL     1      -4.915   0.424  -3.373  0.00  0.00    -0.270 OA
ATOM     21  H   UNL     1      -4.736  -0.179  -0.349  0.00  0.00    +0.149 HD
BRANCH  19  22
ATOM     22  C   UNL     1      -6.524  -0.756  -2.159  0.00  0.00    +0.039 A 
ATOM     23  C   UNL     1      -6.908  -1.268  -0.912  0.00  0.00    +0.015 A 
ATOM     24  C   UNL     1      -8.082  -1.949  -0.776  0.00  0.00    +0.028 A 
ATOM     25  C   UNL     1      -8.904  -2.152  -1.880  0.00  0.00    +0.066 A 
ATOM     26  C   UNL     1      -8.531  -1.650  -3.140  0.00  0.00    +0.089 A 
ATOM     27  C   UNL     1      -7.333  -0.949  -3.274  0.00  0.00    +0.043 A 
ATOM     28  N   UNL     1      -9.514  -1.996  -4.011  0.00  0.00    -0.236 NA
ATOM     29  C   UNL     1     -10.439  -2.660  -3.382  0.00  0.00    +0.197 A 
ATOM     30  N   UNL     1     -10.114  -2.784  -2.066  0.00  0.00    -0.344 N 
ATOM     31  H   UNL     1     -10.653  -3.249  -1.364  0.00  0.00    +0.167 HD
ENDBRANCH  19  22
ENDBRANCH  17  18
ENDBRANCH   1  17
TORSDOF 6
