REMARK  Name = ZINC63271625
REMARK  7 active torsions:
REMARK  status: ('A' for Active; 'I' for Inactive)
REMARK    1  A    between atoms: C_1  and  C_2
REMARK    2  A    between atoms: C_4  and  C_17
REMARK    3  A    between atoms: C_8  and  O_15
REMARK    4  A    between atoms: N_12  and  C_13
REMARK    5  A    between atoms: O_15  and  C_16
REMARK    6  A    between atoms: C_27  and  O_32
REMARK    7  A    between atoms: O_32  and  C_33
REMARK                            x       y       z     vdW  Elec       q    Type
REMARK                         _______ _______ _______ _____ _____    ______ ____
ROOT
ATOM      1  C   UNL     1       1.312   0.492  -2.215  0.00  0.00    +0.225 C 
ATOM      2  O   UNL     1       1.264   1.648  -1.849  0.00  0.00    -0.275 OA
ATOM      3  N   UNL     1       1.827   0.190  -3.423  0.00  0.00    -0.297 N 
ATOM      4  C   UNL     1       1.783  -1.187  -3.928  0.00  0.00    +0.110 C 
ATOM      5  C   UNL     1       1.057  -1.247  -5.277  0.00  0.00    +0.048 C 
ATOM      6  C   UNL     1       1.802  -0.359  -6.277  0.00  0.00    +0.109 C 
ATOM      7  C   UNL     1       1.897   1.027  -5.651  0.00  0.00    -0.021 C 
ATOM      8  C   UNL     1       1.361   1.871  -6.522  0.00  0.00    +0.004 A 
ATOM      9  C   UNL     1       1.226   3.336  -6.517  0.00  0.00    +0.055 A 
ATOM     10  C   UNL     1       0.598   3.896  -7.588  0.00  0.00    +0.121 A 
ATOM     11  C   UNL     1       0.085   3.162  -8.667  0.00  0.00    +0.047 A 
ATOM     12  C   UNL     1       0.159   1.810  -8.776  0.00  0.00    +0.029 A 
ATOM     13  C   UNL     1       0.822   1.091  -7.679  0.00  0.00    +0.043 A 
ATOM     14  N   UNL     1       1.057  -0.196  -7.527  0.00  0.00    -0.377 N 
ATOM     15  C   UNL     1       2.440   1.242  -4.262  0.00  0.00    +0.141 C 
ATOM     16  H   UNL     1       0.786  -0.911  -8.124  0.00  0.00    +0.160 HD
ENDROOT
BRANCH   1  19
ATOM     17  C   UNL     1      -1.227   0.147  -2.612  0.00  0.00    +0.029 C 
ATOM     18  C   UNL     1      -0.708  -0.819  -1.545  0.00  0.00    +0.086 C 
ATOM     19  C   UNL     1       0.798  -0.605  -1.319  0.00  0.00    +0.127 C 
ATOM     20  C   UNL     1       0.911  -0.200   0.133  0.00  0.00    -0.009 A 
ATOM     21  C   UNL     1       2.015   0.120   0.900  0.00  0.00    +0.053 A 
ATOM     22  C   UNL     1       1.860   0.465   2.234  0.00  0.00    +0.134 A 
ATOM     23  C   UNL     1       0.591   0.488   2.795  0.00  0.00    +0.061 A 
ATOM     24  C   UNL     1      -0.511   0.169   2.030  0.00  0.00    +0.042 A 
ATOM     25  C   UNL     1      -0.359  -0.180   0.686  0.00  0.00    +0.035 A 
ATOM     26  N   UNL     1      -1.337  -0.534  -0.253  0.00  0.00    -0.329 N 
ATOM     27  C   UNL     1      -2.775  -0.609   0.016  0.00  0.00    +0.129 C 
ATOM     28 BR   UNL     1       0.372   0.957   4.614  0.00  0.00    -0.046 Br
BRANCH  22  29
ATOM     29  O   UNL     1       2.947   0.779   2.989  0.00  0.00    -0.494 OA
ATOM     30  C   UNL     1       4.221   0.734   2.343  0.00  0.00    +0.277 C 
ENDBRANCH  22  29
ENDBRANCH   1  19
BRANCH  10  31
ATOM     31  O   UNL     1       0.459   5.247  -7.611  0.00  0.00    -0.495 OA
ATOM     32  C   UNL     1      -0.203   5.812  -8.745  0.00  0.00    +0.277 C 
ENDBRANCH  10  31
TORSDOF 3
