REMARK  Name = ZINC39264992
REMARK  8 active torsions:
REMARK  status: ('A' for Active; 'I' for Inactive)
REMARK    1  A    between atoms: C_1  and  C_2
REMARK    2  A    between atoms: C_6  and  O_40
REMARK    3  A    between atoms: C_7  and  O_39
REMARK    4  A    between atoms: N_19  and  C_22
REMARK    5  A    between atoms: C_24  and  O_38
REMARK    6  A    between atoms: C_26  and  O_37
REMARK    7  A    between atoms: C_28  and  C_31
REMARK    8  A    between atoms: N_33  and  C_34
REMARK                            x       y       z     vdW  Elec       q    Type
REMARK                         _______ _______ _______ _____ _____    ______ ____
ROOT
ATOM      1  C   UNL     1      -0.019   1.526   0.010  0.00  0.00    +0.033 C 
ATOM      2  C   UNL     1       0.002  -0.004   0.002  0.00  0.00    +0.102 C 
ATOM      3  C   UNL     1       0.706  -0.490  -1.240  0.00  0.00    -0.020 A 
ATOM      4  C   UNL     1       0.051  -0.337  -2.455  0.00  0.00    +0.055 A 
ATOM      5  C   UNL     1       0.647  -0.752  -3.632  0.00  0.00    +0.159 A 
ATOM      6  C   UNL     1       1.914  -1.326  -3.595  0.00  0.00    +0.158 A 
ATOM      7  C   UNL     1       2.561  -1.479  -2.383  0.00  0.00    +0.053 A 
ATOM      8  C   UNL     1       1.956  -1.066  -1.201  0.00  0.00    -0.037 A 
ATOM      9  C   UNL     1       2.711  -1.292   0.083  0.00  0.00    +0.054 C 
ATOM     10  C   UNL     1       2.178  -0.389   1.194  0.00  0.00    +0.112 C 
ATOM     11  N   UNL     1       0.710  -0.489   1.192  0.00  0.00    -0.306 N 
ATOM     12  C   UNL     1       0.024  -1.019   2.271  0.00  0.00    +0.153 A 
ATOM     13  C   UNL     1       0.714  -1.475   3.407  0.00  0.00    +0.148 A 
ATOM     14  C   UNL     1      -0.037  -2.003   4.471  0.00  0.00    +0.167 A 
ATOM     15  N   UNL     1      -1.361  -2.053   4.365  0.00  0.00    -0.216 NA
ATOM     16  C   UNL     1      -1.964  -1.613   3.281  0.00  0.00    +0.225 A 
ATOM     17  N   UNL     1      -1.302  -1.104   2.258  0.00  0.00    -0.218 NA
ATOM     18  N   UNL     1       0.873  -2.366   5.432  0.00  0.00    -0.285 N 
ATOM     19  C   UNL     1       2.114  -2.064   4.955  0.00  0.00    +0.203 A 
ATOM     20  N   UNL     1       2.018  -1.541   3.767  0.00  0.00    -0.231 NA
ENDROOT
BRANCH  18  21
ATOM     21  C   UNL     1       0.567  -2.967   6.732  0.00  0.00    +0.254 C 
ATOM     22  C   UNL     1       0.464  -4.503   6.604  0.00  0.00    +0.196 C 
ATOM     23  C   UNL     1       1.088  -5.032   7.915  0.00  0.00    +0.185 C 
ATOM     24  C   UNL     1       1.494  -3.753   8.680  0.00  0.00    +0.237 C 
ATOM     25  O   UNL     1       1.652  -2.743   7.658  0.00  0.00    -0.339 OA
BRANCH  24  26
ATOM     26  C   UNL     1       2.793  -3.970   9.413  0.00  0.00    +0.245 C 
ATOM     27  O   UNL     1       3.779  -3.337   9.100  0.00  0.00    -0.273 OA
ATOM     28  N   UNL     1       2.858  -4.866  10.417  0.00  0.00    -0.310 N 
ATOM     29  H   UNL     1       2.069  -5.372  10.668  0.00  0.00    +0.149 HD
BRANCH  28  30
ATOM     30  C   UNL     1       4.120  -5.077  11.130  0.00  0.00    +0.073 C 
ATOM     31  C   UNL     1       4.061  -5.183  12.655  0.00  0.00    +0.024 C 
ATOM     32  C   UNL     1       4.330  -6.431  11.812  0.00  0.00    +0.024 C 
ENDBRANCH  28  30
ENDBRANCH  24  26
BRANCH  23  33
ATOM     33  O   UNL     1       0.127  -5.781   8.661  0.00  0.00    -0.386 OA
ATOM     34  H   UNL     1       0.466  -6.137   9.494  0.00  0.00    +0.210 HD
ENDBRANCH  23  33
BRANCH  22  35
ATOM     35  O   UNL     1      -0.903  -4.907   6.499  0.00  0.00    -0.385 OA
ATOM     36  H   UNL     1      -1.025  -5.862   6.416  0.00  0.00    +0.210 HD
ENDBRANCH  22  35
ENDBRANCH  18  21
BRANCH   6  37
ATOM     37  O   UNL     1       2.514  -1.734  -4.745  0.00  0.00    -0.503 OA
ATOM     38  H   UNL     1       3.052  -1.053  -5.171  0.00  0.00    +0.292 HD
ENDBRANCH   6  37
BRANCH   5  39
ATOM     39  O   UNL     1      -0.002  -0.601  -4.818  0.00  0.00    -0.503 OA
ATOM     40  H   UNL     1       0.175   0.242  -5.258  0.00  0.00    +0.292 HD
ENDBRANCH   5  39
TORSDOF 7
