REMARK  Name = ZINC20170824
REMARK  10 active torsions:
REMARK  status: ('A' for Active; 'I' for Inactive)
REMARK    1  A    between atoms: C_1  and  O_2
REMARK    2  A    between atoms: O_2  and  C_3
REMARK    3  A    between atoms: C_5  and  C_10
REMARK    4  A    between atoms: C_8  and  O_9
REMARK    5  A    between atoms: C_12  and  C_36
REMARK    6  A    between atoms: C_13  and  S_22
REMARK    7  A    between atoms: S_22  and  C_23
REMARK    8  A    between atoms: C_23  and  C_24
REMARK    9  A    between atoms: N_26  and  C_27
REMARK   10  A    between atoms: C_30  and  N_33
REMARK                            x       y       z     vdW  Elec       q    Type
REMARK                         _______ _______ _______ _____ _____    ______ ____
ROOT
ATOM      1  C   UNL     1       2.453   0.317   4.195  0.00  0.00    +0.097 C 
ATOM      2  C   UNL     1       1.795  -0.009   5.503  0.00  0.00    +0.069 C 
ATOM      3  C   UNL     1       2.401  -0.820   6.411  0.00  0.00    +0.080 C 
ATOM      4  N   UNL     1       3.641  -1.351   6.142  0.00  0.00    -0.311 N 
ATOM      5  C   UNL     1       4.447  -0.789   5.190  0.00  0.00    +0.016 C 
ATOM      6  C   UNL     1       3.931   0.020   4.242  0.00  0.00    +0.024 C 
ATOM      7  C   UNL     1       4.755   0.613   3.270  0.00  0.00    +0.162 C 
ATOM      8  O   UNL     1       4.259   1.332   2.425  0.00  0.00    -0.292 OA
ATOM      9  C   UNL     1       6.240   0.374   3.255  0.00  0.00    +0.080 C 
ATOM     10  C   UNL     1       6.714   0.087   4.684  0.00  0.00    +0.014 C 
ATOM     11  C   UNL     1       5.923  -1.102   5.225  0.00  0.00    +0.051 C 
ATOM     12  H   UNL     1       3.947  -2.131   6.632  0.00  0.00    +0.152 HD
ENDROOT
BRANCH   1  15
ATOM     13  C   UNL     1       0.599  -0.635   1.044  0.00  0.00    +0.162 A 
ATOM     14  C   UNL     1       1.183   0.120   2.048  0.00  0.00    +0.054 A 
ATOM     15  C   UNL     1       1.818  -0.507   3.104  0.00  0.00    -0.031 A 
ATOM     16  C   UNL     1       1.873  -1.887   3.161  0.00  0.00    +0.008 A 
ATOM     17  C   UNL     1       1.292  -2.646   2.162  0.00  0.00    +0.049 A 
ATOM     18  C   UNL     1       0.649  -2.024   1.104  0.00  0.00    +0.158 A 
BRANCH  13  20
ATOM     19  C   UNL     1      -0.038   1.409   0.008  0.00  0.00    +0.277 C 
ATOM     20  O   UNL     1      -0.026  -0.020   0.004  0.00  0.00    -0.491 OA
ENDBRANCH  13  20
BRANCH  18  21
ATOM     21  O   UNL     1       0.072  -2.770   0.124  0.00  0.00    -0.503 OA
ATOM     22  H   UNL     1       0.664  -2.978  -0.612  0.00  0.00    +0.292 HD
ENDBRANCH  18  21
ENDBRANCH   1  15
BRANCH   2  23
ATOM     23  C   UNL     1       0.507   0.543   5.801  0.00  0.00    +0.098 C 
ATOM     24  N   UNL     1      -0.514   0.981   6.037  0.00  0.00    -0.191 NA
ENDBRANCH   2  23
BRANCH   3  25
ATOM     25  S   UNL     1       1.598  -1.190   7.935  0.00  0.00    -0.100 S 
BRANCH  25  26
ATOM     26  C   UNL     1       2.766  -2.280   8.794  0.00  0.00    +0.171 C 
BRANCH  26  27
ATOM     27  C   UNL     1       2.193  -2.677  10.130  0.00  0.00    +0.227 C 
ATOM     28  O   UNL     1       1.105  -2.265  10.470  0.00  0.00    -0.275 OA
ATOM     29  N   UNL     1       2.892  -3.490  10.948  0.00  0.00    -0.285 N 
ATOM     30  H   UNL     1       3.731  -3.873  10.650  0.00  0.00    +0.155 HD
BRANCH  29  31
ATOM     31  C   UNL     1       2.405  -3.780  12.227  0.00  0.00    +0.034 A 
ATOM     32  C   UNL     1       3.288  -3.940  13.288  0.00  0.00    +0.025 A 
ATOM     33  C   UNL     1       2.805  -4.227  14.549  0.00  0.00    +0.034 A 
ATOM     34  C   UNL     1       1.444  -4.355  14.757  0.00  0.00    +0.126 A 
ATOM     35  C   UNL     1       0.562  -4.197  13.704  0.00  0.00    +0.034 A 
ATOM     36  C   UNL     1       1.039  -3.904  12.441  0.00  0.00    +0.025 A 
BRANCH  34  37
ATOM     37  N   UNL     1       0.929  -4.662  16.111  0.00  0.00    +0.056 N 
ATOM     38  O   UNL     1       1.699  -4.801  17.033  0.00  0.00    -0.126 OA
ATOM     39  O   UNL     1      -0.261  -4.775  16.294  0.00  0.00    -0.126 OA
ENDBRANCH  34  37
ENDBRANCH  29  31
ENDBRANCH  26  27
ENDBRANCH  25  26
ENDBRANCH   3  25
TORSDOF 9
