REMARK  Name = ZINC62640153
REMARK  9 active torsions:
REMARK  status: ('A' for Active; 'I' for Inactive)
REMARK    1  A    between atoms: C_1  and  C_2
REMARK    2  A    between atoms: C_4  and  N_11
REMARK    3  A    between atoms: C_6  and  C_8
REMARK    4  A    between atoms: C_8  and  C_9
REMARK    5  A    between atoms: C_8  and  C_10
REMARK    6  A    between atoms: N_14  and  C_17
REMARK    7  A    between atoms: C_17  and  C_18
REMARK    8  A    between atoms: N_23  and  C_24
REMARK    9  A    between atoms: C_31  and  C_33
REMARK                            x       y       z     vdW  Elec       q    Type
REMARK                         _______ _______ _______ _____ _____    ______ ____
ROOT
ATOM      1  N   UNL     1       1.025  -4.207  -3.273  0.00  0.00    -0.313 N 
ATOM      2  C   UNL     1       0.606  -5.616  -3.303  0.00  0.00    +0.122 C 
ATOM      3  C   UNL     1      -0.813  -5.690  -3.877  0.00  0.00    +0.104 C 
ATOM      4  N   UNL     1      -0.850  -5.003  -5.175  0.00  0.00    -0.294 NA
ATOM      5  C   UNL     1      -0.542  -3.574  -5.030  0.00  0.00    +0.104 C 
ATOM      6  C   UNL     1       0.882  -3.412  -4.503  0.00  0.00    +0.122 C 
ENDROOT
BRANCH   1  10
ATOM      7  C   UNL     1       3.248  -0.487  -0.940  0.00  0.00    +0.063 C 
ATOM      8  C   UNL     1       2.610  -1.852  -0.963  0.00  0.00    +0.017 A 
ATOM      9  C   UNL     1       2.117  -2.372  -2.143  0.00  0.00    +0.064 A 
ATOM     10  C   UNL     1       1.535  -3.641  -2.116  0.00  0.00    +0.125 A 
ATOM     11  N   UNL     1       1.477  -4.298  -0.961  0.00  0.00    -0.219 NA
ATOM     12  C   UNL     1       1.960  -3.763   0.142  0.00  0.00    +0.112 A 
ATOM     13  N   UNL     1       2.520  -2.569   0.148  0.00  0.00    -0.347 N 
ATOM     14  H   UNL     1       2.869  -2.210   0.978  0.00  0.00    +0.167 HD
BRANCH  12  15
ATOM     15  C   UNL     1       1.876  -4.538   1.431  0.00  0.00    +0.049 C 
ATOM     16  C   UNL     1       3.184  -5.300   1.654  0.00  0.00    +0.015 C 
ATOM     17  C   UNL     1       1.644  -3.572   2.594  0.00  0.00    +0.015 C 
ENDBRANCH  12  15
ENDBRANCH   1  10
BRANCH   4  18
ATOM     18  C   UNL     1      -2.146  -5.199  -5.837  0.00  0.00    +0.140 C 
BRANCH  18  19
ATOM     19  C   UNL     1      -2.066  -4.696  -7.256  0.00  0.00    +0.064 A 
ATOM     20  C   UNL     1      -1.793  -5.532  -8.289  0.00  0.00    +0.073 A 
ATOM     21  S   UNL     1      -1.833  -4.389  -9.660  0.00  0.00    -0.060 S 
ATOM     22  C   UNL     1      -2.186  -2.993  -8.790  0.00  0.00    +0.172 A 
ATOM     23  N   UNL     1      -2.264  -3.425  -7.549  0.00  0.00    -0.228 NA
ATOM     24  N   UNL     1      -2.361  -1.698  -9.267  0.00  0.00    -0.219 N 
ATOM     25  C   UNL     1      -2.586  -0.687  -8.404  0.00  0.00    +0.223 C 
ATOM     26  O   UNL     1      -2.720  -0.917  -7.221  0.00  0.00    -0.275 OA
ATOM     27  C   UNL     1      -2.672   0.730  -8.910  0.00  0.00    +0.110 C 
BRANCH  24  28
ATOM     28  C   UNL     1      -2.301  -1.444 -10.643  0.00  0.00    +0.043 A 
ATOM     29  C   UNL     1      -3.447  -1.066 -11.331  0.00  0.00    +0.025 A 
ATOM     30  C   UNL     1      -3.386  -0.817 -12.688  0.00  0.00    +0.022 A 
ATOM     31  C   UNL     1      -2.185  -0.944 -13.363  0.00  0.00    +0.041 A 
ATOM     32  C   UNL     1      -1.042  -1.321 -12.680  0.00  0.00    +0.022 A 
ATOM     33  C   UNL     1      -1.096  -1.565 -11.322  0.00  0.00    +0.025 A 
ATOM     34 CL   UNL     1      -2.111  -0.630 -15.068  0.00  0.00    -0.084 Cl
ENDBRANCH  24  28
ENDBRANCH  18  19
ENDBRANCH   4  18
TORSDOF 5
