REMARK  Name = ZINC01754100
REMARK  6 active torsions:
REMARK  status: ('A' for Active; 'I' for Inactive)
REMARK    1  A    between atoms: C_1  and  O_2
REMARK    2  A    between atoms: O_2  and  C_3
REMARK    3  A    between atoms: C_5  and  C_11
REMARK    4  A    between atoms: C_8  and  O_9
REMARK    5  A    between atoms: N_12  and  N_13
REMARK    6  A    between atoms: C_18  and  N_55
REMARK                            x       y       z     vdW  Elec       q    Type
REMARK                         _______ _______ _______ _____ _____    ______ ____
ROOT
ATOM      1  N   UNL     1      -1.718   6.219   3.636  0.00  0.00    -0.259 N 
ATOM      2  C   UNL     1      -2.325   6.730   2.397  0.00  0.00    +0.107 C 
ATOM      3  C   UNL     1      -1.785   5.914   1.218  0.00  0.00    -0.057 C 
ATOM      4  C   UNL     1       0.204   5.291   2.458  0.00  0.00    -0.057 C 
ATOM      5  C   UNL     1      -0.255   6.081   3.688  0.00  0.00    +0.107 C 
ATOM      6  N   UNL     1      -0.307   5.964   1.244  0.00  0.00    +0.389 N 
ATOM      7  H   UNL     1      -0.007   6.946   1.256  0.00  0.00    -0.080 HD
ENDROOT
BRANCH   6   8
ATOM      8  C   UNL     1       0.241   5.311   0.037  0.00  0.00    -0.005 C 
ATOM      9  C   UNL     1      -0.039   3.828   0.042  0.00  0.00    -0.049 A 
ATOM     10  C   UNL     1      -1.215   3.108   0.051  0.00  0.00    +0.003 A 
ATOM     11  C   UNL     1      -1.181   1.725   0.049  0.00  0.00    +0.000 A 
ATOM     12  C   UNL     1       0.033   1.061   0.047  0.00  0.00    +0.001 A 
ATOM     13  C   UNL     1       1.214   1.773   0.037  0.00  0.00    +0.009 A 
ATOM     14  C   UNL     1       1.187   3.169   0.034  0.00  0.00    -0.016 A 
ATOM     15  C   UNL     1       2.284   4.168   0.024  0.00  0.00    -0.016 A 
ATOM     16  C   UNL     1       1.744   5.451   0.025  0.00  0.00    -0.049 A 
ATOM     17  C   UNL     1       2.570   6.554   0.017  0.00  0.00    +0.003 A 
ATOM     18  C   UNL     1       3.944   6.390   0.006  0.00  0.00    +0.000 A 
ATOM     19  C   UNL     1       4.491   5.120   0.005  0.00  0.00    +0.001 A 
ATOM     20  C   UNL     1       3.671   4.010   0.014  0.00  0.00    +0.009 A 
ENDBRANCH   6   8
BRANCH   1  22
ATOM     21  C   UNL     1      -3.790   6.100   4.712  0.00  0.00    +0.138 C 
ATOM     22  N   UNL     1      -2.513   5.872   4.736  0.00  0.00    -0.192 NA
BRANCH  21  25
ATOM     23  C   UNL     1      -6.748   5.831   7.009  0.00  0.00    +0.163 A 
ATOM     24  C   UNL     1      -5.983   6.086   5.886  0.00  0.00    +0.059 A 
ATOM     25  C   UNL     1      -4.609   5.836   5.909  0.00  0.00    -0.001 A 
ATOM     26  C   UNL     1      -4.012   5.340   7.070  0.00  0.00    +0.028 A 
ATOM     27  C   UNL     1      -4.781   5.093   8.189  0.00  0.00    +0.063 A 
ATOM     28  C   UNL     1      -6.147   5.337   8.164  0.00  0.00    +0.173 A 
ATOM     29 BR   UNL     1      -3.972   4.421   9.761  0.00  0.00    -0.046 Br
BRANCH  23  31
ATOM     30  C   UNL     1      -8.637   6.575   5.771  0.00  0.00    +0.277 C 
ATOM     31  O   UNL     1      -8.087   6.068   6.988  0.00  0.00    -0.491 OA
ENDBRANCH  23  31
BRANCH  28  32
ATOM     32  O   UNL     1      -6.900   5.092   9.270  0.00  0.00    -0.503 OA
ATOM     33  H   UNL     1      -6.976   5.847   9.869  0.00  0.00    +0.292 HD
ENDBRANCH  28  32
ENDBRANCH  21  25
ENDBRANCH   1  22
TORSDOF 5
