REMARK  Name = ZINC06393481
REMARK  6 active torsions:
REMARK  status: ('A' for Active; 'I' for Inactive)
REMARK    1  A    between atoms: C_10  and  C_11
REMARK    2  A    between atoms: C_12  and  C_13
REMARK    3  A    between atoms: N_15  and  C_16
REMARK    4  A    between atoms: C_16  and  N_18
REMARK    5  A    between atoms: N_18  and  C_19
REMARK    6  A    between atoms: C_21  and  N_25
REMARK                            x       y       z     vdW  Elec       q    Type
REMARK                         _______ _______ _______ _____ _____    ______ ____
ROOT
ATOM      1  C   UNL     1       0.231  -0.642  -5.915  0.00  0.00    +0.242 C 
ATOM      2  O   UNL     1       0.248  -1.859  -5.922  0.00  0.00    -0.270 OA
ATOM      3  N   UNL     1       0.137   0.023  -4.747  0.00  0.00    -0.264 N 
ATOM      4  H   UNL     1       0.123   0.993  -4.741  0.00  0.00    +0.157 HD
ENDROOT
BRANCH   1   6
ATOM      5  C   UNL     1       0.407  -0.571  -8.344  0.00  0.00    +0.013 C 
ATOM      6  C   UNL     1       0.312   0.097  -7.173  0.00  0.00    +0.068 C 
BRANCH   5  16
ATOM      7  C   UNL     1       0.804  -1.812 -13.334  0.00  0.00    +0.001 A 
ATOM      8  C   UNL     1       0.729  -2.552 -12.156  0.00  0.00    +0.001 A 
ATOM      9  C   UNL     1       0.627  -1.933 -10.945  0.00  0.00    +0.009 A 
ATOM     10  C   UNL     1       0.598  -0.536 -10.883  0.00  0.00    -0.011 A 
ATOM     11  C   UNL     1       0.669   0.220 -12.079  0.00  0.00    -0.017 A 
ATOM     12  C   UNL     1       0.768  -0.451 -13.310  0.00  0.00    +0.008 A 
ATOM     13  C   UNL     1       0.646   1.623 -12.012  0.00  0.00    +0.008 A 
ATOM     14  C   UNL     1       0.549   2.261 -10.812  0.00  0.00    +0.001 A 
ATOM     15  C   UNL     1       0.470   1.563  -9.616  0.00  0.00    +0.008 A 
ATOM     16  C   UNL     1       0.489   0.171  -9.607  0.00  0.00    -0.017 A 
ENDBRANCH   5  16
ENDBRANCH   1   6
BRANCH   3  17
ATOM     17  C   UNL     1       0.061  -0.658  -3.587  0.00  0.00    +0.141 C 
ATOM     18  S   UNL     1       0.085  -2.370  -3.596  0.00  0.00    -0.018 S 
BRANCH  17  19
ATOM     19  N   UNL     1      -0.033   0.007  -2.418  0.00  0.00    -0.294 N 
ATOM     20  H   UNL     1      -0.110   0.974  -2.416  0.00  0.00    +0.154 HD
BRANCH  19  21
ATOM     21  C   UNL     1      -0.020  -0.697  -1.208  0.00  0.00    +0.082 A 
ATOM     22  C   UNL     1      -0.821  -1.818  -1.046  0.00  0.00    +0.059 A 
ATOM     23  C   UNL     1      -0.811  -2.508   0.151  0.00  0.00    +0.128 A 
ATOM     24  C   UNL     1      -0.000  -2.086   1.189  0.00  0.00    +0.036 A 
ATOM     25  C   UNL     1       0.805  -0.974   1.034  0.00  0.00    +0.055 A 
ATOM     26  C   UNL     1       0.801  -0.277  -0.164  0.00  0.00    +0.200 A 
ATOM     27  O   UNL     1       1.593   0.818  -0.318  0.00  0.00    -0.286 OA
BRANCH  23  28
ATOM     28  N   UNL     1      -1.671  -3.700   0.324  0.00  0.00    +0.056 N 
ATOM     29  O   UNL     1      -1.664  -4.309   1.379  0.00  0.00    -0.126 OA
ATOM     30  O   UNL     1      -2.387  -4.072  -0.589  0.00  0.00    -0.126 OA
ENDBRANCH  23  28
ENDBRANCH  19  21
ENDBRANCH  17  19
ENDBRANCH   3  17
TORSDOF 6
