REMARK  Name = ZINC12877315
REMARK  10 active torsions:
REMARK  status: ('A' for Active; 'I' for Inactive)
REMARK    1  A    between atoms: C_1  and  C_2
REMARK    2  A    between atoms: C_2  and  C_3
REMARK    3  A    between atoms: C_3  and  O_4
REMARK    4  A    between atoms: O_4  and  C_5
REMARK    5  A    between atoms: C_8  and  C_14
REMARK    6  A    between atoms: C_10  and  O_11
REMARK    7  A    between atoms: O_11  and  C_12
REMARK    8  A    between atoms: C_12  and  C_13
REMARK    9  A    between atoms: N_20  and  C_35
REMARK   10  A    between atoms: C_23  and  C_34
REMARK                            x       y       z     vdW  Elec       q    Type
REMARK                         _______ _______ _______ _____ _____    ______ ____
ROOT
ATOM      1  C   UNL     1       0.660  -0.472  -1.265  0.00  0.00    +0.069 C 
ATOM      2  C   UNL     1      -0.005  -0.002   0.037  0.00  0.00    +0.123 C 
ATOM      3  N   UNL     1      -0.019   1.462   0.027  0.00  0.00    -0.265 N 
ATOM      4  C   UNL     1      -1.035   2.325  -0.005  0.00  0.00    +0.317 C 
ATOM      5  O   UNL     1      -2.188   2.031   0.244  0.00  0.00    -0.252 OA
ATOM      6  N   UNL     1      -0.628   3.558  -0.346  0.00  0.00    -0.192 N 
ATOM      7  C   UNL     1       0.719   3.631  -0.429  0.00  0.00    +0.257 C 
ATOM      8  O   UNL     1       1.383   4.588  -0.768  0.00  0.00    -0.272 OA
ATOM      9  C   UNL     1       1.223   2.271  -0.010  0.00  0.00    +0.153 C 
ATOM     10  C   UNL     1       2.080   1.642  -1.082  0.00  0.00    +0.054 A 
ATOM     11  C   UNL     1       1.819   0.426  -1.615  0.00  0.00    -0.008 A 
ATOM     12  C   UNL     1       2.869   0.165  -2.583  0.00  0.00    +0.004 A 
ATOM     13  C   UNL     1       3.126  -0.923  -3.424  0.00  0.00    +0.010 A 
ATOM     14  C   UNL     1       4.233  -0.833  -4.232  0.00  0.00    +0.001 A 
ATOM     15  C   UNL     1       5.062   0.277  -4.223  0.00  0.00    +0.002 A 
ATOM     16  C   UNL     1       4.832   1.366  -3.400  0.00  0.00    +0.026 A 
ATOM     17  C   UNL     1       3.715   1.302  -2.568  0.00  0.00    +0.047 A 
ATOM     18  N   UNL     1       3.204   2.175  -1.652  0.00  0.00    -0.356 N 
ATOM     19  H   UNL     1       3.581   3.043  -1.438  0.00  0.00    +0.166 HD
ATOM     20  C   UNL     1       1.934   2.303   1.344  0.00  0.00    +0.048 C 
ENDROOT
BRANCH   6  21
ATOM     21  C   UNL     1      -1.492   4.635  -0.587  0.00  0.00    +0.048 A 
ATOM     22  C   UNL     1      -2.866   4.433  -0.609  0.00  0.00    +0.024 A 
ATOM     23  C   UNL     1      -3.716   5.496  -0.841  0.00  0.00    +0.005 A 
ATOM     24  C   UNL     1      -3.202   6.760  -1.062  0.00  0.00    +0.038 A 
ATOM     25  C   UNL     1      -1.832   6.965  -1.046  0.00  0.00    +0.125 A 
ATOM     26  C   UNL     1      -0.976   5.904  -0.809  0.00  0.00    +0.062 A 
ATOM     27  F   UNL     1      -1.332   8.201  -1.262  0.00  0.00    -0.205 F 
ENDBRANCH   6  21
BRANCH   1  31
ATOM     28  C   UNL     1      -2.212  -0.370  -4.433  0.00  0.00    +0.162 A 
ATOM     29  C   UNL     1      -1.889   0.791  -3.748  0.00  0.00    +0.050 A 
ATOM     30  C   UNL     1      -0.961   0.755  -2.725  0.00  0.00    +0.008 A 
ATOM     31  C   UNL     1      -0.352  -0.438  -2.382  0.00  0.00    -0.035 A 
ATOM     32  C   UNL     1      -0.665  -1.599  -3.064  0.00  0.00    +0.053 A 
ATOM     33  C   UNL     1      -1.599  -1.570  -4.087  0.00  0.00    +0.162 A 
BRANCH  28  34
ATOM     34  O   UNL     1      -3.125  -0.336  -5.440  0.00  0.00    -0.488 OA
BRANCH  34  35
ATOM     35  C   UNL     1      -3.713   0.932  -5.740  0.00  0.00    +0.229 C 
BRANCH  35  37
ATOM     36  C   UNL     1      -5.337   2.130  -7.213  0.00  0.00    +0.007 C 
ATOM     37  C   UNL     1      -4.707   0.773  -6.892  0.00  0.00    +0.038 C 
ENDBRANCH  35  37
ENDBRANCH  34  35
ENDBRANCH  28  34
BRANCH  33  38
ATOM     38  O   UNL     1      -1.912  -2.712  -4.756  0.00  0.00    -0.489 OA
BRANCH  38  39
ATOM     39  C   UNL     1      -1.244  -3.908  -4.347  0.00  0.00    +0.226 C 
ATOM     40  C   UNL     1      -1.722  -5.079  -5.208  0.00  0.00    +0.048 C 
ENDBRANCH  38  39
ENDBRANCH  33  38
ENDBRANCH   1  31
TORSDOF 7
