REMARK  Name = ZINC03385490
REMARK  6 active torsions:
REMARK  status: ('A' for Active; 'I' for Inactive)
REMARK    1  A    between atoms: C_1  and  C_2
REMARK    2  A    between atoms: C_2  and  C_4
REMARK    3  A    between atoms: C_2  and  N_55
REMARK    4  A    between atoms: N_6  and  C_7
REMARK    5  A    between atoms: N_16  and  S_19
REMARK    6  A    between atoms: S_19  and  C_22
REMARK                            x       y       z     vdW  Elec       q    Type
REMARK                         _______ _______ _______ _____ _____    ______ ____
ROOT
ATOM      1  C   UNL     1       4.099   0.189  -3.534  0.00  0.00    -0.060 C 
ATOM      2  C   UNL     1       4.625  -0.200  -2.149  0.00  0.00    +0.091 C 
ATOM      3  N   UNL     1       3.660  -1.117  -1.524  0.00  0.00    -0.180 NA
ATOM      4  C   UNL     1       3.221  -2.294  -2.289  0.00  0.00    +0.091 C 
ATOM      5  C   UNL     1       2.746  -1.819  -3.672  0.00  0.00    -0.060 C 
ATOM      6  N   UNL     1       3.836  -1.045  -4.306  0.00  0.00    +0.389 N 
ATOM      7  H   UNL     1       4.688  -1.619  -4.318  0.00  0.00    -0.081 HD
ENDROOT
BRANCH   3   8
ATOM      8  S   UNL     1       3.087  -0.836   0.005  0.00  0.00    +0.061 S 
ATOM      9  O   UNL     1       4.057  -0.031   0.660  0.00  0.00    -0.153 OA
ATOM     10  O   UNL     1       2.668  -2.093   0.519  0.00  0.00    -0.153 OA
BRANCH   8  11
ATOM     11  C   UNL     1       1.637   0.152  -0.155  0.00  0.00    +0.109 A 
ATOM     12  C   UNL     1       0.401  -0.453  -0.286  0.00  0.00    +0.032 A 
ATOM     13  C   UNL     1      -0.739   0.318  -0.413  0.00  0.00    +0.051 A 
ATOM     14  C   UNL     1      -0.645   1.702  -0.410  0.00  0.00    +0.162 A 
ATOM     15  C   UNL     1       0.598   2.310  -0.276  0.00  0.00    +0.164 A 
ATOM     16  C   UNL     1       1.738   1.530  -0.150  0.00  0.00    +0.078 A 
ATOM     17  O   UNL     1       0.712   3.667  -0.262  0.00  0.00    -0.485 OA
ATOM     18  C   UNL     1      -0.403   4.411  -0.764  0.00  0.00    +0.270 C 
ATOM     19  C   UNL     1      -1.685   3.825  -0.158  0.00  0.00    +0.270 C 
ATOM     20  O   UNL     1      -1.774   2.449  -0.545  0.00  0.00    -0.485 OA
ENDBRANCH   8  11
ENDBRANCH   3   8
BRANCH   6  22
ATOM     21  C   UNL     1       2.162   0.093  -5.726  0.00  0.00    -0.004 C 
ATOM     22  C   UNL     1       3.469  -0.703  -5.696  0.00  0.00    +0.017 C 
BRANCH  22  23
ATOM     23  C   UNL     1       3.300  -1.976  -6.483  0.00  0.00    +0.203 C 
ATOM     24  O   UNL     1       3.449  -3.050  -5.939  0.00  0.00    -0.277 OA
ATOM     25  N   UNL     1       2.982  -1.923  -7.792  0.00  0.00    -0.287 N 
ATOM     26  H   UNL     1       2.787  -1.069  -8.209  0.00  0.00    +0.155 HD
BRANCH  25  27
ATOM     27  C   UNL     1       2.933  -3.099  -8.549  0.00  0.00    +0.033 A 
ATOM     28  C   UNL     1       3.802  -4.144  -8.267  0.00  0.00    +0.024 A 
ATOM     29  C   UNL     1       3.748  -5.306  -9.012  0.00  0.00    +0.017 A 
ATOM     30  C   UNL     1       2.837  -5.424 -10.046  0.00  0.00    +0.018 A 
ATOM     31  C   UNL     1       1.974  -4.381 -10.333  0.00  0.00    +0.017 A 
ATOM     32  C   UNL     1       2.019  -3.220  -9.587  0.00  0.00    +0.024 A 
ATOM     33 BR   UNL     1       2.770  -7.013 -11.069  0.00  0.00    -0.050 Br
ENDBRANCH  25  27
ENDBRANCH  22  23
ENDBRANCH   6  22
TORSDOF 5
