REMARK  Name = ZINC16285005
REMARK  9 active torsions:
REMARK  status: ('A' for Active; 'I' for Inactive)
REMARK    1  A    between atoms: C_1  and  C_2
REMARK    2  A    between atoms: C_5  and  O_9
REMARK    3  A    between atoms: C_6  and  C_8
REMARK    4  A    between atoms: O_9  and  C_10
REMARK    5  A    between atoms: C_10  and  C_11
REMARK    6  A    between atoms: N_13  and  C_14
REMARK    7  A    between atoms: C_14  and  N_16
REMARK    8  A    between atoms: N_16  and  C_17
REMARK    9  A    between atoms: C_22  and  C_23
REMARK                            x       y       z     vdW  Elec       q    Type
REMARK                         _______ _______ _______ _____ _____    ______ ____
ROOT
ATOM      1  C   UNL     1       3.632  -0.938  -0.505  0.00  0.00    +0.256 C 
ATOM      2  O   UNL     1       4.557  -0.189  -0.738  0.00  0.00    -0.272 OA
ATOM      3  N   UNL     1       3.865  -2.244  -0.271  0.00  0.00    -0.265 N 
ATOM      4  H   UNL     1       3.125  -2.843  -0.084  0.00  0.00    +0.157 HD
ENDROOT
BRANCH   3   5
ATOM      5  C   UNL     1       5.126  -2.719  -0.297  0.00  0.00    +0.141 C 
ATOM      6  S   UNL     1       6.432  -1.663  -0.626  0.00  0.00    -0.018 S 
BRANCH   5   7
ATOM      7  N   UNL     1       5.359  -4.026  -0.063  0.00  0.00    -0.296 N 
ATOM      8  H   UNL     1       4.628  -4.611   0.192  0.00  0.00    +0.154 HD
BRANCH   7   9
ATOM      9  C   UNL     1       6.648  -4.536  -0.187  0.00  0.00    +0.047 A 
ATOM     10  C   UNL     1       7.720  -3.874   0.397  0.00  0.00    +0.025 A 
ATOM     11  C   UNL     1       8.997  -4.382   0.274  0.00  0.00    +0.016 A 
ATOM     12  C   UNL     1       9.221  -5.554  -0.432  0.00  0.00    +0.014 A 
ATOM     13  C   UNL     1       8.170  -6.224  -1.019  0.00  0.00    +0.031 A 
ATOM     14  C   UNL     1       6.870  -5.726  -0.897  0.00  0.00    +0.085 A 
ATOM     15  I   UNL     1      11.167  -6.308  -0.608  0.00  0.00    -0.044 I 
BRANCH  14  16
ATOM     16  C   UNL     1       5.740  -6.442  -1.516  0.00  0.00    +0.388 C 
ATOM     17  O   UNL     1       4.627  -5.955  -1.494  0.00  0.00    -0.241 OA
ATOM     18  O   UNL     1       5.942  -7.636  -2.107  0.00  0.00    -0.241 OA
ENDBRANCH  14  16
ENDBRANCH   7   9
ENDBRANCH   5   7
ENDBRANCH   3   5
BRANCH   1  19
ATOM     19  C   UNL     1       2.222  -0.407  -0.476  0.00  0.00    +0.325 C 
BRANCH  19  20
ATOM     20  O   UNL     1       2.235   0.995  -0.752  0.00  0.00    -0.483 OA
BRANCH  20  25
ATOM     21  C   UNL     1      -2.739   3.639  -0.802  0.00  0.00    +0.044 C 
ATOM     22  C   UNL     1      -1.408   2.931  -0.789  0.00  0.00    -0.050 A 
ATOM     23  C   UNL     1      -1.350   1.573  -0.533  0.00  0.00    +0.007 A 
ATOM     24  C   UNL     1      -0.131   0.924  -0.515  0.00  0.00    +0.046 A 
ATOM     25  C   UNL     1       1.035   1.633  -0.763  0.00  0.00    +0.124 A 
ATOM     26  C   UNL     1       0.974   2.994  -1.025  0.00  0.00    -0.009 A 
ATOM     27  C   UNL     1      -0.247   3.640  -1.037  0.00  0.00    +0.010 A 
ATOM     28  C   UNL     1       2.239   3.768  -1.295  0.00  0.00    +0.047 C 
ENDBRANCH  20  25
ENDBRANCH  19  20
ENDBRANCH   1  19
TORSDOF 7
