REMARK  Name = ZINC34757879
REMARK  5 active torsions:
REMARK  status: ('A' for Active; 'I' for Inactive)
REMARK    1  A    between atoms: C_7  and  C_9
REMARK    2  A    between atoms: C_9  and  S_10
REMARK    3  A    between atoms: S_10  and  C_11
REMARK    4  A    between atoms: N_26  and  C_29
REMARK    5  A    between atoms: C_29  and  C_30
REMARK                            x       y       z     vdW  Elec       q    Type
REMARK                         _______ _______ _______ _____ _____    ______ ____
ROOT
ATOM      1  C   UNL     1       4.381  -4.631   1.612  0.00  0.00    +0.191 A 
ATOM      2  N   UNL     1       5.403  -5.467   1.753  0.00  0.00    -0.206 NA
ATOM      3  C   UNL     1       5.229  -6.757   1.986  0.00  0.00    +0.134 A 
ATOM      4  C   UNL     1       3.905  -7.269   2.090  0.00  0.00    +0.051 A 
ATOM      5  C   UNL     1       3.480  -8.657   2.342  0.00  0.00    -0.025 A 
ATOM      6  C   UNL     1       2.159  -8.886   2.394  0.00  0.00    -0.004 A 
ATOM      7  S   UNL     1       1.402  -7.301   2.119  0.00  0.00    -0.073 S 
ATOM      8  C   UNL     1       2.872  -6.329   1.930  0.00  0.00    +0.115 A 
ATOM      9  N   UNL     1       3.127  -5.054   1.704  0.00  0.00    -0.214 NA
ATOM     10  C   UNL     1       1.843 -10.335   2.652  0.00  0.00    +0.043 C 
ATOM     11  C   UNL     1       3.156 -11.082   2.330  0.00  0.00    +0.010 C 
ATOM     12  C   UNL     1       4.208  -9.983   2.578  0.00  0.00    +0.037 C 
ATOM     13  N   UNL     1       6.318  -7.598   2.127  0.00  0.00    -0.318 N 
ATOM     14  C   UNL     1       6.957  -8.211   0.952  0.00  0.00    +0.088 C 
ATOM     15  C   UNL     1       8.466  -7.958   1.033  0.00  0.00    -0.059 C 
ATOM     16  N   UNL     1       8.975  -8.444   2.322  0.00  0.00    +0.387 N 
ATOM     17  C   UNL     1       8.384  -7.665   3.418  0.00  0.00    -0.059 C 
ATOM     18  C   UNL     1       6.875  -7.898   3.455  0.00  0.00    +0.088 C 
ATOM     19  H   UNL     1       8.731  -9.417   2.433  0.00  0.00    -0.081 HD
ENDROOT
BRANCH   1  20
ATOM     20  S   UNL     1       4.696  -2.925   1.304  0.00  0.00    -0.077 S 
BRANCH  20  21
ATOM     21  C   UNL     1       3.043  -2.186   1.194  0.00  0.00    +0.173 C 
BRANCH  21  28
ATOM     22  C   UNL     1      -0.097   1.341  -0.483  0.00  0.00    +0.003 C 
ATOM     23  C   UNL     1       1.336   1.838  -0.688  0.00  0.00    +0.019 C 
ATOM     24  C   UNL     1       2.172   1.495   0.548  0.00  0.00    +0.108 C 
ATOM     25  N   UNL     1       2.065   0.052   0.807  0.00  0.00    -0.301 N 
ATOM     26  C   UNL     1       0.728  -0.545   0.931  0.00  0.00    +0.108 C 
ATOM     27  C   UNL     1      -0.093  -0.179  -0.310  0.00  0.00    +0.019 C 
ATOM     28  C   UNL     1       3.171  -0.708   0.928  0.00  0.00    +0.226 C 
ATOM     29  O   UNL     1       4.268  -0.203   0.823  0.00  0.00    -0.275 OA
ENDBRANCH  21  28
ENDBRANCH  20  21
ENDBRANCH   1  20
BRANCH  16  30
ATOM     30  C   UNL     1      10.436  -8.302   2.355  0.00  0.00    +0.019 C 
BRANCH  30  31
ATOM     31  C   UNL     1      10.972  -8.912   3.624  0.00  0.00    +0.199 C 
ATOM     32  O   UNL     1      10.211  -9.415   4.424  0.00  0.00    -0.278 OA
ATOM     33  N   UNL     1      12.297  -8.898   3.872  0.00  0.00    -0.300 N 
ATOM     34  C   UNL     1      13.644  -8.518   3.441  0.00  0.00    +0.126 C 
ATOM     35  C   UNL     1      13.405  -9.247   4.765  0.00  0.00    +0.126 C 
ENDBRANCH  30  31
ENDBRANCH  16  30
TORSDOF 5
