REMARK  Name = ZINC01171686
REMARK  6 active torsions:
REMARK  status: ('A' for Active; 'I' for Inactive)
REMARK    1  A    between atoms: C_1  and  C_2
REMARK    2  A    between atoms: C_14  and  S_17
REMARK    3  A    between atoms: S_17  and  C_18
REMARK    4  A    between atoms: C_20  and  C_22
REMARK    5  A    between atoms: C_25  and  O_29
REMARK    6  A    between atoms: O_29  and  C_30
REMARK                            x       y       z     vdW  Elec       q    Type
REMARK                         _______ _______ _______ _____ _____    ______ ____
ROOT
ATOM      1  C   UNL     1      -1.386   1.212   2.269  0.00  0.00    +0.110 C 
ATOM      2  C   UNL     1      -1.877   2.005   1.085  0.00  0.00    +0.220 C 
ATOM      3  O   UNL     1      -2.949   2.571   1.137  0.00  0.00    -0.275 OA
ATOM      4  N   UNL     1      -1.126   2.084  -0.031  0.00  0.00    -0.231 N 
ATOM      5  C   UNL     1       0.113   1.435  -0.104  0.00  0.00    +0.049 A 
ATOM      6  C   UNL     1       0.203   0.057  -0.149  0.00  0.00    +0.024 A 
ATOM      7  C   UNL     1       1.442  -0.550  -0.249  0.00  0.00    +0.002 A 
ATOM      8  C   UNL     1       2.594   0.215  -0.305  0.00  0.00    +0.001 A 
ATOM      9  C   UNL     1       2.521   1.594  -0.256  0.00  0.00    +0.012 A 
ATOM     10  C   UNL     1       1.283   2.216  -0.150  0.00  0.00    +0.029 A 
ATOM     11  C   UNL     1       1.161   3.686  -0.069  0.00  0.00    +0.156 A 
ATOM     12  C   UNL     1       0.219   4.355  -0.883  0.00  0.00    +0.248 A 
ATOM     13  N   UNL     1       0.118   5.670  -0.790  0.00  0.00    -0.184 NA
ATOM     14  C   UNL     1       0.905   6.324   0.060  0.00  0.00    +0.212 A 
ATOM     15  N   UNL     1       1.787   5.678   0.811  0.00  0.00    -0.122 NA
ATOM     16  N   UNL     1       1.917   4.397   0.754  0.00  0.00    -0.141 NA
ATOM     17  O   UNL     1      -0.551   3.647  -1.742  0.00  0.00    -0.448 OA
ATOM     18  C   UNL     1      -1.590   2.848  -1.186  0.00  0.00    +0.303 C 
ENDROOT
BRANCH  18  19
ATOM     19  C   UNL     1      -2.091   1.892  -2.237  0.00  0.00    +0.013 A 
ATOM     20  C   UNL     1      -2.770   0.748  -1.861  0.00  0.00    +0.012 A 
ATOM     21  C   UNL     1      -3.231  -0.131  -2.822  0.00  0.00    +0.047 A 
ATOM     22  C   UNL     1      -3.012   0.135  -4.166  0.00  0.00    +0.134 A 
ATOM     23  C   UNL     1      -2.329   1.284  -4.541  0.00  0.00    +0.060 A 
ATOM     24  C   UNL     1      -1.875   2.162  -3.575  0.00  0.00    +0.028 A 
ATOM     25 BR   UNL     1      -2.028   1.651  -6.371  0.00  0.00    -0.047 Br
BRANCH  22  26
ATOM     26  O   UNL     1      -3.465  -0.728  -5.113  0.00  0.00    -0.494 OA
ATOM     27  C   UNL     1      -4.159  -1.890  -4.654  0.00  0.00    +0.277 C 
ENDBRANCH  22  26
ENDBRANCH  18  19
BRANCH  14  28
ATOM     28  S   UNL     1       0.775   8.076   0.188  0.00  0.00    -0.088 S 
ATOM     29  C   UNL     1       2.038   8.394   1.444  0.00  0.00    +0.093 C 
ENDBRANCH  14  28
TORSDOF 3
