REMARK  Name = ZINC48833133
REMARK  8 active torsions:
REMARK  status: ('A' for Active; 'I' for Inactive)
REMARK    1  A    between atoms: C_1  and  C_2
REMARK    2  A    between atoms: C_2  and  C_3
REMARK    3  A    between atoms: C_2  and  C_4
REMARK    4  A    between atoms: C_2  and  C_5
REMARK    5  A    between atoms: C_5  and  C_6
REMARK    6  A    between atoms: C_6  and  C_8
REMARK    7  A    between atoms: C_8  and  C_18
REMARK    8  A    between atoms: C_9  and  C_10
REMARK                            x       y       z     vdW  Elec       q    Type
REMARK                         _______ _______ _______ _____ _____    ______ ____
ROOT
ATOM      1  C   UNL     1       3.017  -0.282  -2.397  0.00  0.00    +0.095 C 
ATOM      2  C   UNL     1       4.322   0.166  -2.386  0.00  0.00    +0.030 C 
ENDROOT
BRANCH   2   3
ATOM      3  C   UNL     1       5.252  -0.258  -3.437  0.00  0.00    -0.021 A 
ATOM      4  C   UNL     1       4.787  -0.482  -4.740  0.00  0.00    +0.028 A 
ATOM      5  C   UNL     1       5.669  -0.880  -5.723  0.00  0.00    +0.043 A 
ATOM      6  C   UNL     1       7.011  -1.059  -5.425  0.00  0.00    +0.040 A 
ATOM      7  C   UNL     1       7.478  -0.840  -4.139  0.00  0.00    +0.043 A 
ATOM      8  C   UNL     1       6.611  -0.435  -3.146  0.00  0.00    +0.028 A 
ATOM      9 CL   UNL     1       9.161  -1.068  -3.780  0.00  0.00    -0.083 Cl
ATOM     10 CL   UNL     1       5.097  -1.159  -7.338  0.00  0.00    -0.083 Cl
ENDBRANCH   2   3
BRANCH   1  11
ATOM     11  C   UNL     1       2.046   0.270  -1.451  0.00  0.00    +0.174 C 
ATOM     12  O   UNL     1       2.388   1.121  -0.657  0.00  0.00    -0.291 OA
BRANCH  11  13
ATOM     13  C   UNL     1       0.620  -0.219  -1.464  0.00  0.00    +0.086 C 
BRANCH  13  15
ATOM     14  C   UNL     1      -0.155   2.017  -0.664  0.00  0.00    +0.011 C 
ATOM     15  C   UNL     1      -0.180   0.513  -0.385  0.00  0.00    -0.031 C 
ATOM     16  C   UNL     1       0.442   0.238   0.986  0.00  0.00    +0.011 C 
ATOM     17  C   UNL     1      -1.627   0.016  -0.397  0.00  0.00    +0.011 C 
ENDBRANCH  13  15
ENDBRANCH  11  13
ENDBRANCH   1  11
BRANCH   1  18
ATOM     18  C   UNL     1       2.613  -1.286  -3.334  0.00  0.00    +0.103 C 
ATOM     19  N   UNL     1       2.293  -2.083  -4.078  0.00  0.00    -0.191 NA
ENDBRANCH   1  18
TORSDOF 5
