REMARK  Name = ZINC67189304
REMARK  10 active torsions:
REMARK  status: ('A' for Active; 'I' for Inactive)
REMARK    1  A    between atoms: C_1  and  C_2
REMARK    2  A    between atoms: C_5  and  C_30
REMARK    3  A    between atoms: N_8  and  C_10
REMARK    4  A    between atoms: C_10  and  C_11
REMARK    5  A    between atoms: C_16  and  C_17
REMARK    6  A    between atoms: C_17  and  N_18
REMARK    7  A    between atoms: N_18  and  C_19
REMARK    8  A    between atoms: C_19  and  C_20
REMARK    9  A    between atoms: N_22  and  C_29
REMARK   10  A    between atoms: N_25  and  C_28
REMARK                            x       y       z     vdW  Elec       q    Type
REMARK                         _______ _______ _______ _____ _____    ______ ____
ROOT
ATOM      1  C   UNL     1       3.030  -2.175   2.475  0.00  0.00    -0.063 A 
ATOM      2  C   UNL     1       3.929  -3.101   1.980  0.00  0.00    +0.002 A 
ATOM      3  C   UNL     1       5.246  -2.739   1.766  0.00  0.00    +0.000 A 
ATOM      4  C   UNL     1       5.663  -1.451   2.047  0.00  0.00    +0.000 A 
ATOM      5  C   UNL     1       4.763  -0.525   2.542  0.00  0.00    +0.002 A 
ATOM      6  C   UNL     1       3.445  -0.886   2.751  0.00  0.00    -0.063 A 
ENDROOT
BRANCH   1   7
ATOM      7  C   UNL     1       1.594  -2.570   2.708  0.00  0.00    -0.043 C 
BRANCH   7  13
ATOM      8  C   UNL     1       1.432  -5.223  -1.403  0.00  0.00    +0.005 C 
ATOM      9  C   UNL     1       1.313  -5.274   0.121  0.00  0.00    -0.031 C 
ATOM     10  C   UNL     1      -0.065  -5.821   0.508  0.00  0.00    +0.003 C 
ATOM     11  C   UNL     1      -0.203  -5.795   2.033  0.00  0.00    -0.031 C 
ATOM     12  C   UNL     1       0.016  -4.367   2.535  0.00  0.00    -0.075 C 
ATOM     13  N   UNL     1       1.359  -3.912   2.157  0.00  0.00    +0.383 N 
ATOM     14  C   UNL     1       1.477  -3.865   0.695  0.00  0.00    -0.075 C 
ATOM     15  C   UNL     1       0.842  -6.723   2.656  0.00  0.00    +0.005 C 
ATOM     16  H   UNL     1       2.047  -4.551   2.528  0.00  0.00    -0.081 HD
ENDBRANCH   7  13
ENDBRANCH   1   7
BRANCH   6  17
ATOM     17  C   UNL     1       2.463   0.124   3.285  0.00  0.00    -0.046 C 
BRANCH  17  18
ATOM     18  N   UNL     1       2.228  -0.129   4.713  0.00  0.00    +0.385 N 
ATOM     19  H   UNL     1       1.853  -1.058   4.833  0.00  0.00    -0.085 HD
ATOM     20  H   UNL     1       3.098  -0.051   5.217  0.00  0.00    -0.085 HD
BRANCH  18  21
ATOM     21  C   UNL     1       1.270   0.856   5.234  0.00  0.00    -0.039 C 
BRANCH  21  22
ATOM     22  C   UNL     1       1.028   0.596   6.699  0.00  0.00    +0.016 A 
ATOM     23  C   UNL     1       1.727   1.270   7.637  0.00  0.00    +0.097 A 
ATOM     24  N   UNL     1       1.495   1.022   8.963  0.00  0.00    -0.303 N 
ATOM     25  C   UNL     1       0.578   0.112   9.339  0.00  0.00    +0.331 A 
ATOM     26  O   UNL     1       0.389  -0.093  10.523  0.00  0.00    -0.246 OA
ATOM     27  N   UNL     1      -0.133  -0.573   8.425  0.00  0.00    -0.264 N 
ATOM     28  C   UNL     1       0.062  -0.354   7.109  0.00  0.00    +0.258 A 
ATOM     29  O   UNL     1      -0.584  -0.970   6.281  0.00  0.00    -0.267 OA
ATOM     30  C   UNL     1      -1.125  -1.558   8.861  0.00  0.00    +0.157 C 
ATOM     31  C   UNL     1       2.253   1.752   9.981  0.00  0.00    +0.153 C 
ENDBRANCH  21  22
ENDBRANCH  18  21
ENDBRANCH  17  18
ENDBRANCH   6  17
TORSDOF 6
