REMARK  Name = ZINC24908918
REMARK  4 active torsions:
REMARK  status: ('A' for Active; 'I' for Inactive)
REMARK    1  A    between atoms: C_1  and  S_2
REMARK    2  A    between atoms: S_2  and  C_5
REMARK    3  A    between atoms: C_8  and  C_11
REMARK    4  A    between atoms: C_20  and  C_22
REMARK                            x       y       z     vdW  Elec       q    Type
REMARK                         _______ _______ _______ _____ _____    ______ ____
ROOT
ATOM      1  C   UNL     1      -1.489   0.868   1.676  0.00  0.00    +0.247 C 
ATOM      2  O   UNL     1      -1.995  -0.101   1.143  0.00  0.00    -0.270 OA
ATOM      3  N   UNL     1      -0.291   1.319   1.256  0.00  0.00    -0.296 N 
ATOM      4  C   UNL     1       0.274   2.517   1.772  0.00  0.00    +0.109 C 
ATOM      5  C   UNL     1      -0.228   3.825   1.077  0.00  0.00    +0.038 C 
ATOM      6  C   UNL     1      -0.379   3.512  -0.448  0.00  0.00    +0.109 C 
ATOM      7  N   UNL     1       0.627   2.662  -0.981  0.00  0.00    -0.296 N 
ATOM      8  C   UNL     1       0.310   1.214  -1.072  0.00  0.00    +0.127 C 
ATOM      9  C   UNL     1       0.498   0.587   0.232  0.00  0.00    +0.127 C 
ATOM     10  C   UNL     1       1.818   3.148  -1.385  0.00  0.00    +0.253 C 
ATOM     11  O   UNL     1       2.687   2.388  -1.769  0.00  0.00    -0.269 OA
ENDROOT
BRANCH  10  12
ATOM     12  C   UNL     1       2.065   4.591  -1.363  0.00  0.00    +0.076 A 
ATOM     13  C   UNL     1       3.153   5.287  -1.844  0.00  0.00    +0.036 A 
ATOM     14  C   UNL     1       3.182   6.665  -1.718  0.00  0.00    +0.027 A 
ATOM     15  C   UNL     1       2.084   7.285  -1.098  0.00  0.00    +0.027 A 
ATOM     16  S   UNL     1       1.031   5.890  -0.715  0.00  0.00    -0.083 S 
ATOM     17  C   UNL     1       2.122   8.672  -0.976  0.00  0.00    +0.023 A 
ATOM     18  C   UNL     1       3.186   9.357  -1.445  0.00  0.00    +0.047 A 
ATOM     19  S   UNL     1       4.224   8.067  -2.103  0.00  0.00    -0.096 S 
ENDBRANCH  10  12
BRANCH   1  23
ATOM     20  C   UNL     1      -3.498   2.828   4.864  0.00  0.00    +0.088 A 
ATOM     21  C   UNL     1      -3.834   1.527   4.535  0.00  0.00    +0.027 A 
ATOM     22  C   UNL     1      -3.186   0.884   3.501  0.00  0.00    +0.015 A 
ATOM     23  C   UNL     1      -2.189   1.550   2.786  0.00  0.00    +0.037 A 
ATOM     24  C   UNL     1      -1.851   2.861   3.127  0.00  0.00    +0.015 A 
ATOM     25  C   UNL     1      -2.510   3.493   4.160  0.00  0.00    +0.027 A 
BRANCH  20  27
ATOM     26  C   UNL     1      -3.348   3.261   7.662  0.00  0.00    +0.200 C 
ATOM     27  S   UNL     1      -4.332   3.642   6.187  0.00  0.00    -0.006 S 
ATOM     28  O   UNL     1      -4.236   5.025   5.878  0.00  0.00    -0.170 OA
ATOM     29  O   UNL     1      -5.598   3.002   6.264  0.00  0.00    -0.170 OA
ENDBRANCH  20  27
ENDBRANCH   1  23
TORSDOF 3
