REMARK  Name = ZINC38634927
REMARK  4 active torsions:
REMARK  status: ('A' for Active; 'I' for Inactive)
REMARK    1  A    between atoms: C_1  and  C_2
REMARK    2  A    between atoms: C_4  and  S_9
REMARK    3  A    between atoms: S_9  and  N_12
REMARK    4  A    between atoms: C_22  and  C_24
REMARK                            x       y       z     vdW  Elec       q    Type
REMARK                         _______ _______ _______ _____ _____    ______ ____
ROOT
ATOM      1  N   UNL     1       1.596  -3.097  -3.288  0.00  0.00    -0.144 NA
ATOM      2  C   UNL     1       2.364  -2.109  -4.078  0.00  0.00    +0.140 C 
ATOM      3  C   UNL     1       3.832  -2.532  -3.821  0.00  0.00    +0.179 C 
ATOM      4  O   UNL     1       3.733  -3.974  -3.761  0.00  0.00    -0.356 OA
ATOM      5  C   UNL     1       2.494  -4.245  -3.087  0.00  0.00    +0.145 C 
ATOM      6  C   UNL     1       2.753  -4.440  -1.592  0.00  0.00    +0.072 C 
ATOM      7  C   UNL     1       1.423  -4.699  -0.876  0.00  0.00    +0.112 C 
ATOM      8  N   UNL     1       0.747  -5.828  -1.530  0.00  0.00    -0.300 N 
ATOM      9  C   UNL     1       0.521  -5.773  -2.980  0.00  0.00    +0.112 C 
ATOM     10  C   UNL     1       1.859  -5.504  -3.677  0.00  0.00    +0.072 C 
ATOM     11  C   UNL     1       0.341  -6.894  -0.811  0.00  0.00    +0.228 C 
ATOM     12  O   UNL     1       0.445  -6.886   0.397  0.00  0.00    -0.275 OA
ENDROOT
BRANCH  11  13
ATOM     13  C   UNL     1      -0.242  -8.095  -1.510  0.00  0.00    +0.142 C 
ATOM     14  C   UNL     1       0.189  -9.345  -0.793  0.00  0.00    +0.011 A 
ATOM     15  C   UNL     1       1.469  -9.834  -0.991  0.00  0.00    +0.008 A 
ATOM     16  C   UNL     1       1.884 -10.981  -0.342  0.00  0.00    +0.001 A 
ATOM     17  C   UNL     1       1.020 -11.646   0.509  0.00  0.00    +0.004 A 
ATOM     18  C   UNL     1      -0.258 -11.163   0.710  0.00  0.00    +0.046 A 
ATOM     19  C   UNL     1      -0.678 -10.009   0.059  0.00  0.00    +0.133 A 
ATOM     20  O   UNL     1      -1.936  -9.552   0.268  0.00  0.00    -0.455 OA
ATOM     21  C   UNL     1      -2.513  -8.719  -0.631  0.00  0.00    +0.133 A 
ATOM     22  C   UNL     1      -1.743  -7.985  -1.519  0.00  0.00    +0.011 A 
ATOM     23  C   UNL     1      -2.356  -7.140  -2.428  0.00  0.00    +0.008 A 
ATOM     24  C   UNL     1      -3.732  -7.026  -2.452  0.00  0.00    +0.001 A 
ATOM     25  C   UNL     1      -4.503  -7.757  -1.567  0.00  0.00    +0.004 A 
ATOM     26  C   UNL     1      -3.898  -8.601  -0.658  0.00  0.00    +0.046 A 
ENDBRANCH  11  13
BRANCH   1  27
ATOM     27  S   UNL     1       0.043  -2.940  -2.735  0.00  0.00    +0.063 S 
ATOM     28  O   UNL     1      -0.240  -4.110  -1.979  0.00  0.00    -0.153 OA
ATOM     29  O   UNL     1      -0.746  -2.543  -3.848  0.00  0.00    -0.153 OA
BRANCH  27  33
ATOM     30  C   UNL     1      -0.173   2.177  -1.695  0.00  0.00    +0.047 C 
ATOM     31  C   UNL     1      -0.075   0.764  -1.182  0.00  0.00    -0.013 A 
ATOM     32  C   UNL     1      -0.063  -0.295  -2.071  0.00  0.00    +0.034 A 
ATOM     33  C   UNL     1       0.027  -1.592  -1.601  0.00  0.00    +0.106 A 
ATOM     34  C   UNL     1       0.105  -1.832  -0.241  0.00  0.00    +0.031 A 
ATOM     35  C   UNL     1       0.093  -0.775   0.649  0.00  0.00    +0.040 A 
ATOM     36  C   UNL     1       0.008   0.525   0.179  0.00  0.00    +0.126 A 
ATOM     37  F   UNL     1       0.001   1.559   1.049  0.00  0.00    -0.205 F 
ENDBRANCH  27  33
ENDBRANCH   1  27
TORSDOF 3
