REMARK  Name = ZINC38990167
REMARK  10 active torsions:
REMARK  status: ('A' for Active; 'I' for Inactive)
REMARK    1  A    between atoms: C_1  and  C_2
REMARK    2  A    between atoms: C_5  and  C_8
REMARK    3  A    between atoms: C_10  and  C_14
REMARK    4  A    between atoms: C_18  and  S_22
REMARK    5  A    between atoms: N_20  and  N_21
REMARK    6  A    between atoms: S_22  and  C_23
REMARK    7  A    between atoms: C_23  and  C_24
REMARK    8  A    between atoms: N_26  and  C_27
REMARK    9  A    between atoms: C_30  and  N_33
REMARK   10  A    between atoms: C_34  and  C_36
REMARK                            x       y       z     vdW  Elec       q    Type
REMARK                         _______ _______ _______ _____ _____    ______ ____
ROOT
ATOM      1  C   UNL     1      -1.205  -7.257   0.956  0.00  0.00    +0.185 C 
ATOM      2  N   UNL     1      -1.279  -7.299   2.440  0.00  0.00    -0.234 NA
ATOM      3  N   UNL     1      -2.095  -8.480   2.734  0.00  0.00    -0.228 NA
ATOM      4  C   UNL     1      -1.987  -9.376   1.565  0.00  0.00    +0.214 C 
ATOM      5  N   UNL     1      -1.106  -8.694   0.586  0.00  0.00    -0.197 NA
ATOM      6  H   UNL     1      -1.709  -6.462   2.804  0.00  0.00    +0.143 HD
ATOM      7  H   UNL     1      -3.055  -8.222   2.905  0.00  0.00    +0.143 HD
ENDROOT
BRANCH   1  10
ATOM      8  C   UNL     1       0.004  -4.308  -0.076  0.00  0.00    +0.091 C 
ATOM      9  C   UNL     1       0.023  -5.072   1.034  0.00  0.00    +0.034 C 
ATOM     10  C   UNL     1       0.039  -6.492   0.497  0.00  0.00    +0.187 C 
ATOM     11  N   UNL     1       0.025  -6.300  -0.963  0.00  0.00    -0.176 NA
ATOM     12  N   UNL     1       0.001  -5.088  -1.189  0.00  0.00    -0.154 NA
BRANCH   8  17
ATOM     13  C   UNL     1      -0.075   1.450  -0.100  0.00  0.00    +0.044 C 
ATOM     14  C   UNL     1      -0.055  -0.057  -0.094  0.00  0.00    -0.050 A 
ATOM     15  C   UNL     1      -0.059  -0.751  -1.290  0.00  0.00    +0.004 A 
ATOM     16  C   UNL     1      -0.040  -2.131  -1.290  0.00  0.00    +0.010 A 
ATOM     17  C   UNL     1      -0.016  -2.825  -0.082  0.00  0.00    +0.002 A 
ATOM     18  C   UNL     1      -0.011  -2.120   1.120  0.00  0.00    +0.010 A 
ATOM     19  C   UNL     1      -0.025  -0.740   1.109  0.00  0.00    +0.004 A 
ENDBRANCH   8  17
ENDBRANCH   1  10
BRANCH   5  20
ATOM     20  N   UNL     1      -1.565  -8.913  -0.776  0.00  0.00    -0.264 NA
ATOM     21  H   UNL     1      -1.498  -9.888  -1.028  0.00  0.00    +0.137 HD
ATOM     22  H   UNL     1      -2.506  -8.572  -0.900  0.00  0.00    +0.137 HD
ENDBRANCH   5  20
BRANCH   4  23
ATOM     23  S   UNL     1      -1.260 -10.962   2.062  0.00  0.00    -0.115 S 
BRANCH  23  24
ATOM     24  C   UNL     1       0.351 -10.506   2.761  0.00  0.00    +0.168 C 
BRANCH  24  25
ATOM     25  C   UNL     1       1.069 -11.749   3.219  0.00  0.00    +0.227 C 
ATOM     26  O   UNL     1       0.546 -12.835   3.087  0.00  0.00    -0.275 OA
ATOM     27  N   UNL     1       2.293 -11.653   3.775  0.00  0.00    -0.285 N 
ATOM     28  H   UNL     1       2.740 -10.793   3.820  0.00  0.00    +0.155 HD
BRANCH  27  29
ATOM     29  C   UNL     1       2.920 -12.796   4.289  0.00  0.00    +0.034 A 
ATOM     30  C   UNL     1       3.714 -12.701   5.425  0.00  0.00    +0.025 A 
ATOM     31  C   UNL     1       4.332 -13.826   5.931  0.00  0.00    +0.025 A 
ATOM     32  C   UNL     1       4.159 -15.054   5.305  0.00  0.00    +0.033 A 
ATOM     33  C   UNL     1       3.365 -15.149   4.170  0.00  0.00    +0.025 A 
ATOM     34  C   UNL     1       2.743 -14.024   3.667  0.00  0.00    +0.025 A 
BRANCH  32  35
ATOM     35  N   UNL     1       4.787 -16.196   5.819  0.00  0.00    -0.286 N 
ATOM     36  C   UNL     1       5.240 -17.150   4.981  0.00  0.00    +0.214 C 
ATOM     37  O   UNL     1       5.032 -17.060   3.790  0.00  0.00    -0.276 OA
ATOM     38  C   UNL     1       6.007 -18.328   5.526  0.00  0.00    +0.109 C 
ATOM     39  H   UNL     1       4.894 -16.301   6.777  0.00  0.00    +0.155 HD
ENDBRANCH  32  35
ENDBRANCH  27  29
ENDBRANCH  24  25
ENDBRANCH  23  24
ENDBRANCH   4  23
TORSDOF 8
