REMARK  Name = ZINC02914835
REMARK  2 active torsions:
REMARK  status: ('A' for Active; 'I' for Inactive)
REMARK    1  A    between atoms: C_6  and  C_7
REMARK    2  A    between atoms: C_9  and  C_17
REMARK                            x       y       z     vdW  Elec       q    Type
REMARK                         _______ _______ _______ _____ _____    ______ ____
ROOT
ATOM      1  C   UNL     1      -1.260  -0.760   0.011  0.00  0.00    +0.055 C 
ATOM      2  C   UNL     1      -1.199  -2.261   0.008  0.00  0.00    +0.088 C 
ATOM      3  C   UNL     1      -2.362  -2.867   0.802  0.00  0.00    +0.151 C 
ATOM      4  N   UNL     1      -3.572  -2.115   0.477  0.00  0.00    -0.202 N 
ATOM      5  C   UNL     1      -3.550  -0.793   0.119  0.00  0.00    +0.270 A 
ATOM      6  N   UNL     1      -4.791  -0.437  -0.085  0.00  0.00    -0.088 NA
ATOM      7  N   UNL     1      -5.582  -1.436   0.110  0.00  0.00    -0.021 NA
ATOM      8  N   UNL     1      -4.911  -2.490   0.451  0.00  0.00    -0.042 NA
ATOM      9  N   UNL     1      -2.385  -0.099   0.025  0.00  0.00    -0.214 NA
ENDROOT
BRANCH   3  10
ATOM     10  C   UNL     1      -2.079  -2.764   2.279  0.00  0.00    +0.014 A 
ATOM     11  C   UNL     1      -1.897  -1.524   2.863  0.00  0.00    +0.023 A 
ATOM     12  C   UNL     1      -1.637  -1.430   4.218  0.00  0.00    +0.018 A 
ATOM     13  C   UNL     1      -1.559  -2.575   4.990  0.00  0.00    +0.018 A 
ATOM     14  C   UNL     1      -1.741  -3.815   4.407  0.00  0.00    +0.040 A 
ATOM     15  C   UNL     1      -2.007  -3.910   3.051  0.00  0.00    +0.129 A 
ATOM     16  F   UNL     1      -2.190  -5.122   2.482  0.00  0.00    -0.205 F 
ATOM     17 BR   UNL     1      -1.388   0.267   5.016  0.00  0.00    -0.050 Br
ENDBRANCH   3  10
BRANCH   1  23
ATOM     18  C   UNL     1      -0.017   1.395   0.010  0.00  0.00    +0.011 A 
ATOM     19  C   UNL     1       1.169   2.096   0.002  0.00  0.00    +0.016 A 
ATOM     20  C   UNL     1       2.378   1.420  -0.013  0.00  0.00    +0.018 A 
ATOM     21  C   UNL     1       2.405   0.035  -0.022  0.00  0.00    +0.016 A 
ATOM     22  C   UNL     1       1.227  -0.680  -0.014  0.00  0.00    +0.011 A 
ATOM     23  C   UNL     1       0.002  -0.004   0.002  0.00  0.00    -0.003 A 
ATOM     24 BR   UNL     1       4.000   2.393  -0.024  0.00  0.00    -0.050 Br
ENDBRANCH   1  23
TORSDOF 2
