REMARK  Name = ZINC32931137
REMARK  11 active torsions:
REMARK  status: ('A' for Active; 'I' for Inactive)
REMARK    1  A    between atoms: C_1  and  C_2
REMARK    2  A    between atoms: C_2  and  C_4
REMARK    3  A    between atoms: C_7  and  O_33
REMARK    4  A    between atoms: C_8  and  C_10
REMARK    5  A    between atoms: C_10  and  C_11
REMARK    6  A    between atoms: N_13  and  C_14
REMARK    7  A    between atoms: C_14  and  C_16
REMARK    8  A    between atoms: C_14  and  C_23
REMARK    9  A    between atoms: C_16  and  N_17
REMARK   10  A    between atoms: C_27  and  C_29
REMARK   11  A    between atoms: O_33  and  C_34
REMARK                            x       y       z     vdW  Elec       q    Type
REMARK                         _______ _______ _______ _____ _____    ______ ____
ROOT
ATOM      1  C   UNL     1       2.451   3.937   0.001  0.00  0.00    +0.120 C 
ENDROOT
BRANCH   1   2
ATOM      2  C   UNL     1       1.156   3.166   0.008  0.00  0.00    -0.025 A 
ATOM      3  C   UNL     1       1.175   1.783   0.000  0.00  0.00    +0.005 A 
ATOM      4  C   UNL     1      -0.013   1.076   0.008  0.00  0.00    +0.001 A 
ATOM      5  C   UNL     1      -1.219   1.751   0.017  0.00  0.00    +0.012 A 
ATOM      6  C   UNL     1      -1.238   3.133   0.029  0.00  0.00    +0.055 A 
ATOM      7  C   UNL     1      -0.050   3.840   0.023  0.00  0.00    +0.018 A 
BRANCH   6   8
ATOM      8  C   UNL     1      -2.553   3.868   0.046  0.00  0.00    +0.417 C 
ATOM      9  F   UNL     1      -2.972   4.104  -1.268  0.00  0.00    -0.166 F 
ATOM     10  F   UNL     1      -3.512   3.095   0.710  0.00  0.00    -0.166 F 
ATOM     11  F   UNL     1      -2.396   5.089   0.711  0.00  0.00    -0.166 F 
ENDBRANCH   6   8
ENDBRANCH   1   2
BRANCH   1  14
ATOM     12  C   UNL     1       4.423   3.981   1.431  0.00  0.00    +0.218 C 
ATOM     13  O   UNL     1       4.524   5.169   1.205  0.00  0.00    -0.275 OA
ATOM     14  N   UNL     1       3.420   3.273   0.877  0.00  0.00    -0.307 N 
ATOM     15  H   UNL     1       3.328   2.196   1.081  0.00  0.00    +0.149 HD
BRANCH  12  16
ATOM     16  C   UNL     1       5.419   3.298   2.332  0.00  0.00    +0.134 C 
BRANCH  16  21
ATOM     17  C   UNL     1       8.563   5.390   2.609  0.00  0.00    +0.018 A 
ATOM     18  C   UNL     1       8.275   6.170   3.736  0.00  0.00    +0.015 A 
ATOM     19  C   UNL     1       7.085   6.015   4.388  0.00  0.00    +0.046 A 
ATOM     20  C   UNL     1       6.152   5.088   3.932  0.00  0.00    +0.124 A 
ATOM     21  C   UNL     1       6.431   4.305   2.817  0.00  0.00    +0.004 A 
ATOM     22  C   UNL     1       7.627   4.453   2.154  0.00  0.00    +0.019 A 
BRANCH  17  24
ATOM     23  C   UNL     1      10.847   6.565   2.398  0.00  0.00    +0.091 C 
ATOM     24  C   UNL     1       9.842   5.556   1.906  0.00  0.00    +0.160 C 
ATOM     25  O   UNL     1      10.090   4.880   0.930  0.00  0.00    -0.292 OA
ENDBRANCH  17  24
BRANCH  20  26
ATOM     26  O   UNL     1       4.970   4.944   4.581  0.00  0.00    -0.495 OA
ATOM     27  C   UNL     1       4.748   5.780   5.719  0.00  0.00    +0.277 C 
ENDBRANCH  20  26
ENDBRANCH  16  21
ENDBRANCH  12  16
ENDBRANCH   1  14
BRANCH   1  28
ATOM     28  C   UNL     1       3.005   3.990  -1.424  0.00  0.00    +0.134 C 
BRANCH  28  29
ATOM     29  N   UNL     1       4.320   4.635  -1.413  0.00  0.00    -0.299 N 
ATOM     30  C   UNL     1       5.591   3.921  -1.243  0.00  0.00    +0.108 C 
ATOM     31  C   UNL     1       6.625   5.005  -0.863  0.00  0.00    +0.028 C 
ATOM     32  C   UNL     1       5.996   6.272  -1.487  0.00  0.00    +0.097 C 
ATOM     33  C   UNL     1       4.518   5.956  -1.564  0.00  0.00    +0.216 C 
ATOM     34  O   UNL     1       3.640   6.775  -1.734  0.00  0.00    -0.276 OA
ENDBRANCH  28  29
ENDBRANCH   1  28
TORSDOF 9
