REMARK  Name = ZINC64338157
REMARK  6 active torsions:
REMARK  status: ('A' for Active; 'I' for Inactive)
REMARK    1  A    between atoms: C_4  and  C_7
REMARK    2  A    between atoms: C_9  and  C_17
REMARK    3  A    between atoms: C_17  and  C_19
REMARK    4  A    between atoms: C_17  and  C_29
REMARK    5  A    between atoms: C_19  and  N_20
REMARK    6  A    between atoms: C_21  and  C_23
REMARK                            x       y       z     vdW  Elec       q    Type
REMARK                         _______ _______ _______ _____ _____    ______ ____
ROOT
ATOM      1  C   UNL     1       4.260  -0.370   2.586  0.00  0.00    +0.065 C 
ENDROOT
BRANCH   1   3
ATOM      2  C   UNL     1       3.769  -0.720  -0.047  0.00  0.00    +0.137 C 
ATOM      3  C   UNL     1       4.143  -1.203   1.336  0.00  0.00    -0.025 C 
ATOM      4  C   UNL     1       4.352  -2.535   1.224  0.00  0.00    +0.000 A 
ATOM      5  C   UNL     1       4.737  -3.566   2.195  0.00  0.00    +0.010 A 
ATOM      6  C   UNL     1       4.872  -4.845   1.776  0.00  0.00    +0.001 A 
ATOM      7  C   UNL     1       4.656  -5.208   0.439  0.00  0.00    +0.002 A 
ATOM      8  C   UNL     1       4.301  -4.318  -0.511  0.00  0.00    +0.026 A 
ATOM      9  C   UNL     1       4.129  -2.945  -0.181  0.00  0.00    +0.043 A 
ATOM     10  N   UNL     1       3.796  -1.906  -0.910  0.00  0.00    -0.374 N 
ATOM     11  H   UNL     1       3.600  -1.920  -1.860  0.00  0.00    +0.161 HD
BRANCH   2  15
ATOM     12  C   UNL     1      -0.150   0.979  -0.005  0.00  0.00    +0.000 A 
ATOM     13  C   UNL     1       0.960   1.802   0.009  0.00  0.00    +0.000 A 
ATOM     14  C   UNL     1       2.228   1.252  -0.004  0.00  0.00    +0.006 A 
ATOM     15  C   UNL     1       2.386  -0.121  -0.031  0.00  0.00    -0.021 A 
ATOM     16  C   UNL     1       1.276  -0.944  -0.044  0.00  0.00    +0.006 A 
ATOM     17  C   UNL     1       0.007  -0.394  -0.032  0.00  0.00    +0.000 A 
ENDBRANCH   2  15
ENDBRANCH   1   3
BRANCH   1  18
ATOM     18  C   UNL     1       5.440   0.559   2.462  0.00  0.00    -0.039 A 
ATOM     19  C   UNL     1       6.709   0.044   2.280  0.00  0.00    +0.004 A 
ATOM     20  C   UNL     1       7.792   0.896   2.166  0.00  0.00    +0.000 A 
ATOM     21  C   UNL     1       7.604   2.264   2.234  0.00  0.00    +0.000 A 
ATOM     22  C   UNL     1       6.335   2.780   2.416  0.00  0.00    +0.000 A 
ATOM     23  C   UNL     1       5.252   1.927   2.526  0.00  0.00    +0.004 A 
ENDBRANCH   1  18
BRANCH   1  24
ATOM     24  C   UNL     1       4.458  -1.287   3.794  0.00  0.00    +0.117 C 
BRANCH  24  25
ATOM     25  N   UNL     1       4.425  -0.491   5.023  0.00  0.00    -0.309 N 
ATOM     26  C   UNL     1       4.579  -1.091   6.220  0.00  0.00    +0.264 C 
ATOM     27  O   UNL     1       4.746  -2.293   6.280  0.00  0.00    -0.268 OA
ATOM     28  H   UNL     1       4.292   0.469   4.976  0.00  0.00    +0.149 HD
BRANCH  26  29
ATOM     29  C   UNL     1       4.546  -0.285   7.463  0.00  0.00    +0.143 A 
ATOM     30  C   UNL     1       4.711  -0.904   8.702  0.00  0.00    +0.143 A 
ATOM     31  N   UNL     1       4.681  -0.181   9.807  0.00  0.00    -0.259 NA
ATOM     32  C   UNL     1       4.494   1.125   9.739  0.00  0.00    +0.130 A 
ATOM     33  C   UNL     1       4.329   1.743   8.508  0.00  0.00    +0.131 A 
ATOM     34  N   UNL     1       4.363   1.031   7.400  0.00  0.00    -0.247 NA
ENDBRANCH  26  29
ENDBRANCH  24  25
ENDBRANCH   1  24
TORSDOF 6
