REMARK  Name = ZINC10040237
REMARK  10 active torsions:
REMARK  status: ('A' for Active; 'I' for Inactive)
REMARK    1  A    between atoms: C_1  and  C_2
REMARK    2  A    between atoms: C_2  and  C_3
REMARK    3  A    between atoms: C_2  and  C_4
REMARK    4  A    between atoms: C_4  and  C_6
REMARK    5  A    between atoms: C_4  and  N_21
REMARK    6  A    between atoms: N_8  and  N_9
REMARK    7  A    between atoms: N_9  and  C_10
REMARK    8  A    between atoms: C_15  and  O_18
REMARK    9  A    between atoms: O_18  and  C_19
REMARK   10  A    between atoms: C_22  and  C_24
REMARK                            x       y       z     vdW  Elec       q    Type
REMARK                         _______ _______ _______ _____ _____    ______ ____
ROOT
ATOM      1  C   UNL     1      -1.280  -2.049   0.111  0.00  0.00    +0.250 C 
ATOM      2  O   UNL     1      -1.694  -2.794  -0.751  0.00  0.00    -0.272 OA
ATOM      3  N   UNL     1      -0.754  -2.556   1.244  0.00  0.00    -0.235 N 
ATOM      4  H   UNL     1      -0.356  -1.964   1.901  0.00  0.00    +0.173 HD
ENDROOT
BRANCH   3   5
ATOM      5  N   UNL     1      -0.780  -3.938   1.471  0.00  0.00    -0.271 N 
ATOM      6  H   UNL     1      -1.177  -4.530   0.814  0.00  0.00    +0.169 HD
BRANCH   5   7
ATOM      7  C   UNL     1      -0.256  -4.442   2.599  0.00  0.00    +0.099 C 
ATOM      8  C   UNL     1      -0.282  -5.820   2.825  0.00  0.00    +0.041 C 
ATOM      9  C   UNL     1      -0.852  -6.698   1.874  0.00  0.00    +0.028 C 
ATOM     10  C   UNL     1      -0.868  -8.036   2.111  0.00  0.00    +0.022 C 
ATOM     11  C   UNL     1      -0.334  -8.576   3.279  0.00  0.00    +0.065 C 
ATOM     12  C   UNL     1       0.230  -7.786   4.237  0.00  0.00    +0.168 C 
ATOM     13  C   UNL     1       0.287  -6.389   4.053  0.00  0.00    +0.229 C 
ATOM     14  O   UNL     1       0.794  -5.666   4.900  0.00  0.00    -0.283 OA
ATOM     15 BR   UNL     1      -1.635  -9.192   0.826  0.00  0.00    -0.050 Br
BRANCH  12  16
ATOM     16  O   UNL     1       0.742  -8.345   5.366  0.00  0.00    -0.491 OA
ATOM     17  C   UNL     1       0.656  -9.767   5.483  0.00  0.00    +0.277 C 
ENDBRANCH  12  16
ENDBRANCH   5   7
ENDBRANCH   3   5
BRANCH   1  18
ATOM     18  C   UNL     1      -1.354  -0.556  -0.083  0.00  0.00    +0.163 C 
BRANCH  18  19
ATOM     19  N   UNL     1      -2.371  -0.245  -1.091  0.00  0.00    -0.300 N 
ATOM     20  C   UNL     1      -2.976   0.959  -1.088  0.00  0.00    +0.245 C 
ATOM     21  O   UNL     1      -2.679   1.787  -0.249  0.00  0.00    -0.270 OA
ATOM     22  H   UNL     1      -2.609  -0.906  -1.760  0.00  0.00    +0.150 HD
BRANCH  20  23
ATOM     23  C   UNL     1      -4.002   1.273  -2.104  0.00  0.00    +0.037 A 
ATOM     24  C   UNL     1      -4.351   0.322  -3.065  0.00  0.00    +0.014 A 
ATOM     25  C   UNL     1      -5.309   0.621  -4.011  0.00  0.00    +0.021 A 
ATOM     26  C   UNL     1      -5.925   1.862  -4.008  0.00  0.00    +0.041 A 
ATOM     27  C   UNL     1      -5.584   2.809  -3.057  0.00  0.00    +0.021 A 
ATOM     28  C   UNL     1      -4.631   2.520  -2.103  0.00  0.00    +0.014 A 
ATOM     29 CL   UNL     1      -7.130   2.231  -5.202  0.00  0.00    -0.084 Cl
ENDBRANCH  20  23
ENDBRANCH  18  19
BRANCH  18  31
ATOM     30  C   UNL     1       0.314  -0.596  -1.943  0.00  0.00    +0.009 C 
ATOM     31  C   UNL     1       0.005  -0.035  -0.553  0.00  0.00    +0.012 C 
ATOM     32  C   UNL     1      -0.028   1.493  -0.616  0.00  0.00    +0.009 C 
ENDBRANCH  18  31
ENDBRANCH   1  18
TORSDOF 7
