REMARK  Name = ZINC42303226
REMARK  4 active torsions:
REMARK  status: ('A' for Active; 'I' for Inactive)
REMARK    1  A    between atoms: C_3  and  O_10
REMARK    2  A    between atoms: C_6  and  C_7
REMARK    3  A    between atoms: C_7  and  N_8
REMARK    4  A    between atoms: O_10  and  C_11
REMARK                            x       y       z     vdW  Elec       q    Type
REMARK                         _______ _______ _______ _____ _____    ______ ____
ROOT
ATOM      1  C   UNL     1      -0.005   1.359  -0.254  0.00  0.00    +0.005 A 
ATOM      2  C   UNL     1       1.180   2.069  -0.246  0.00  0.00    +0.047 A 
ATOM      3  C   UNL     1       2.381   1.410  -0.029  0.00  0.00    +0.140 A 
ATOM      4  C   UNL     1       2.388   0.037   0.179  0.00  0.00    +0.083 A 
ATOM      5  C   UNL     1       1.200  -0.668   0.170  0.00  0.00    +0.025 A 
ATOM      6  C   UNL     1       0.004  -0.008  -0.047  0.00  0.00    -0.063 A 
ATOM      7 CL   UNL     1       3.889  -0.793   0.450  0.00  0.00    -0.080 Cl
ENDROOT
BRANCH   6   8
ATOM      8  C   UNL     1      -1.290  -0.779  -0.056  0.00  0.00    -0.051 C 
BRANCH   8   9
ATOM      9  N   UNL     1      -1.579  -1.235  -1.423  0.00  0.00    +0.381 N 
ATOM     10  H   UNL     1      -1.658  -0.437  -2.034  0.00  0.00    -0.090 HD
ATOM     11  H   UNL     1      -0.830  -1.831  -1.743  0.00  0.00    -0.090 HD
ATOM     12  H   UNL     1      -2.446  -1.752  -1.429  0.00  0.00    -0.090 HD
ENDBRANCH   8   9
ENDBRANCH   6   8
BRANCH   3  13
ATOM     13  O   UNL     1       3.548   2.106  -0.021  0.00  0.00    -0.478 OA
BRANCH  13  14
ATOM     14  C   UNL     1       3.456   3.528  -0.124  0.00  0.00    +0.259 C 
ATOM     15  C   UNL     1       4.709   4.169   0.477  0.00  0.00    +0.054 C 
ATOM     16  C   UNL     1       5.932   3.308   0.216  0.00  0.00    +0.006 C 
ATOM     17  C   UNL     1       6.319   3.221  -1.248  0.00  0.00    +0.019 C 
ATOM     18  C   UNL     1       5.256   2.467  -2.050  0.00  0.00    +0.104 C 
ATOM     19  N   UNL     1       4.219   3.422  -2.472  0.00  0.00    -0.312 N 
ATOM     20  C   UNL     1       3.359   3.927  -1.581  0.00  0.00    +0.254 C 
ATOM     21  O   UNL     1       2.503   4.710  -1.938  0.00  0.00    -0.272 OA
ATOM     22  H   UNL     1       4.157   3.686  -3.403  0.00  0.00    +0.149 HD
ENDBRANCH  13  14
ENDBRANCH   3  13
TORSDOF 4
