REMARK  Name = ZINC40783294
REMARK  7 active torsions:
REMARK  status: ('A' for Active; 'I' for Inactive)
REMARK    1  A    between atoms: C_1  and  C_2
REMARK    2  A    between atoms: C_5  and  S_8
REMARK    3  A    between atoms: S_8  and  N_11
REMARK    4  A    between atoms: N_11  and  N_12
REMARK    5  A    between atoms: C_14  and  N_28
REMARK    6  A    between atoms: C_15  and  N_19
REMARK    7  A    between atoms: N_19  and  C_20
REMARK                            x       y       z     vdW  Elec       q    Type
REMARK                         _______ _______ _______ _____ _____    ______ ____
ROOT
ATOM      1  N   UNL     1       3.294  -4.559   0.468  0.00  0.00    -0.244 N 
ATOM      2  C   UNL     1       3.793  -5.542   1.314  0.00  0.00    +0.159 A 
ATOM      3  C   UNL     1       4.448  -5.194   2.497  0.00  0.00    +0.107 A 
ATOM      4  C   UNL     1       4.929  -6.221   3.311  0.00  0.00    +0.149 A 
ATOM      5  N   UNL     1       4.746  -7.484   2.931  0.00  0.00    -0.219 NA
ATOM      6  C   UNL     1       4.122  -7.769   1.806  0.00  0.00    +0.225 A 
ATOM      7  N   UNL     1       3.648  -6.830   1.012  0.00  0.00    -0.218 NA
ATOM      8  H   UNL     1       3.403  -3.622   0.695  0.00  0.00    +0.169 HD
ENDROOT
BRANCH   3   9
ATOM      9  N   UNL     1       4.618  -3.848   2.858  0.00  0.00    -0.353 N 
ATOM     10  H   UNL     1       4.279  -3.145   2.282  0.00  0.00    +0.143 HD
ATOM     11  H   UNL     1       5.075  -3.621   3.683  0.00  0.00    +0.143 HD
ENDBRANCH   3   9
BRANCH   1  12
ATOM     12  N   UNL     1       2.633  -4.921  -0.713  0.00  0.00    -0.109 NA
ATOM     13  H   UNL     1       3.072  -5.499  -1.357  0.00  0.00    +0.172 HD
BRANCH  12  14
ATOM     14  S   UNL     1       1.103  -4.361  -1.011  0.00  0.00    +0.074 S 
ATOM     15  O   UNL     1       0.316  -4.709   0.119  0.00  0.00    -0.152 OA
ATOM     16  O   UNL     1       0.769  -4.775  -2.329  0.00  0.00    -0.152 OA
BRANCH  14  21
ATOM     17  C   UNL     1       1.394   1.665  -1.119  0.00  0.00    +0.044 C 
ATOM     18  C   UNL     1       1.322   0.160  -1.092  0.00  0.00    -0.050 A 
ATOM     19  C   UNL     1       1.507  -0.562  -2.256  0.00  0.00    +0.005 A 
ATOM     20  C   UNL     1       1.440  -1.943  -2.232  0.00  0.00    +0.029 A 
ATOM     21  C   UNL     1       1.189  -2.601  -1.042  0.00  0.00    +0.107 A 
ATOM     22  C   UNL     1       1.005  -1.879   0.122  0.00  0.00    +0.029 A 
ATOM     23  C   UNL     1       1.076  -0.499   0.098  0.00  0.00    +0.005 A 
ENDBRANCH  14  21
ENDBRANCH  12  14
ENDBRANCH   1  12
BRANCH   4  24
ATOM     24  N   UNL     1       5.589  -5.929   4.499  0.00  0.00    -0.297 N 
ATOM     25  H   UNL     1       5.634  -5.014   4.817  0.00  0.00    +0.154 HD
BRANCH  24  26
ATOM     26  C   UNL     1       6.188  -6.956   5.237  0.00  0.00    +0.051 A 
ATOM     27  C   UNL     1       6.566  -8.135   4.608  0.00  0.00    +0.026 A 
ATOM     28  C   UNL     1       7.157  -9.148   5.338  0.00  0.00    +0.022 A 
ATOM     29  C   UNL     1       7.373  -8.988   6.696  0.00  0.00    +0.042 A 
ATOM     30  C   UNL     1       6.997  -7.815   7.326  0.00  0.00    +0.041 A 
ATOM     31  C   UNL     1       6.411  -6.796   6.599  0.00  0.00    +0.063 A 
ATOM     32 CL   UNL     1       5.947  -5.321   7.388  0.00  0.00    -0.082 Cl
ATOM     33 CL   UNL     1       8.115 -10.264   7.610  0.00  0.00    -0.083 Cl
ENDBRANCH  24  26
ENDBRANCH   4  24
TORSDOF 6
