REMARK  Name = ZINC19647468
REMARK  6 active torsions:
REMARK  status: ('A' for Active; 'I' for Inactive)
REMARK    1  A    between atoms: C_1  and  C_2
REMARK    2  A    between atoms: C_2  and  C_3
REMARK    3  A    between atoms: C_13  and  C_17
REMARK    4  A    between atoms: C_13  and  C_18
REMARK    5  A    between atoms: C_15  and  C_16
REMARK    6  A    between atoms: N_19  and  C_24
REMARK                            x       y       z     vdW  Elec       q    Type
REMARK                         _______ _______ _______ _____ _____    ______ ____
ROOT
ATOM      1  C   UNL     1       2.553  -1.478   0.499  0.00  0.00    -0.047 A 
ATOM      2  C   UNL     1       1.340  -2.143   0.510  0.00  0.00    +0.013 A 
ATOM      3  C   UNL     1       0.160  -1.410   0.373  0.00  0.00    -0.000 A 
ATOM      4  C   UNL     1       0.256  -0.033   0.231  0.00  0.00    +0.051 A 
ATOM      5  C   UNL     1       1.464   0.633   0.219  0.00  0.00    +0.018 A 
ATOM      6  C   UNL     1       2.623  -0.100   0.354  0.00  0.00    +0.012 A 
ATOM      7  C   UNL     1       1.086   2.069   0.045  0.00  0.00    +0.193 C 
ATOM      8  C   UNL     1      -0.417   2.094  -0.028  0.00  0.00    +0.260 C 
ATOM      9  O   UNL     1      -1.119   3.072  -0.168  0.00  0.00    -0.271 OA
ATOM     10  N   UNL     1      -0.831   0.811   0.089  0.00  0.00    -0.259 N 
ATOM     11  C   UNL     1      -2.167   0.192   0.089  0.00  0.00    +0.055 C 
ATOM     12  C   UNL     1      -2.263  -1.309   0.241  0.00  0.00    +0.002 C 
ATOM     13  C   UNL     1      -1.169  -2.051   0.375  0.00  0.00    -0.043 C 
ATOM     14  C   UNL     1      -1.285  -3.546   0.527  0.00  0.00    +0.044 C 
ATOM     15  C   UNL     1      -2.972   0.827   1.224  0.00  0.00    +0.036 C 
ATOM     16  C   UNL     1      -2.853   0.568  -1.225  0.00  0.00    +0.036 C 
ATOM     17  N   UNL     1       1.724   2.709  -1.100  0.00  0.00    -0.243 N 
ATOM     18  C   UNL     1       2.713   3.575  -0.883  0.00  0.00    +0.231 C 
ATOM     19  O   UNL     1       3.267   4.141  -1.802  0.00  0.00    -0.274 OA
ATOM     20  C   UNL     1       3.121   3.827   0.561  0.00  0.00    +0.168 C 
ATOM     21  S   UNL     1       1.682   3.085   1.451  0.00  0.00    -0.111 S 
ENDROOT
BRANCH  17  22
ATOM     22  C   UNL     1       1.304   2.418  -2.405  0.00  0.00    +0.042 A 
ATOM     23  C   UNL     1       1.820   1.315  -3.071  0.00  0.00    +0.027 A 
ATOM     24  C   UNL     1       1.402   1.023  -4.355  0.00  0.00    +0.051 A 
ATOM     25  C   UNL     1       0.476   1.838  -4.987  0.00  0.00    +0.166 A 
ATOM     26  C   UNL     1      -0.040   2.949  -4.323  0.00  0.00    +0.168 A 
ATOM     27  C   UNL     1       0.375   3.236  -3.033  0.00  0.00    +0.073 A 
ATOM     28  O   UNL     1      -0.924   3.580  -5.150  0.00  0.00    -0.453 OA
ATOM     29  C   UNL     1      -1.250   2.618  -6.170  0.00  0.00    +0.466 C 
ATOM     30  O   UNL     1      -0.085   1.774  -6.230  0.00  0.00    -0.453 OA
ENDBRANCH  17  22
BRANCH   1  32
ATOM     31  C   UNL     1       4.330  -2.691  -0.735  0.00  0.00    +0.009 C 
ATOM     32  C   UNL     1       3.827  -2.269   0.647  0.00  0.00    +0.032 C 
ENDBRANCH   1  32
TORSDOF 2
