REMARK  Name = ZINC12922281
REMARK  4 active torsions:
REMARK  status: ('A' for Active; 'I' for Inactive)
REMARK    1  A    between atoms: C_6  and  N_7
REMARK    2  A    between atoms: C_8  and  C_10
REMARK    3  A    between atoms: C_10  and  N_50
REMARK    4  A    between atoms: C_14  and  C_16
REMARK                            x       y       z     vdW  Elec       q    Type
REMARK                         _______ _______ _______ _____ _____    ______ ____
ROOT
ATOM      1  C   UNL     1       1.870   7.042  -5.140  0.00  0.00    -0.077 C 
ATOM      2  C   UNL     1       3.283   6.432  -4.966  0.00  0.00    -0.020 C 
ATOM      3  C   UNL     1       2.999   5.254  -3.998  0.00  0.00    -0.013 C 
ATOM      4  C   UNL     1       1.608   4.762  -4.447  0.00  0.00    -0.037 C 
ATOM      5  N   UNL     1       0.968   5.874  -5.168  0.00  0.00    +0.390 N 
ATOM      6  H   UNL     1       0.802   5.596  -6.143  0.00  0.00    -0.080 HD
ENDROOT
BRANCH   4   7
ATOM      7  C   UNL     1       0.789   4.369  -3.244  0.00  0.00    -0.057 A 
ATOM      8  C   UNL     1       0.207   3.117  -3.186  0.00  0.00    +0.006 A 
ATOM      9  C   UNL     1      -0.546   2.750  -2.085  0.00  0.00    +0.049 A 
ATOM     10  C   UNL     1      -0.714   3.643  -1.040  0.00  0.00    +0.162 A 
ATOM     11  C   UNL     1      -0.129   4.900  -1.098  0.00  0.00    +0.162 A 
ATOM     12  C   UNL     1       0.623   5.264  -2.202  0.00  0.00    +0.051 A 
ATOM     13  O   UNL     1      -0.301   5.772  -0.063  0.00  0.00    -0.488 OA
ATOM     14  C   UNL     1      -1.625   6.280   0.113  0.00  0.00    +0.232 C 
ATOM     15  C   UNL     1      -2.468   5.316   0.932  0.00  0.00    +0.082 C 
ATOM     16  C   UNL     1      -2.690   3.991   0.219  0.00  0.00    +0.232 C 
ATOM     17  O   UNL     1      -1.454   3.293   0.052  0.00  0.00    -0.488 OA
ENDBRANCH   4   7
BRANCH   5  18
ATOM     18  C   UNL     1      -0.332   6.215  -4.534  0.00  0.00    +0.020 C 
BRANCH  18  20
ATOM     19  N   UNL     1      -2.366   7.495  -5.123  0.00  0.00    -0.287 N 
ATOM     20  C   UNL     1      -1.140   7.065  -5.481  0.00  0.00    +0.201 C 
ATOM     21  O   UNL     1      -0.686   7.361  -6.567  0.00  0.00    -0.278 OA
ATOM     22  H   UNL     1      -2.698   7.321  -4.228  0.00  0.00    +0.155 HD
BRANCH  19  28
ATOM     23  C   UNL     1      -4.026   9.183  -5.601  0.00  0.00    +0.024 A 
ATOM     24  C   UNL     1      -4.803   9.873  -6.510  0.00  0.00    +0.016 A 
ATOM     25  C   UNL     1      -4.728   9.569  -7.857  0.00  0.00    +0.013 A 
ATOM     26  C   UNL     1      -3.870   8.577  -8.299  0.00  0.00    +0.016 A 
ATOM     27  C   UNL     1      -3.086   7.888  -7.395  0.00  0.00    +0.024 A 
ATOM     28  C   UNL     1      -3.159   8.191  -6.042  0.00  0.00    +0.033 A 
ATOM     29  I   UNL     1      -5.917  10.611  -9.232  0.00  0.00    -0.044 I 
ENDBRANCH  19  28
ENDBRANCH  18  20
ENDBRANCH   5  18
TORSDOF 4
