REMARK  Name = ZINC40013735
REMARK  2 active torsions:
REMARK  status: ('A' for Active; 'I' for Inactive)
REMARK    1  A    between atoms: C_3  and  C_10
REMARK    2  A    between atoms: C_5  and  N_7
REMARK                            x       y       z     vdW  Elec       q    Type
REMARK                         _______ _______ _______ _____ _____    ______ ____
ROOT
ATOM      1  C   UNL     1       3.672   2.182  -0.022  0.00  0.00    +0.151 C 
ATOM      2  C   UNL     1       3.991   2.670   1.353  0.00  0.00    +0.072 A 
ATOM      3  C   UNL     1       4.225   1.946   2.606  0.00  0.00    +0.199 A 
ATOM      4  O   UNL     1       4.360   0.736   2.661  0.00  0.00    -0.287 OA
ATOM      5  C   UNL     1       4.282   2.826   3.800  0.00  0.00    +0.067 A 
ATOM      6  C   UNL     1       4.299   2.276   5.081  0.00  0.00    +0.053 A 
ATOM      7  C   UNL     1       4.347   3.108   6.180  0.00  0.00    +0.124 A 
ATOM      8  C   UNL     1       4.379   4.487   6.006  0.00  0.00    +0.042 A 
ATOM      9  C   UNL     1       4.364   5.040   4.746  0.00  0.00    +0.050 A 
ATOM     10  C   UNL     1       4.318   4.218   3.619  0.00  0.00    +0.140 A 
ATOM     11  O   UNL     1       4.315   4.788   2.392  0.00  0.00    -0.450 OA
ATOM     12  C   UNL     1       4.041   4.035   1.308  0.00  0.00    +0.199 A 
ATOM     13  C   UNL     1       3.755   4.464  -0.071  0.00  0.00    +0.289 C 
ATOM     14  O   UNL     1       3.718   5.618  -0.448  0.00  0.00    -0.266 OA
ATOM     15  N   UNL     1       3.539   3.387  -0.857  0.00  0.00    -0.232 N 
ATOM     16  C   UNL     1       3.245   3.411  -2.209  0.00  0.00    +0.169 A 
ATOM     17  N   UNL     1       3.021   2.405  -3.021  0.00  0.00    -0.224 NA
ATOM     18  C   UNL     1       2.743   2.577  -4.332  0.00  0.00    +0.080 A 
ATOM     19  C   UNL     1       2.484   1.585  -5.307  0.00  0.00    +0.030 A 
ATOM     20  C   UNL     1       2.218   1.933  -6.605  0.00  0.00    +0.022 A 
ATOM     21  C   UNL     1       2.192   3.261  -7.010  0.00  0.00    +0.042 A 
ATOM     22  C   UNL     1       2.440   4.257  -6.082  0.00  0.00    +0.037 A 
ATOM     23  C   UNL     1       2.708   3.917  -4.779  0.00  0.00    +0.042 A 
ATOM     24  S   UNL     1       3.067   4.822  -3.292  0.00  0.00    -0.052 S 
ATOM     25 CL   UNL     1       1.852   3.668  -8.663  0.00  0.00    -0.084 Cl
ATOM     26  F   UNL     1       4.364   2.584   7.425  0.00  0.00    -0.205 F 
ENDROOT
BRANCH   1  29
ATOM     27  C   UNL     1      -0.017   1.378   0.010  0.00  0.00    +0.003 A 
ATOM     28  C   UNL     1       1.171   2.085   0.002  0.00  0.00    +0.006 A 
ATOM     29  C   UNL     1       2.377   1.411  -0.013  0.00  0.00    -0.020 A 
ATOM     30  C   UNL     1       2.396   0.028  -0.020  0.00  0.00    +0.038 A 
ATOM     31  C   UNL     1       1.209  -0.679  -0.012  0.00  0.00    +0.127 A 
ATOM     32  C   UNL     1       0.002  -0.004   0.002  0.00  0.00    +0.033 A 
BRANCH  31  33
ATOM     33  N   UNL     1       1.229  -2.159  -0.020  0.00  0.00    +0.056 N 
ATOM     34  O   UNL     1       2.284  -2.749  -0.035  0.00  0.00    -0.126 OA
ATOM     35  O   UNL     1       0.190  -2.778  -0.013  0.00  0.00    -0.126 OA
ENDBRANCH  31  33
ENDBRANCH   1  29
TORSDOF 2
