REMARK  Name = ZINC48553526
REMARK  9 active torsions:
REMARK  status: ('A' for Active; 'I' for Inactive)
REMARK    1  A    between atoms: C_4  and  C_7
REMARK    2  A    between atoms: C_7  and  C_9
REMARK    3  A    between atoms: C_7  and  C_11
REMARK    4  A    between atoms: C_11  and  C_21
REMARK    5  A    between atoms: N_12  and  N_13
REMARK    6  A    between atoms: N_18  and  N_19
REMARK    7  A    between atoms: C_21  and  C_23
REMARK    8  A    between atoms: C_23  and  C_25
REMARK    9  A    between atoms: C_23  and  C_27
REMARK                            x       y       z     vdW  Elec       q    Type
REMARK                         _______ _______ _______ _____ _____    ______ ____
ROOT
ATOM      1  C   UNL     1       3.798  -1.612  -1.284  0.00  0.00    +0.124 C 
ATOM      2  N   UNL     1       3.537  -2.864  -1.010  0.00  0.00    -0.179 NA
ENDROOT
BRANCH   2   3
ATOM      3  N   UNL     1       3.195  -3.674  -1.954  0.00  0.00    -0.204 N 
ATOM      4  C   UNL     1       2.833  -4.978  -1.652  0.00  0.00    +0.254 A 
ATOM      5  N   UNL     1       2.789  -5.517  -0.459  0.00  0.00    -0.109 NA
ATOM      6  N   UNL     1       2.413  -6.743  -0.542  0.00  0.00    -0.118 NA
ATOM      7  C   UNL     1       2.194  -7.061  -1.797  0.00  0.00    +0.220 A 
ATOM      8  N   UNL     1       2.448  -5.945  -2.546  0.00  0.00    -0.210 N 
ATOM      9  S   UNL     1       1.663  -8.629  -2.401  0.00  0.00    -0.008 SA
ATOM     10  H   UNL     1       3.190  -3.370  -2.875  0.00  0.00    +0.178 HD
BRANCH   8  11
ATOM     11  N   UNL     1       2.344  -5.819  -3.902  0.00  0.00    -0.294 N 
ATOM     12  H   UNL     1       3.214  -6.057  -4.356  0.00  0.00    +0.163 HD
ATOM     13  H   UNL     1       1.585  -6.381  -4.260  0.00  0.00    +0.163 HD
ENDBRANCH   8  11
ENDBRANCH   2   3
BRANCH   1  14
ATOM     14  C   UNL     1       3.839  -1.179  -2.622  0.00  0.00    +0.201 C 
ATOM     15  O   UNL     1       2.850  -0.692  -3.134  0.00  0.00    -0.289 OA
BRANCH  14  16
ATOM     16  C   UNL     1       5.109  -1.317  -3.421  0.00  0.00    +0.193 C 
BRANCH  16  17
ATOM     17  C   UNL     1       5.134  -0.276  -4.510  0.00  0.00    -0.023 A 
ATOM     18  C   UNL     1       4.135  -0.251  -5.465  0.00  0.00    +0.005 A 
ATOM     19  C   UNL     1       4.158   0.704  -6.464  0.00  0.00    +0.000 A 
ATOM     20  C   UNL     1       5.180   1.634  -6.508  0.00  0.00    +0.000 A 
ATOM     21  C   UNL     1       6.178   1.609  -5.553  0.00  0.00    +0.000 A 
ATOM     22  C   UNL     1       6.153   0.657  -4.551  0.00  0.00    +0.005 A 
ENDBRANCH  16  17
BRANCH  16  23
ATOM     23  C   UNL     1       5.166  -2.659  -4.023  0.00  0.00    +0.079 C 
ATOM     24  N   UNL     1       5.210  -3.695  -4.488  0.00  0.00    -0.195 NA
ENDBRANCH  16  23
ENDBRANCH  14  16
ENDBRANCH   1  14
BRANCH   1  25
ATOM     25  C   UNL     1       4.055  -0.633  -0.167  0.00  0.00    +0.175 C 
BRANCH  25  29
ATOM     26  C   UNL     1       0.957   2.307  -0.113  0.00  0.00    +0.000 A 
ATOM     27  C   UNL     1       2.272   2.692  -0.299  0.00  0.00    +0.000 A 
ATOM     28  C   UNL     1       3.274   1.740  -0.317  0.00  0.00    +0.005 A 
ATOM     29  C   UNL     1       2.962   0.404  -0.147  0.00  0.00    -0.025 A 
ATOM     30  C   UNL     1       1.647   0.020   0.040  0.00  0.00    +0.005 A 
ATOM     31  C   UNL     1       0.645   0.971   0.056  0.00  0.00    +0.000 A 
ENDBRANCH  25  29
BRANCH  25  32
ATOM     32  C   UNL     1       4.074  -1.350   1.118  0.00  0.00    +0.077 C 
ATOM     33  N   UNL     1       4.089  -1.903   2.110  0.00  0.00    -0.196 NA
ENDBRANCH  25  32
ENDBRANCH   1  25
TORSDOF 9
