REMARK  Name = ZINC65032445
REMARK  3 active torsions:
REMARK  status: ('A' for Active; 'I' for Inactive)
REMARK    1  A    between atoms: C_6  and  S_7
REMARK    2  A    between atoms: S_7  and  N_10
REMARK    3  A    between atoms: C_16  and  C_18
REMARK                            x       y       z     vdW  Elec       q    Type
REMARK                         _______ _______ _______ _____ _____    ______ ____
ROOT
ATOM      1  S   UNL     1      -1.563  -0.960   0.017  0.00  0.00    +0.061 S 
ATOM      2  O   UNL     1      -1.265  -2.243   0.552  0.00  0.00    -0.153 OA
ATOM      3  O   UNL     1      -2.556  -0.113   0.578  0.00  0.00    -0.153 OA
ENDROOT
BRANCH   1   9
ATOM      4  C   UNL     1      -0.075   1.337   0.049  0.00  0.00    +0.030 A 
ATOM      5  C   UNL     1       1.090   2.066   0.059  0.00  0.00    +0.029 A 
ATOM      6  C   UNL     1       2.341   1.427   0.052  0.00  0.00    +0.056 A 
ATOM      7  C   UNL     1       2.326   0.024   0.034  0.00  0.00    +0.042 A 
ATOM      8  C   UNL     1       1.163  -0.705   0.023  0.00  0.00    +0.045 A 
ATOM      9  C   UNL     1      -0.056  -0.047   0.031  0.00  0.00    +0.107 A 
ATOM     10  S   UNL     1       4.052  -0.398   0.031  0.00  0.00    -0.027 S 
ATOM     11  C   UNL     1       4.710   1.262   0.053  0.00  0.00    +0.289 A 
ATOM     12  O   UNL     1       5.873   1.621   0.059  0.00  0.00    -0.260 OA
ATOM     13  N   UNL     1       3.594   2.017   0.062  0.00  0.00    -0.316 N 
ATOM     14  H   UNL     1       3.669   2.984   0.074  0.00  0.00    +0.169 HD
ENDBRANCH   1   9
BRANCH   1  15
ATOM     15  N   UNL     1      -1.980  -1.194  -1.568  0.00  0.00    -0.174 NA
ATOM     16  C   UNL     1      -2.819  -0.214  -2.273  0.00  0.00    +0.128 C 
ATOM     17  C   UNL     1      -2.083   0.242  -3.539  0.00  0.00    +0.125 C 
ATOM     18  N   UNL     1      -1.620  -0.948  -4.267  0.00  0.00    -0.292 N 
ATOM     19  C   UNL     1      -0.781  -1.928  -3.562  0.00  0.00    +0.125 C 
ATOM     20  C   UNL     1      -1.513  -2.381  -2.298  0.00  0.00    +0.128 C 
ATOM     21  C   UNL     1      -1.960  -1.138  -5.557  0.00  0.00    +0.282 C 
ATOM     22  O   UNL     1      -1.492  -2.074  -6.178  0.00  0.00    -0.267 OA
BRANCH  21  23
ATOM     23  C   UNL     1      -2.893  -0.217  -6.212  0.00  0.00    +0.191 A 
ATOM     24  C   UNL     1      -3.410  -0.358  -7.469  0.00  0.00    +0.056 A 
ATOM     25  C   UNL     1      -4.250   0.745  -7.685  0.00  0.00    +0.058 A 
ATOM     26  C   UNL     1      -4.210   1.502  -6.565  0.00  0.00    +0.171 A 
ATOM     27  O   UNL     1      -3.395   0.916  -5.678  0.00  0.00    -0.444 OA
ATOM     28 BR   UNL     1      -5.155   3.118  -6.293  0.00  0.00    -0.008 Br
ENDBRANCH  21  23
ENDBRANCH   1  15
TORSDOF 3
