REMARK  Name = ZINC40010895
REMARK  6 active torsions:
REMARK  status: ('A' for Active; 'I' for Inactive)
REMARK    1  A    between atoms: C_1  and  C_2
REMARK    2  A    between atoms: C_9  and  C_14
REMARK    3  A    between atoms: C_18  and  O_35
REMARK    4  A    between atoms: C_19  and  O_33
REMARK    5  A    between atoms: O_33  and  C_34
REMARK    6  A    between atoms: O_35  and  C_36
REMARK                            x       y       z     vdW  Elec       q    Type
REMARK                         _______ _______ _______ _____ _____    ______ ____
ROOT
ATOM      1  C   UNL     1       1.786  -4.924   3.087  0.00  0.00    +0.124 C 
ATOM      2  C   UNL     1       3.081  -4.816   2.320  0.00  0.00    -0.019 A 
ATOM      3  C   UNL     1       3.753  -3.602   2.357  0.00  0.00    +0.055 A 
ATOM      4  C   UNL     1       4.940  -3.435   1.667  0.00  0.00    +0.162 A 
ATOM      5  C   UNL     1       5.460  -4.494   0.929  0.00  0.00    +0.162 A 
ATOM      6  C   UNL     1       4.789  -5.702   0.899  0.00  0.00    +0.053 A 
ATOM      7  C   UNL     1       3.599  -5.868   1.599  0.00  0.00    -0.037 A 
ATOM      8  C   UNL     1       2.941  -7.221   1.540  0.00  0.00    +0.054 C 
ATOM      9  C   UNL     1       1.465  -7.126   1.924  0.00  0.00    +0.114 C 
ATOM     10  N   UNL     1       1.370  -6.329   3.158  0.00  0.00    -0.277 N 
ATOM     11  C   UNL     1       0.919  -6.869   4.307  0.00  0.00    +0.305 C 
ATOM     12  O   UNL     1       0.800  -8.075   4.406  0.00  0.00    -0.252 OA
ATOM     13  N   UNL     1       0.599  -6.073   5.346  0.00  0.00    -0.281 N 
ATOM     14  C   UNL     1       0.462  -4.618   5.171  0.00  0.00    +0.137 C 
ATOM     15  C   UNL     1      -0.878  -4.183   5.776  0.00  0.00    +0.179 C 
ATOM     16  O   UNL     1      -0.972  -4.673   7.115  0.00  0.00    -0.377 OA
ATOM     17  C   UNL     1      -0.960  -6.099   7.219  0.00  0.00    +0.179 C 
ATOM     18  C   UNL     1       0.371  -6.633   6.687  0.00  0.00    +0.137 C 
ENDROOT
BRANCH   1  27
ATOM     19  C   UNL     1       1.062  -3.271  -3.823  0.00  0.00    +0.044 C 
ATOM     20  C   UNL     1       0.546  -3.764  -2.496  0.00  0.00    -0.050 A 
ATOM     21  C   UNL     1      -0.588  -4.577  -2.463  0.00  0.00    +0.005 A 
ATOM     22  C   UNL     1      -1.110  -5.059  -1.306  0.00  0.00    +0.024 A 
ATOM     23  C   UNL     1      -0.515  -4.750  -0.069  0.00  0.00    +0.040 A 
ATOM     24  N   UNL     1      -1.036  -5.229   1.060  0.00  0.00    -0.284 N 
ATOM     25  C   UNL     1      -0.527  -4.977   2.254  0.00  0.00    +0.226 C 
ATOM     26  O   UNL     1      -1.047  -5.443   3.251  0.00  0.00    -0.275 OA
ATOM     27  C   UNL     1       0.704  -4.108   2.377  0.00  0.00    +0.123 C 
ATOM     28  C   UNL     1       1.301  -3.561   1.095  0.00  0.00    -0.003 C 
ATOM     29  C   UNL     1       0.684  -3.893  -0.074  0.00  0.00    -0.007 A 
ATOM     30  C   UNL     1       1.197  -3.412  -1.357  0.00  0.00    +0.012 A 
ATOM     31  H   UNL     1      -1.826  -5.789   1.003  0.00  0.00    +0.155 HD
ENDBRANCH   1  27
BRANCH   5  32
ATOM     32  O   UNL     1       6.623  -4.342   0.241  0.00  0.00    -0.491 OA
ATOM     33  C   UNL     1       7.096  -5.473  -0.493  0.00  0.00    +0.277 C 
ENDBRANCH   5  32
BRANCH   4  34
ATOM     34  O   UNL     1       5.594  -2.243   1.708  0.00  0.00    -0.491 OA
ATOM     35  C   UNL     1       4.998  -1.203   2.486  0.00  0.00    +0.277 C 
ENDBRANCH   4  34
TORSDOF 3
