REMARK  Name = ZINC59289406
REMARK  6 active torsions:
REMARK  status: ('A' for Active; 'I' for Inactive)
REMARK    1  A    between atoms: C_1  and  C_2
REMARK    2  A    between atoms: C_4  and  N_24
REMARK    3  A    between atoms: C_6  and  C_7
REMARK    4  A    between atoms: N_9  and  N_10
REMARK    5  A    between atoms: C_11  and  C_13
REMARK    6  A    between atoms: C_25  and  C_27
REMARK                            x       y       z     vdW  Elec       q    Type
REMARK                         _______ _______ _______ _____ _____    ______ ____
ROOT
ATOM      1  C   UNL     1       0.030  -0.277   2.559  0.00  0.00    +0.267 C 
ATOM      2  O   UNL     1       0.015   0.917   2.797  0.00  0.00    -0.268 OA
ATOM      3  N   UNL     1       0.051  -1.166   3.572  0.00  0.00    -0.230 N 
ATOM      4  H   UNL     1       0.063  -2.118   3.382  0.00  0.00    +0.173 HD
ENDROOT
BRANCH   1  10
ATOM      5  C   UNL     1      -0.018   1.503   0.010  0.00  0.00    +0.045 C 
ATOM      6  C   UNL     1       0.002  -0.004   0.002  0.00  0.00    -0.029 A 
ATOM      7  C   UNL     1       0.007  -0.725  -1.164  0.00  0.00    +0.035 A 
ATOM      8  C   UNL     1       0.026  -2.098  -1.090  0.00  0.00    +0.073 A 
ATOM      9  S   UNL     1       0.038  -2.419   0.559  0.00  0.00    -0.069 S 
ATOM     10  C   UNL     1       0.023  -0.747   1.175  0.00  0.00    +0.080 A 
BRANCH   8  11
ATOM     11  N   UNL     1       0.034  -3.010  -2.138  0.00  0.00    -0.276 N 
ATOM     12  C   UNL     1       0.054  -4.332  -1.880  0.00  0.00    +0.249 C 
ATOM     13  O   UNL     1       0.064  -4.727  -0.730  0.00  0.00    -0.270 OA
ATOM     14  H   UNL     1       0.025  -2.694  -3.055  0.00  0.00    +0.156 HD
BRANCH  12  15
ATOM     15  C   UNL     1       0.062  -5.303  -2.995  0.00  0.00    +0.040 A 
ATOM     16  C   UNL     1       0.055  -4.852  -4.316  0.00  0.00    +0.013 A 
ATOM     17  C   UNL     1       0.063  -5.761  -5.353  0.00  0.00    +0.004 A 
ATOM     18  C   UNL     1       0.077  -7.119  -5.087  0.00  0.00    +0.038 A 
ATOM     19  C   UNL     1       0.084  -7.574  -3.778  0.00  0.00    +0.124 A 
ATOM     20  C   UNL     1       0.082  -6.673  -2.731  0.00  0.00    +0.051 A 
ATOM     21  F   UNL     1       0.097  -8.902  -3.526  0.00  0.00    -0.205 F 
ENDBRANCH  12  15
ENDBRANCH   8  11
ENDBRANCH   1  10
BRANCH   3  22
ATOM     22  N   UNL     1       0.057  -0.717   4.899  0.00  0.00    -0.231 N 
ATOM     23  C   UNL     1       0.079  -1.606   5.911  0.00  0.00    +0.273 C 
ATOM     24  O   UNL     1       0.093  -2.795   5.674  0.00  0.00    -0.270 OA
ATOM     25  H   UNL     1       0.046   0.234   5.088  0.00  0.00    +0.173 HD
BRANCH  23  26
ATOM     26  C   UNL     1       0.086  -1.122   7.338  0.00  0.00    +0.297 C 
ATOM     27  C   UNL     1       1.393  -0.372   7.625  0.00  0.00    +0.283 C 
ATOM     28  O   UNL     1       1.373   0.061   8.989  0.00  0.00    -0.484 OA
ATOM     29  C   UNL     1       0.984  -0.858   9.916  0.00  0.00    +0.162 A 
ATOM     30  C   UNL     1       1.279  -0.641  11.254  0.00  0.00    +0.049 A 
ATOM     31  C   UNL     1       0.888  -1.563  12.207  0.00  0.00    +0.004 A 
ATOM     32  C   UNL     1       0.203  -2.703  11.829  0.00  0.00    +0.004 A 
ATOM     33  C   UNL     1      -0.093  -2.925  10.498  0.00  0.00    +0.049 A 
ATOM     34  C   UNL     1       0.297  -2.005   9.536  0.00  0.00    +0.163 A 
ATOM     35  O   UNL     1       0.005  -2.241   8.228  0.00  0.00    -0.472 OA
ENDBRANCH  23  26
ENDBRANCH   3  22
TORSDOF 5
