REMARK  Name = ZINC13574088
REMARK  5 active torsions:
REMARK  status: ('A' for Active; 'I' for Inactive)
REMARK    1  A    between atoms: C_1  and  O_2
REMARK    2  A    between atoms: O_2  and  C_3
REMARK    3  A    between atoms: C_8  and  C_9
REMARK    4  A    between atoms: N_25  and  C_28
REMARK    5  A    between atoms: C_28  and  C_29
REMARK                            x       y       z     vdW  Elec       q    Type
REMARK                         _______ _______ _______ _____ _____    ______ ____
ROOT
ATOM      1  C   UNL     1       3.107   1.964  -0.090  0.00  0.00    +0.095 C 
ATOM      2  C   UNL     1       2.034   3.018  -0.139  0.00  0.00    +0.015 A 
ATOM      3  C   UNL     1       2.393   4.375  -0.053  0.00  0.00    -0.010 A 
ATOM      4  C   UNL     1       3.738   4.762   0.083  0.00  0.00    +0.009 A 
ATOM      5  C   UNL     1       4.053   6.084   0.160  0.00  0.00    +0.001 A 
ATOM      6  C   UNL     1       3.062   7.062   0.107  0.00  0.00    +0.001 A 
ATOM      7  C   UNL     1       1.750   6.724  -0.023  0.00  0.00    +0.008 A 
ATOM      8  C   UNL     1       1.386   5.370  -0.103  0.00  0.00    -0.017 A 
ATOM      9  C   UNL     1       0.042   4.981  -0.234  0.00  0.00    +0.012 A 
ATOM     10  C   UNL     1      -0.272   3.663  -0.319  0.00  0.00    +0.047 A 
ATOM     11  C   UNL     1       0.721   2.672  -0.268  0.00  0.00    +0.135 A 
ATOM     12  O   UNL     1       0.349   1.371  -0.356  0.00  0.00    -0.437 OA
ATOM     13  C   UNL     1       1.174   0.394   0.075  0.00  0.00    +0.229 A 
ATOM     14  C   UNL     1       2.509   0.621   0.221  0.00  0.00    +0.066 A 
ATOM     15  C   UNL     1       3.338  -0.432   0.673  0.00  0.00    +0.115 A 
ATOM     16  N   UNL     1       2.752  -1.653   0.946  0.00  0.00    -0.311 N 
ATOM     17  C   UNL     1       1.414  -1.801   0.776  0.00  0.00    +0.205 A 
ATOM     18  N   UNL     1       0.667  -0.820   0.360  0.00  0.00    -0.202 NA
ATOM     19  H   UNL     1       5.272  -0.923   1.136  0.00  0.00    +0.157 HD
ATOM     20  N   UNL     1       4.646  -0.186   0.812  0.00  0.00    -0.384 N 
ATOM     21  H   UNL     1       5.020   0.745   0.592  0.00  0.00    +0.157 HD
ENDROOT
BRANCH   1  27
ATOM     22  C   UNL     1       5.165   2.167  -1.509  0.00  0.00    +0.124 A 
ATOM     23  C   UNL     1       5.805   2.108  -2.739  0.00  0.00    +0.046 A 
ATOM     24  C   UNL     1       5.088   1.784  -3.874  0.00  0.00    +0.004 A 
ATOM     25  C   UNL     1       3.734   1.519  -3.787  0.00  0.00    +0.001 A 
ATOM     26  C   UNL     1       3.095   1.573  -2.562  0.00  0.00    +0.008 A 
ATOM     27  C   UNL     1       3.806   1.901  -1.424  0.00  0.00    +0.006 A 
BRANCH  22  29
ATOM     28  C   UNL     1       7.262   2.747  -0.553  0.00  0.00    +0.277 C 
ATOM     29  O   UNL     1       5.867   2.486  -0.391  0.00  0.00    -0.495 OA
ENDBRANCH  22  29
ENDBRANCH   1  27
BRANCH  16  30
ATOM     30  C   UNL     1       3.567  -2.776   1.414  0.00  0.00    +0.198 C 
BRANCH  30  31
ATOM     31  C   UNL     1       3.733  -2.688   2.909  0.00  0.00    +0.124 A 
ATOM     32  C   UNL     1       2.917  -3.240   3.825  0.00  0.00    +0.046 A 
ATOM     33  C   UNL     1       3.443  -2.910   5.095  0.00  0.00    +0.041 A 
ATOM     34  C   UNL     1       4.549  -2.175   4.879  0.00  0.00    +0.195 A 
ATOM     35  O   UNL     1       4.723  -2.049   3.553  0.00  0.00    -0.466 OA
ENDBRANCH  30  31
ENDBRANCH  16  30
TORSDOF 4
