REMARK  Name = ZINC21659816
REMARK  7 active torsions:
REMARK  status: ('A' for Active; 'I' for Inactive)
REMARK    1  A    between atoms: C_1  and  C_2
REMARK    2  A    between atoms: C_5  and  C_7
REMARK    3  A    between atoms: C_7  and  C_9
REMARK    4  A    between atoms: C_7  and  N_25
REMARK    5  A    between atoms: C_9  and  N_10
REMARK    6  A    between atoms: C_11  and  C_13
REMARK    7  A    between atoms: C_15  and  C_18
REMARK                            x       y       z     vdW  Elec       q    Type
REMARK                         _______ _______ _______ _____ _____    ______ ____
ROOT
ATOM      1  N   UNL     1       6.086  -0.365  -1.250  0.00  0.00    -0.311 N 
ATOM      2  C   UNL     1       5.871   0.943  -1.489  0.00  0.00    +0.266 C 
ATOM      3  O   UNL     1       5.145   1.584  -0.756  0.00  0.00    -0.268 OA
ATOM      4  H   UNL     1       6.744  -0.946  -1.914  0.00  0.00    +0.149 HD
ENDROOT
BRANCH   2   5
ATOM      5  C   UNL     1       6.522   1.602  -2.648  0.00  0.00    +0.168 A 
ATOM      6  C   UNL     1       6.399   2.962  -3.034  0.00  0.00    +0.086 A 
ATOM      7  C   UNL     1       7.185   3.058  -4.149  0.00  0.00    +0.168 A 
ATOM      8  O   UNL     1       7.701   1.833  -4.355  0.00  0.00    -0.354 OA
ATOM      9  N   UNL     1       7.326   1.043  -3.520  0.00  0.00    -0.073 NA
BRANCH   7  10
ATOM     10  C   UNL     1       7.426   4.269  -4.962  0.00  0.00    +0.020 A 
ATOM     11  C   UNL     1       6.810   5.474  -4.622  0.00  0.00    +0.013 A 
ATOM     12  C   UNL     1       7.043   6.602  -5.381  0.00  0.00    +0.016 A 
ATOM     13  C   UNL     1       7.876   6.537  -6.485  0.00  0.00    +0.018 A 
ATOM     14  C   UNL     1       8.485   5.343  -6.830  0.00  0.00    +0.016 A 
ATOM     15  C   UNL     1       8.265   4.210  -6.076  0.00  0.00    +0.013 A 
ATOM     16 BR   UNL     1       8.183   8.086  -7.526  0.00  0.00    -0.050 Br
ENDBRANCH   7  10
ENDBRANCH   2   5
BRANCH   1  17
ATOM     17  C   UNL     1       5.443  -1.016  -0.105  0.00  0.00    +0.097 C 
BRANCH  17  18
ATOM     18  C   UNL     1       5.754  -2.513  -0.128  0.00  0.00    +0.016 C 
BRANCH  18  23
ATOM     19  C   UNL     1      10.230  -2.971   2.152  0.00  0.00    +0.086 C 
ATOM     20  C   UNL     1       9.178  -2.922   1.074  0.00  0.00    +0.102 A 
ATOM     21  C   UNL     1       9.391  -3.098  -0.242  0.00  0.00    +0.044 A 
ATOM     22  C   UNL     1       8.136  -2.975  -0.881  0.00  0.00    +0.043 A 
ATOM     23  C   UNL     1       7.232  -2.723   0.083  0.00  0.00    +0.093 A 
ATOM     24  O   UNL     1       7.868  -2.695   1.265  0.00  0.00    -0.466 OA
ENDBRANCH  18  23
BRANCH  18  25
ATOM     25  N   UNL     1       5.007  -3.186   0.943  0.00  0.00    +0.387 N 
ATOM     26  C   UNL     1       3.544  -2.990   0.774  0.00  0.00    -0.078 C 
ATOM     27  C   UNL     1       2.934  -4.143   1.611  0.00  0.00    -0.020 C 
ATOM     28  C   UNL     1       3.910  -5.313   1.351  0.00  0.00    -0.020 C 
ATOM     29  C   UNL     1       5.226  -4.648   0.905  0.00  0.00    -0.078 C 
ATOM     30  H   UNL     1       5.372  -2.748   1.883  0.00  0.00    -0.081 HD
ENDBRANCH  18  25
ENDBRANCH  17  18
ENDBRANCH   1  17
TORSDOF 6
