REMARK  Name = ZINC63405445
REMARK  8 active torsions:
REMARK  status: ('A' for Active; 'I' for Inactive)
REMARK    1  A    between atoms: C_1  and  C_2
REMARK    2  A    between atoms: N_4  and  C_5
REMARK    3  A    between atoms: C_5  and  C_7
REMARK    4  A    between atoms: C_5  and  C_17
REMARK    5  A    between atoms: C_7  and  C_8
REMARK    6  A    between atoms: N_19  and  C_20
REMARK    7  A    between atoms: C_23  and  N_26
REMARK    8  A    between atoms: C_27  and  C_29
REMARK                            x       y       z     vdW  Elec       q    Type
REMARK                         _______ _______ _______ _____ _____    ______ ____
ROOT
ATOM      1  C   UNL     1      -1.192  -2.639  -0.423  0.00  0.00    +0.238 C 
ATOM      2  O   UNL     1      -1.791  -1.931   0.358  0.00  0.00    -0.273 OA
ATOM      3  N   UNL     1      -1.610  -3.900  -0.649  0.00  0.00    -0.284 N 
ATOM      4  H   UNL     1      -1.173  -4.443  -1.323  0.00  0.00    +0.155 HD
ENDROOT
BRANCH   3   5
ATOM      5  C   UNL     1      -2.678  -4.426   0.090  0.00  0.00    +0.034 A 
ATOM      6  C   UNL     1      -2.680  -5.768   0.448  0.00  0.00    +0.025 A 
ATOM      7  C   UNL     1      -3.732  -6.286   1.177  0.00  0.00    +0.025 A 
ATOM      8  C   UNL     1      -4.787  -5.466   1.552  0.00  0.00    +0.034 A 
ATOM      9  C   UNL     1      -4.785  -4.124   1.194  0.00  0.00    +0.025 A 
ATOM     10  C   UNL     1      -3.731  -3.604   0.470  0.00  0.00    +0.025 A 
BRANCH   8  11
ATOM     11  N   UNL     1      -5.855  -5.992   2.290  0.00  0.00    -0.283 N 
ATOM     12  C   UNL     1      -7.107  -5.538   2.083  0.00  0.00    +0.246 C 
ATOM     13  O   UNL     1      -7.298  -4.617   1.318  0.00  0.00    -0.273 OA
ATOM     14  H   UNL     1      -5.693  -6.683   2.951  0.00  0.00    +0.155 HD
BRANCH  12  15
ATOM     15  C   UNL     1      -8.268  -6.175   2.801  0.00  0.00    +0.204 C 
ATOM     16  C   UNL     1      -8.171  -5.907   4.324  0.00  0.00    +0.043 C 
ATOM     17  C   UNL     1      -9.661  -6.036   4.742  0.00  0.00    +0.031 C 
ATOM     18  C   UNL     1     -10.397  -5.475   3.507  0.00  0.00    +0.161 C 
ATOM     19  O   UNL     1      -9.503  -5.567   2.390  0.00  0.00    -0.367 OA
ENDBRANCH  12  15
ENDBRANCH   8  11
ENDBRANCH   3   5
BRANCH   1  20
ATOM     20  C   UNL     1       0.021  -2.108  -1.143  0.00  0.00    +0.163 C 
BRANCH  20  24
ATOM     21  C   UNL     1      -0.012   1.518   0.083  0.00  0.00    +0.109 C 
ATOM     22  C   UNL     1       0.009   0.012   0.059  0.00  0.00    +0.211 C 
ATOM     23  O   UNL     1       0.033  -0.611   1.099  0.00  0.00    -0.276 OA
ATOM     24  N   UNL     1       0.001  -0.643  -1.119  0.00  0.00    -0.304 N 
ATOM     25  H   UNL     1      -0.018  -0.144  -1.951  0.00  0.00    +0.149 HD
ENDBRANCH  20  24
BRANCH  20  26
ATOM     26  C   UNL     1       1.288  -2.611  -0.449  0.00  0.00    +0.065 C 
BRANCH  26  27
ATOM     27  C   UNL     1       2.498  -2.183  -1.238  0.00  0.00    -0.039 C 
ATOM     28  C   UNL     1       3.260  -1.085  -1.027  0.00  0.00    -0.001 A 
ATOM     29  C   UNL     1       3.192  -0.003  -0.038  0.00  0.00    +0.010 A 
ATOM     30  C   UNL     1       4.117   0.983  -0.080  0.00  0.00    +0.001 A 
ATOM     31  C   UNL     1       5.136   0.997  -1.041  0.00  0.00    +0.002 A 
ATOM     32  C   UNL     1       5.264   0.037  -1.982  0.00  0.00    +0.026 A 
ATOM     33  C   UNL     1       4.346  -1.048  -2.032  0.00  0.00    +0.043 A 
ATOM     34  N   UNL     1       4.260  -2.082  -2.833  0.00  0.00    -0.380 N 
ATOM     35  C   UNL     1       3.110  -2.897  -2.423  0.00  0.00    +0.144 C 
ATOM     36  H   UNL     1       4.857  -2.278  -3.571  0.00  0.00    +0.160 HD
ENDBRANCH  26  27
ENDBRANCH  20  26
ENDBRANCH   1  20
TORSDOF 7
