REMARK  Name = ZINC64717661
REMARK  1 active torsions:
REMARK  status: ('A' for Active; 'I' for Inactive)
REMARK    1  A    between atoms: C_7  and  C_17
REMARK                            x       y       z     vdW  Elec       q    Type
REMARK                         _______ _______ _______ _____ _____    ______ ____
ROOT
ATOM      1  C   UNL     1       0.074   2.001  -0.002  0.00  0.00    +0.022 A 
ATOM      2  C   UNL     1       1.269   2.627   0.039  0.00  0.00    +0.027 A 
ATOM      3  C   UNL     1       2.477   1.881  -0.001  0.00  0.00    +0.043 A 
ATOM      4  N   UNL     1       3.736   2.254   0.050  0.00  0.00    -0.376 N 
ATOM      5  C   UNL     1       4.576   1.073  -0.125  0.00  0.00    +0.128 C 
ATOM      6  C   UNL     1       5.570   0.881   1.024  0.00  0.00    +0.121 C 
ATOM      7  N   UNL     1       6.153  -0.465   0.911  0.00  0.00    -0.307 NA
ATOM      8  C   UNL     1       5.182  -1.537   1.145  0.00  0.00    +0.086 C 
ATOM      9  C   UNL     1       4.112  -1.532   0.038  0.00  0.00    +0.048 C 
ATOM     10  C   UNL     1       3.618  -0.108  -0.092  0.00  0.00    -0.035 C 
ATOM     11  C   UNL     1       2.381   0.402  -0.079  0.00  0.00    +0.001 A 
ATOM     12  C   UNL     1       1.042  -0.200  -0.124  0.00  0.00    +0.030 A 
ATOM     13  C   UNL     1      -0.044   0.606  -0.086  0.00  0.00    +0.042 A 
ATOM     14 CL   UNL     1      -1.627  -0.106  -0.140  0.00  0.00    -0.084 Cl
ATOM     15  H   UNL     1       6.617  -0.584   0.023  0.00  0.00    +0.123 HD
ATOM     16  H   UNL     1       4.054   3.161   0.181  0.00  0.00    +0.160 HD
ENDROOT
BRANCH   6  17
ATOM     17  C   UNL     1       4.853   1.016   2.343  0.00  0.00    +0.102 A 
ATOM     18  C   UNL     1       3.765   0.213   2.643  0.00  0.00    +0.282 A 
ATOM     19  N   UNL     1       3.197   0.310   3.844  0.00  0.00    -0.185 NA
ATOM     20  C   UNL     1       3.599   1.197   4.742  0.00  0.00    +0.175 A 
ATOM     21  N   UNL     1       4.576   2.093   4.451  0.00  0.00    -0.287 N 
ATOM     22  C   UNL     1       5.276   1.949   3.292  0.00  0.00    +0.263 A 
ATOM     23  O   UNL     1       6.263   2.634   3.081  0.00  0.00    -0.267 OA
ATOM     24  C   UNL     1       4.901   3.262   5.259  0.00  0.00    +0.128 C 
ATOM     25  C   UNL     1       4.699   3.060   6.750  0.00  0.00    +0.033 C 
ATOM     26  C   UNL     1       3.208   2.797   7.018  0.00  0.00    +0.079 C 
ATOM     27  S   UNL     1       2.832   1.155   6.335  0.00  0.00    -0.087 S 
ATOM     28  O   UNL     1       3.284  -0.658   1.726  0.00  0.00    -0.265 OA
ENDBRANCH   6  17
TORSDOF 1
