REMARK  Name = ZINC49947101
REMARK  5 active torsions:
REMARK  status: ('A' for Active; 'I' for Inactive)
REMARK    1  A    between atoms: C_1  and  C_2
REMARK    2  A    between atoms: C_2  and  N_3
REMARK    3  A    between atoms: C_13  and  C_28
REMARK    4  A    between atoms: C_14  and  N_27
REMARK    5  A    between atoms: C_24  and  C_25
REMARK                            x       y       z     vdW  Elec       q    Type
REMARK                         _______ _______ _______ _____ _____    ______ ____
ROOT
ATOM      1  N   UNL     1       0.630  -0.500  -1.275  0.00  0.00    -0.270 N 
ATOM      2  C   UNL     1       0.022  -0.745  -2.508  0.00  0.00    +0.041 A 
ATOM      3  C   UNL     1      -1.308  -0.631  -2.906  0.00  0.00    +0.024 A 
ATOM      4  C   UNL     1      -1.673  -0.934  -4.201  0.00  0.00    +0.002 A 
ATOM      5  C   UNL     1      -0.723  -1.354  -5.114  0.00  0.00    +0.000 A 
ATOM      6  C   UNL     1       0.600  -1.470  -4.727  0.00  0.00    +0.007 A 
ATOM      7  C   UNL     1       0.968  -1.168  -3.435  0.00  0.00    -0.001 A 
ATOM      8  C   UNL     1       2.283  -1.184  -2.705  0.00  0.00    +0.148 C 
ATOM      9  C   UNL     1       1.956  -0.730  -1.308  0.00  0.00    +0.241 C 
ATOM     10  O   UNL     1       2.737  -0.598  -0.389  0.00  0.00    -0.273 OA
ATOM     11  C   UNL     1       2.784  -2.603  -2.651  0.00  0.00    +0.090 C 
ATOM     12  C   UNL     1       4.001  -2.877  -3.184  0.00  0.00    +0.108 C 
ATOM     13  N   UNL     1       4.814  -1.912  -3.781  0.00  0.00    -0.249 N 
ATOM     14  C   UNL     1       6.067  -2.205  -4.354  0.00  0.00    +0.054 A 
ATOM     15  C   UNL     1       6.667  -3.474  -4.418  0.00  0.00    +0.025 A 
ATOM     16  C   UNL     1       7.900  -3.639  -5.003  0.00  0.00    +0.002 A 
ATOM     17  C   UNL     1       8.587  -2.567  -5.546  0.00  0.00    +0.001 A 
ATOM     18  C   UNL     1       8.017  -1.306  -5.496  0.00  0.00    +0.017 A 
ATOM     19  C   UNL     1       6.783  -1.144  -4.910  0.00  0.00    +0.036 A 
ATOM     20  S   UNL     1       5.723   0.255  -4.643  0.00  0.00    -0.071 S 
ATOM     21  C   UNL     1       4.393  -0.604  -3.830  0.00  0.00    +0.093 C 
ATOM     22  C   UNL     1       3.192  -0.160  -3.337  0.00  0.00    +0.082 C 
ENDROOT
BRANCH  12  23
ATOM     23  N   UNL     1       4.458  -4.173  -3.134  0.00  0.00    -0.345 N 
ATOM     24  H   UNL     1       3.908  -4.894  -3.477  0.00  0.00    +0.144 HD
ATOM     25  H   UNL     1       5.330  -4.365  -2.755  0.00  0.00    +0.144 HD
ENDBRANCH  12  23
BRANCH   1  27
ATOM     26  C   UNL     1      -0.114   1.490  -0.062  0.00  0.00    +0.025 C 
ATOM     27  C   UNL     1      -0.091  -0.040  -0.085  0.00  0.00    +0.110 C 
ENDBRANCH   1  27
BRANCH  22  28
ATOM     28  C   UNL     1       2.818   1.220  -3.419  0.00  0.00    +0.099 C 
ATOM     29  N   UNL     1       2.521   2.315  -3.484  0.00  0.00    -0.191 NA
ENDBRANCH  22  28
BRANCH  11  30
ATOM     30  C   UNL     1       1.996  -3.638  -2.051  0.00  0.00    +0.100 C 
ATOM     31  N   UNL     1       1.371  -4.458  -1.576  0.00  0.00    -0.191 NA
ENDBRANCH  11  30
TORSDOF 4
