REMARK  Name = ZINC15134009
REMARK  8 active torsions:
REMARK  status: ('A' for Active; 'I' for Inactive)
REMARK    1  A    between atoms: C_1  and  C_2
REMARK    2  A    between atoms: C_5  and  N_9
REMARK    3  A    between atoms: C_7  and  C_8
REMARK    4  A    between atoms: C_13  and  N_14
REMARK    5  A    between atoms: N_14  and  C_15
REMARK    6  A    between atoms: C_18  and  N_21
REMARK    7  A    between atoms: C_22  and  C_24
REMARK    8  A    between atoms: C_25  and  C_27
REMARK                            x       y       z     vdW  Elec       q    Type
REMARK                         _______ _______ _______ _____ _____    ______ ____
ROOT
ATOM      1  N   UNL     1       0.094  -4.157  -0.039  0.00  0.00    -0.156 N 
ATOM      2  C   UNL     1       0.037  -4.929  -1.143  0.00  0.00    +0.273 C 
ATOM      3  O   UNL     1      -0.141  -4.556  -2.291  0.00  0.00    -0.268 OA
ATOM      4  C   UNL     1       0.230  -6.310  -0.683  0.00  0.00    +0.075 C 
ATOM      5  C   UNL     1       0.251  -7.461  -1.454  0.00  0.00    +0.087 C 
ATOM      6  C   UNL     1       0.397  -6.205   0.774  0.00  0.00    +0.070 C 
ATOM      7  N   UNL     1       0.317  -4.947   1.088  0.00  0.00    -0.176 NA
ATOM      8  C   UNL     1       0.627  -7.348   1.729  0.00  0.00    +0.068 C 
ENDROOT
BRANCH   1  13
ATOM      9  C   UNL     1      -0.462   1.490   0.009  0.00  0.00    +0.044 C 
ATOM     10  C   UNL     1      -0.314  -0.010  -0.004  0.00  0.00    -0.047 A 
ATOM     11  C   UNL     1      -0.397  -0.701  -1.199  0.00  0.00    +0.005 A 
ATOM     12  C   UNL     1      -0.262  -2.075  -1.214  0.00  0.00    +0.026 A 
ATOM     13  C   UNL     1      -0.043  -2.763  -0.027  0.00  0.00    +0.061 A 
ATOM     14  C   UNL     1       0.040  -2.066   1.171  0.00  0.00    +0.029 A 
ATOM     15  C   UNL     1      -0.091  -0.691   1.179  0.00  0.00    -0.046 A 
ATOM     16  C   UNL     1       0.005   0.067   2.478  0.00  0.00    +0.044 C 
ENDBRANCH   1  13
BRANCH   5  17
ATOM     17  N   UNL     1       0.080  -7.381  -2.789  0.00  0.00    -0.320 N 
ATOM     18  H   UNL     1      -0.058  -6.518  -3.210  0.00  0.00    +0.152 HD
BRANCH  17  19
ATOM     19  C   UNL     1       0.101  -8.543  -3.567  0.00  0.00    +0.031 A 
ATOM     20  C   UNL     1       0.292  -9.780  -2.964  0.00  0.00    +0.025 A 
ATOM     21  C   UNL     1       0.313 -10.927  -3.732  0.00  0.00    +0.025 A 
ATOM     22  C   UNL     1       0.142 -10.844  -5.108  0.00  0.00    +0.033 A 
ATOM     23  C   UNL     1      -0.048  -9.608  -5.712  0.00  0.00    +0.025 A 
ATOM     24  C   UNL     1      -0.075  -8.462  -4.943  0.00  0.00    +0.025 A 
BRANCH  22  25
ATOM     25  N   UNL     1       0.164 -12.008  -5.887  0.00  0.00    -0.286 N 
ATOM     26  C   UNL     1       0.661 -11.972  -7.139  0.00  0.00    +0.214 C 
ATOM     27  O   UNL     1       1.178 -10.957  -7.557  0.00  0.00    -0.276 OA
ATOM     28  C   UNL     1       0.576 -13.192  -8.019  0.00  0.00    +0.109 C 
ATOM     29  H   UNL     1      -0.180 -12.840  -5.526  0.00  0.00    +0.155 HD
ENDBRANCH  22  25
ENDBRANCH  17  19
ENDBRANCH   5  17
TORSDOF 4
