REMARK  Name = ZINC08442431
REMARK  14 active torsions:
REMARK  status: ('A' for Active; 'I' for Inactive)
REMARK    1  A    between atoms: C_1  and  C_2
REMARK    2  A    between atoms: C_2  and  O_3
REMARK    3  A    between atoms: O_3  and  C_4
REMARK    4  A    between atoms: C_6  and  C_20
REMARK    5  A    between atoms: C_9  and  O_10
REMARK    6  A    between atoms: O_10  and  C_11
REMARK    7  A    between atoms: C_11  and  C_12
REMARK    8  A    between atoms: N_14  and  C_15
REMARK    9  A    between atoms: C_15  and  C_16
REMARK   10  A    between atoms: C_15  and  C_17
REMARK   11  A    between atoms: C_15  and  C_18
REMARK   12  A    between atoms: C_20  and  N_21
REMARK   13  A    between atoms: N_21  and  C_22
REMARK   14  A    between atoms: C_25  and  N_28
REMARK                            x       y       z     vdW  Elec       q    Type
REMARK                         _______ _______ _______ _____ _____    ______ ____
ROOT
ATOM      1  C   UNL     1       0.777  -1.811  -1.336  0.00  0.00    +0.163 A 
ATOM      2  C   UNL     1       0.243  -2.669  -0.388  0.00  0.00    +0.054 A 
ATOM      3  C   UNL     1       0.352  -4.037  -0.554  0.00  0.00    -0.026 A 
ATOM      4  C   UNL     1       0.992  -4.553  -1.665  0.00  0.00    +0.024 A 
ATOM      5  C   UNL     1       1.527  -3.702  -2.616  0.00  0.00    +0.063 A 
ATOM      6  C   UNL     1       1.416  -2.329  -2.458  0.00  0.00    +0.176 A 
ATOM      7 BR   UNL     1       2.403  -4.412  -4.134  0.00  0.00    -0.046 Br
ENDROOT
BRANCH   1   8
ATOM      8  O   UNL     1       0.671  -0.465  -1.174  0.00  0.00    -0.489 OA
BRANCH   8  10
ATOM      9  C   UNL     1      -0.019   1.526   0.010  0.00  0.00    +0.048 C 
ATOM     10  C   UNL     1       0.002  -0.004   0.002  0.00  0.00    +0.226 C 
ENDBRANCH   8  10
ENDBRANCH   1   8
BRANCH   6  11
ATOM     11  O   UNL     1       1.936  -1.491  -3.394  0.00  0.00    -0.478 OA
BRANCH  11  12
ATOM     12  C   UNL     1       3.293  -1.080  -3.215  0.00  0.00    +0.324 C 
BRANCH  12  13
ATOM     13  C   UNL     1       3.692  -0.161  -4.341  0.00  0.00    +0.251 C 
ATOM     14  O   UNL     1       2.893   0.114  -5.211  0.00  0.00    -0.272 OA
ATOM     15  N   UNL     1       4.937   0.354  -4.380  0.00  0.00    -0.308 N 
ATOM     16  H   UNL     1       5.575   0.134  -3.684  0.00  0.00    +0.149 HD
BRANCH  15  17
ATOM     17  C   UNL     1       5.325   1.248  -5.475  0.00  0.00    +0.026 C 
ATOM     18  C   UNL     1       4.415   2.478  -5.476  0.00  0.00    +0.031 C 
ATOM     19  C   UNL     1       6.777   1.688  -5.283  0.00  0.00    +0.031 C 
ATOM     20  C   UNL     1       5.188   0.510  -6.808  0.00  0.00    +0.031 C 
ENDBRANCH  15  17
ENDBRANCH  12  13
ENDBRANCH  11  12
ENDBRANCH   6  11
BRANCH   3  21
ATOM     21  C   UNL     1      -0.228  -4.968   0.479  0.00  0.00    +0.137 C 
BRANCH  21  22
ATOM     22  N   UNL     1      -1.616  -5.282   0.129  0.00  0.00    -0.340 N 
ATOM     23  H   UNL     1      -2.013  -4.899  -0.668  0.00  0.00    +0.146 HD
BRANCH  22  24
ATOM     24  C   UNL     1      -2.366  -6.133   0.944  0.00  0.00    +0.027 A 
ATOM     25  C   UNL     1      -1.800  -6.678   2.090  0.00  0.00    +0.025 A 
ATOM     26  C   UNL     1      -2.545  -7.518   2.894  0.00  0.00    +0.023 A 
ATOM     27  C   UNL     1      -3.853  -7.818   2.559  0.00  0.00    +0.014 A 
ATOM     28  C   UNL     1      -4.419  -7.277   1.419  0.00  0.00    +0.023 A 
ATOM     29  C   UNL     1      -3.682  -6.431   0.614  0.00  0.00    +0.025 A 
BRANCH  27  30
ATOM     30  N   UNL     1      -4.604  -8.670   3.374  0.00  0.00    -0.393 NA
ATOM     31  C   UNL     1      -5.021  -9.845   2.599  0.00  0.00    +0.085 C 
ATOM     32  C   UNL     1      -5.774 -10.819   3.508  0.00  0.00    +0.017 C 
ATOM     33  C   UNL     1      -7.009 -10.120   4.083  0.00  0.00    +0.003 C 
ATOM     34  C   UNL     1      -6.569  -8.856   4.826  0.00  0.00    +0.017 C 
ATOM     35  C   UNL     1      -5.786  -7.954   3.869  0.00  0.00    +0.085 C 
ATOM     36  H   UNL     1      -4.041  -8.968   4.156  0.00  0.00    +0.126 HD
ENDBRANCH  27  30
ENDBRANCH  22  24
ENDBRANCH  21  22
ENDBRANCH   3  21
TORSDOF 10
