REMARK  Name = ZINC52983536
REMARK  5 active torsions:
REMARK  status: ('A' for Active; 'I' for Inactive)
REMARK    1  A    between atoms: C_1  and  C_2
REMARK    2  A    between atoms: C_6  and  C_8
REMARK    3  A    between atoms: C_8  and  C_10
REMARK    4  A    between atoms: C_10  and  C_12
REMARK    5  A    between atoms: C_10  and  C_14
REMARK                            x       y       z     vdW  Elec       q    Type
REMARK                         _______ _______ _______ _____ _____    ______ ____
ROOT
ATOM      1  C   UNL     1       0.047  -2.101   3.763  0.00  0.00    +0.192 C 
ENDROOT
BRANCH   1   2
ATOM      2  C   UNL     1      -0.537  -2.983   4.836  0.00  0.00    -0.022 A 
ATOM      3  C   UNL     1       0.063  -4.190   5.141  0.00  0.00    +0.007 A 
ATOM      4  C   UNL     1      -0.472  -5.000   6.125  0.00  0.00    +0.022 A 
ATOM      5  C   UNL     1      -1.609  -4.602   6.806  0.00  0.00    +0.059 A 
ATOM      6  C   UNL     1      -2.210  -3.393   6.500  0.00  0.00    +0.060 A 
ATOM      7  C   UNL     1      -1.670  -2.581   5.519  0.00  0.00    +0.026 A 
ATOM      8 CL   UNL     1      -3.637  -2.892   7.353  0.00  0.00    -0.082 Cl
ATOM      9 CL   UNL     1      -2.282  -5.619   8.041  0.00  0.00    -0.082 Cl
ENDBRANCH   1   2
BRANCH   1  10
ATOM     10  C   UNL     1       0.051  -2.843   2.450  0.00  0.00    +0.187 C 
ATOM     11  O   UNL     1       0.066  -4.055   2.439  0.00  0.00    -0.290 OA
BRANCH  10  17
ATOM     12  C   UNL     1      -0.018   1.503   0.010  0.00  0.00    +0.044 C 
ATOM     13  C   UNL     1       0.002  -0.004   0.002  0.00  0.00    -0.050 A 
ATOM     14  C   UNL     1       0.006  -0.687  -1.203  0.00  0.00    +0.006 A 
ATOM     15  C   UNL     1       0.024  -2.069  -1.223  0.00  0.00    +0.039 A 
ATOM     16  C   UNL     1       0.039  -2.781  -0.038  0.00  0.00    +0.134 A 
ATOM     17  C   UNL     1       0.036  -2.096   1.185  0.00  0.00    +0.054 A 
ATOM     18  C   UNL     1       0.023  -0.697   1.193  0.00  0.00    +0.017 A 
ATOM     19  F   UNL     1       0.056  -4.132  -0.058  0.00  0.00    -0.205 F 
ENDBRANCH  10  17
ENDBRANCH   1  10
BRANCH   1  20
ATOM     20  C   UNL     1       1.427  -1.737   4.124  0.00  0.00    +0.079 C 
ATOM     21  N   UNL     1       2.492  -1.456   4.403  0.00  0.00    -0.195 NA
ENDBRANCH   1  20
TORSDOF 4
