REMARK  Name = ZINC33544105
REMARK  1 active torsions:
REMARK  status: ('A' for Active; 'I' for Inactive)
REMARK    1  A    between atoms: C_16  and  C_18
REMARK                            x       y       z     vdW  Elec       q    Type
REMARK                         _______ _______ _______ _____ _____    ______ ____
ROOT
ATOM      1  C   UNL     1      -1.236   2.563   0.022  0.00  0.00    +0.019 A 
ATOM      2  C   UNL     1      -1.276   3.940   0.035  0.00  0.00    +0.048 A 
ATOM      3  C   UNL     1      -0.092   4.671   0.027  0.00  0.00    +0.140 A 
ATOM      4  C   UNL     1       1.134   3.983   0.012  0.00  0.00    +0.065 A 
ATOM      5  C   UNL     1       1.162   2.590   0.005  0.00  0.00    +0.030 A 
ATOM      6  C   UNL     1      -0.024   1.887   0.012  0.00  0.00    +0.019 A 
ATOM      7 BR   UNL     1       0.002  -0.004   0.002  0.00  0.00    -0.050 Br
ATOM      8  C   UNL     1       2.377   4.779   0.004  0.00  0.00    +0.199 A 
ATOM      9  O   UNL     1       3.475   4.250  -0.009  0.00  0.00    -0.287 OA
ATOM     10  C   UNL     1       2.226   6.236   0.012  0.00  0.00    +0.072 A 
ATOM     11  C   UNL     1       0.986   6.786   0.027  0.00  0.00    +0.199 A 
ATOM     12  O   UNL     1      -0.120   6.016   0.034  0.00  0.00    -0.450 OA
ATOM     13  C   UNL     1       1.130   8.262   0.032  0.00  0.00    +0.289 C 
ATOM     14  O   UNL     1       0.205   9.051   0.045  0.00  0.00    -0.266 OA
ATOM     15  N   UNL     1       2.430   8.603   0.021  0.00  0.00    -0.232 N 
ATOM     16  C   UNL     1       3.222   7.367   0.008  0.00  0.00    +0.152 C 
ATOM     17  C   UNL     1       2.936   9.896   0.022  0.00  0.00    +0.168 A 
ATOM     18  N   UNL     1       4.193  10.294   0.018  0.00  0.00    -0.233 NA
ATOM     19  C   UNL     1       4.504  11.575   0.015  0.00  0.00    +0.120 A 
ATOM     20  C   UNL     1       3.498  12.484   0.029  0.00  0.00    +0.068 A 
ATOM     21  S   UNL     1       2.075  11.404   0.038  0.00  0.00    -0.060 S 
ENDROOT
BRANCH  16  22
ATOM     22  C   UNL     1       4.095   7.294   1.234  0.00  0.00    -0.019 A 
ATOM     23  C   UNL     1       3.643   7.770   2.456  0.00  0.00    +0.025 A 
ATOM     24  C   UNL     1       4.470   7.683   3.560  0.00  0.00    +0.111 A 
ATOM     25  N   UNL     1       5.678   7.163   3.458  0.00  0.00    -0.263 NA
ATOM     26  C   UNL     1       6.142   6.704   2.312  0.00  0.00    +0.111 A 
ATOM     27  C   UNL     1       5.370   6.754   1.167  0.00  0.00    +0.025 A 
ENDBRANCH  16  22
TORSDOF 1
