REMARK  Name = ZINC35664915
REMARK  11 active torsions:
REMARK  status: ('A' for Active; 'I' for Inactive)
REMARK    1  A    between atoms: C_1  and  C_2
REMARK    2  A    between atoms: C_2  and  O_3
REMARK    3  A    between atoms: O_3  and  C_4
REMARK    4  A    between atoms: C_4  and  C_6
REMARK    5  A    between atoms: C_7  and  C_24
REMARK    6  A    between atoms: N_8  and  C_21
REMARK    7  A    between atoms: C_12  and  C_14
REMARK    8  A    between atoms: C_18  and  C_20
REMARK    9  A    between atoms: C_21  and  C_22
REMARK   10  A    between atoms: C_24  and  N_25
REMARK   11  A    between atoms: C_32  and  C_34
REMARK                            x       y       z     vdW  Elec       q    Type
REMARK                         _______ _______ _______ _____ _____    ______ ____
ROOT
ATOM      1  C   UNL     1      -2.378  -2.481   0.361  0.00  0.00    +0.076 C 
ATOM      2  C   UNL     1      -2.701  -3.745   0.011  0.00  0.00    +0.011 C 
ATOM      3  N   UNL     1      -3.999  -4.104  -0.215  0.00  0.00    -0.257 N 
ATOM      4  C   UNL     1      -5.032  -3.257  -0.114  0.00  0.00    +0.307 C 
ATOM      5  O   UNL     1      -6.154  -3.670  -0.336  0.00  0.00    -0.252 OA
ATOM      6  N   UNL     1      -4.868  -1.964   0.226  0.00  0.00    -0.288 N 
ATOM      7  C   UNL     1      -3.505  -1.477   0.498  0.00  0.00    +0.143 C 
ATOM      8  H   UNL     1      -5.630  -1.368   0.293  0.00  0.00    +0.151 HD
ENDROOT
BRANCH   7   9
ATOM      9  C   UNL     1      -3.227  -0.335  -0.446  0.00  0.00    -0.022 A 
ATOM     10  C   UNL     1      -3.529  -0.460  -1.789  0.00  0.00    +0.006 A 
ATOM     11  C   UNL     1      -3.274   0.588  -2.655  0.00  0.00    +0.001 A 
ATOM     12  C   UNL     1      -2.718   1.760  -2.176  0.00  0.00    +0.003 A 
ATOM     13  C   UNL     1      -2.417   1.884  -0.833  0.00  0.00    -0.050 A 
ATOM     14  C   UNL     1      -2.676   0.838   0.033  0.00  0.00    +0.009 A 
ATOM     15  C   UNL     1      -1.811   3.162  -0.312  0.00  0.00    +0.044 C 
ENDBRANCH   7   9
BRANCH   1  16
ATOM     16  C   UNL     1      -1.034  -2.108   0.596  0.00  0.00    +0.339 C 
ATOM     17  O   UNL     1      -0.156  -2.950   0.570  0.00  0.00    -0.245 OA
BRANCH  16  18
ATOM     18  O   UNL     1      -0.726  -0.819   0.850  0.00  0.00    -0.462 OA
BRANCH  18  20
ATOM     19  C   UNL     1       0.804   0.984   1.348  0.00  0.00    +0.048 C 
ATOM     20  C   UNL     1       0.651  -0.514   1.079  0.00  0.00    +0.229 C 
ENDBRANCH  18  20
ENDBRANCH  16  18
ENDBRANCH   1  16
BRANCH   3  21
ATOM     21  C   UNL     1      -4.277  -5.492  -0.591  0.00  0.00    +0.141 C 
BRANCH  21  22
ATOM     22  C   UNL     1      -4.629  -6.285   0.641  0.00  0.00    -0.015 C 
ATOM     23  C   UNL     1      -5.778  -6.911   0.711  0.00  0.00    +0.005 C 
ENDBRANCH  21  22
ENDBRANCH   3  21
BRANCH   2  24
ATOM     24  C   UNL     1      -1.611  -4.776  -0.131  0.00  0.00    -0.026 C 
BRANCH  24  25
ATOM     25  N   UNL     1      -1.193  -4.856  -1.537  0.00  0.00    +0.384 N 
ATOM     26  C   UNL     1      -0.332  -6.026  -1.696  0.00  0.00    -0.077 C 
ATOM     27  C   UNL     1      -0.469  -6.558  -3.106  0.00  0.00    +0.000 C 
ATOM     28  C   UNL     1       0.630  -5.944  -3.993  0.00  0.00    +0.106 C 
ATOM     29  N   UNL     1       0.839  -4.518  -3.670  0.00  0.00    -0.299 N 
ATOM     30  C   UNL     1      -0.262  -3.614  -3.404  0.00  0.00    +0.089 C 
ATOM     31  C   UNL     1      -0.598  -3.626  -1.895  0.00  0.00    -0.059 C 
ATOM     32  C   UNL     1       2.098  -4.041  -3.619  0.00  0.00    +0.247 C 
ATOM     33  O   UNL     1       2.302  -2.901  -3.250  0.00  0.00    -0.270 OA
ATOM     34  H   UNL     1      -2.016  -4.989  -2.105  0.00  0.00    -0.081 HD
BRANCH  32  35
ATOM     35  C   UNL     1       3.232  -4.904  -4.014  0.00  0.00    +0.040 A 
ATOM     36  C   UNL     1       3.089  -5.812  -5.065  0.00  0.00    +0.013 A 
ATOM     37  C   UNL     1       4.150  -6.614  -5.429  0.00  0.00    +0.004 A 
ATOM     38  C   UNL     1       5.355  -6.523  -4.755  0.00  0.00    +0.038 A 
ATOM     39  C   UNL     1       5.504  -5.625  -3.711  0.00  0.00    +0.124 A 
ATOM     40  C   UNL     1       4.450  -4.811  -3.340  0.00  0.00    +0.051 A 
ATOM     41  F   UNL     1       6.683  -5.541  -3.057  0.00  0.00    -0.205 F 
ENDBRANCH  32  35
ENDBRANCH  24  25
ENDBRANCH   2  24
TORSDOF 9
