REMARK  Name = ZINC13816337
REMARK  6 active torsions:
REMARK  status: ('A' for Active; 'I' for Inactive)
REMARK    1  A    between atoms: C_1  and  O_2
REMARK    2  A    between atoms: O_2  and  C_3
REMARK    3  A    between atoms: C_15  and  N_17
REMARK    4  A    between atoms: C_20  and  N_24
REMARK    5  A    between atoms: C_26  and  S_27
REMARK    6  A    between atoms: S_27  and  C_28
REMARK                            x       y       z     vdW  Elec       q    Type
REMARK                         _______ _______ _______ _____ _____    ______ ____
ROOT
ATOM      1  N   UNL     1      -2.406   7.772  -0.229  0.00  0.00    -0.274 N 
ATOM      2  C   UNL     1      -3.765   7.570  -0.305  0.00  0.00    +0.168 A 
ATOM      3  C   UNL     1      -3.960   6.183  -0.206  0.00  0.00    +0.148 A 
ATOM      4  C   UNL     1      -5.276   5.693  -0.251  0.00  0.00    +0.147 A 
ATOM      5  N   UNL     1      -6.272   6.564  -0.384  0.00  0.00    -0.219 NA
ATOM      6  C   UNL     1      -6.039   7.860  -0.473  0.00  0.00    +0.225 A 
ATOM      7  N   UNL     1      -4.823   8.364  -0.435  0.00  0.00    -0.216 NA
ATOM      8  N   UNL     1      -2.737   5.611  -0.082  0.00  0.00    -0.216 NA
ATOM      9  C   UNL     1      -1.817   6.544  -0.098  0.00  0.00    +0.178 A 
ENDROOT
BRANCH   1  19
ATOM     10  C   UNL     1      -1.220   9.454   1.133  0.00  0.00    +0.199 C 
ATOM     11  C   UNL     1       0.304   9.522   0.965  0.00  0.00    +0.194 C 
ATOM     12  C   UNL     1       0.418   9.836  -0.552  0.00  0.00    +0.179 C 
ATOM     13  C   UNL     1       1.856   9.642  -0.990  0.00  0.00    +0.206 C 
ATOM     14  O   UNL     1       2.635  10.672  -0.336  0.00  0.00    -0.282 OA
ATOM     15  P   UNL     1       2.487  10.917   1.262  0.00  0.00    +0.505 P 
ATOM     16  O   UNL     1       2.824  12.320   1.592  0.00  0.00    -0.225 OA
ATOM     17  O   UNL     1       0.930  10.613   1.646  0.00  0.00    -0.276 OA
ATOM     18  O   UNL     1      -0.552   8.967  -1.136  0.00  0.00    -0.346 OA
ATOM     19  C   UNL     1      -1.717   9.064  -0.281  0.00  0.00    +0.255 C 
ATOM     20  O   UNL     1       3.457   9.914   2.065  0.00  0.00    -0.116 OA
BRANCH  10  22
ATOM     21  C   UNL     1      -2.978  10.657   2.232  0.00  0.00    +0.194 C 
ATOM     22  O   UNL     1      -1.742  10.727   1.518  0.00  0.00    -0.373 OA
ENDBRANCH  10  22
ENDBRANCH   1  19
BRANCH   4  23
ATOM     23  N   UNL     1      -5.530   4.334  -0.158  0.00  0.00    -0.341 N 
ATOM     24  H   UNL     1      -5.077   3.858  -0.911  0.00  0.00    +0.144 HD
ATOM     25  H   UNL     1      -6.443   4.008  -0.190  0.00  0.00    +0.144 HD
ENDBRANCH   4  23
BRANCH   9  26
ATOM     26  S   UNL     1      -0.083   6.261   0.036  0.00  0.00    -0.052 S 
BRANCH  26  27
ATOM     27  C   UNL     1      -0.059   4.499   0.022  0.00  0.00    +0.016 A 
ATOM     28  C   UNL     1      -0.057   3.812  -1.185  0.00  0.00    +0.016 A 
ATOM     29  C   UNL     1      -0.038   2.431  -1.192  0.00  0.00    +0.021 A 
ATOM     30  C   UNL     1      -0.020   1.732   0.002  0.00  0.00    +0.041 A 
ATOM     31  C   UNL     1      -0.027   2.413   1.206  0.00  0.00    +0.021 A 
ATOM     32  C   UNL     1      -0.041   3.794   1.220  0.00  0.00    +0.016 A 
ATOM     33 CL   UNL     1       0.004  -0.004  -0.011  0.00  0.00    -0.084 Cl
ENDBRANCH  26  27
ENDBRANCH   9  26
TORSDOF 5
