REMARK  Name = ZINC34834928
REMARK  12 active torsions:
REMARK  status: ('A' for Active; 'I' for Inactive)
REMARK    1  A    between atoms: C_1  and  C_2
REMARK    2  A    between atoms: C_2  and  C_3
REMARK    3  A    between atoms: C_3  and  C_5
REMARK    4  A    between atoms: C_3  and  N_6
REMARK    5  A    between atoms: N_6  and  C_7
REMARK    6  A    between atoms: C_7  and  C_8
REMARK    7  A    between atoms: C_9  and  C_27
REMARK    8  A    between atoms: N_11  and  C_21
REMARK    9  A    between atoms: C_12  and  N_13
REMARK   10  A    between atoms: N_16  and  C_19
REMARK   11  A    between atoms: C_19  and  C_20
REMARK   12  A    between atoms: C_28  and  C_30
REMARK                            x       y       z     vdW  Elec       q    Type
REMARK                         _______ _______ _______ _____ _____    ______ ____
ROOT
ATOM      1  C   UNL     1       0.861   2.106   3.686  0.00  0.00    +0.032 A 
ATOM      2  C   UNL     1       1.905   2.236   2.766  0.00  0.00    +0.067 A 
ATOM      3  N   UNL     1       1.510   3.025   1.799  0.00  0.00    -0.170 NA
ATOM      4  N   UNL     1       0.196   3.429   2.066  0.00  0.00    -0.218 N 
ATOM      5  C   UNL     1      -0.189   2.845   3.234  0.00  0.00    +0.130 A 
ATOM      6  C   UNL     1       3.258   1.580   2.869  0.00  0.00    +0.068 C 
ENDROOT
BRANCH   5   7
ATOM      7  N   UNL     1      -1.428   2.982   3.854  0.00  0.00    -0.318 N 
ATOM      8  C   UNL     1      -1.577   3.786   5.077  0.00  0.00    +0.088 C 
ATOM      9  C   UNL     1      -2.742   4.761   4.878  0.00  0.00    -0.060 C 
ATOM     10  N   UNL     1      -3.945   4.013   4.494  0.00  0.00    +0.382 N 
ATOM     11  C   UNL     1      -3.740   3.371   3.190  0.00  0.00    -0.060 C 
ATOM     12  C   UNL     1      -2.626   2.331   3.302  0.00  0.00    +0.088 C 
ATOM     13  H   UNL     1      -4.136   3.307   5.189  0.00  0.00    -0.082 HD
BRANCH  10  14
ATOM     14  C   UNL     1      -5.087   4.934   4.411  0.00  0.00    -0.082 C 
ATOM     15  C   UNL     1      -6.364   4.139   4.134  0.00  0.00    -0.017 C 
ENDBRANCH  10  14
ENDBRANCH   5   7
BRANCH   4  16
ATOM     16  C   UNL     1      -0.586   4.278   1.270  0.00  0.00    +0.067 A 
ATOM     17  C   UNL     1      -1.774   3.816   0.719  0.00  0.00    +0.028 A 
ATOM     18  C   UNL     1      -2.542   4.655  -0.064  0.00  0.00    +0.002 A 
ATOM     19  C   UNL     1      -2.129   5.954  -0.300  0.00  0.00    +0.000 A 
ATOM     20  C   UNL     1      -0.946   6.416   0.247  0.00  0.00    +0.002 A 
ATOM     21  C   UNL     1      -0.177   5.584   1.036  0.00  0.00    +0.028 A 
ENDBRANCH   4  16
BRANCH   1  22
ATOM     22  C   UNL     1       0.890   1.287   4.950  0.00  0.00    +0.148 C 
BRANCH  22  23
ATOM     23  N   UNL     1       0.356  -0.050   4.679  0.00  0.00    -0.290 N 
ATOM     24  C   UNL     1      -0.871  -0.388   5.122  0.00  0.00    +0.249 C 
ATOM     25  O   UNL     1      -1.531   0.413   5.755  0.00  0.00    -0.270 OA
BRANCH  24  26
ATOM     26  C   UNL     1      -1.415  -1.732   4.837  0.00  0.00    +0.055 A 
ATOM     27  C   UNL     1      -0.978  -2.442   3.717  0.00  0.00    +0.016 A 
ATOM     28  C   UNL     1      -1.489  -3.696   3.457  0.00  0.00    +0.021 A 
ATOM     29  C   UNL     1      -2.436  -4.251   4.303  0.00  0.00    +0.042 A 
ATOM     30  C   UNL     1      -2.874  -3.553   5.414  0.00  0.00    +0.040 A 
ATOM     31  C   UNL     1      -2.365  -2.299   5.690  0.00  0.00    +0.054 A 
ATOM     32 CL   UNL     1      -2.909  -1.428   7.089  0.00  0.00    -0.083 Cl
ATOM     33 CL   UNL     1      -3.074  -5.830   3.966  0.00  0.00    -0.083 Cl
ENDBRANCH  24  26
BRANCH  23  34
ATOM     34  C   UNL     1       1.156  -1.020   3.926  0.00  0.00    +0.073 C 
ATOM     35  C   UNL     1       0.911  -0.829   2.428  0.00  0.00    +0.028 C 
BRANCH  34  37
ATOM     36  C   UNL     1       2.889  -1.022   5.726  0.00  0.00    +0.005 C 
ATOM     37  C   UNL     1       2.639  -0.804   4.232  0.00  0.00    +0.019 C 
ENDBRANCH  34  37
ENDBRANCH  23  34
ENDBRANCH  22  23
ENDBRANCH   1  22
TORSDOF 8
