REMARK  Name = ZINC09216438
REMARK  4 active torsions:
REMARK  status: ('A' for Active; 'I' for Inactive)
REMARK    1  A    between atoms: C_4  and  N_7
REMARK    2  A    between atoms: C_22  and  C_28
REMARK    3  A    between atoms: N_30  and  C_31
REMARK    4  A    between atoms: C_35  and  C_37
REMARK                            x       y       z     vdW  Elec       q    Type
REMARK                         _______ _______ _______ _____ _____    ______ ____
ROOT
ATOM      1  N   UNL     1       0.500   0.971  -2.831  0.00  0.00    -0.210 N 
ATOM      2  C   UNL     1       1.704   0.424  -2.592  0.00  0.00    +0.232 C 
ATOM      3  O   UNL     1       2.024  -0.721  -2.830  0.00  0.00    -0.274 OA
ATOM      4  C   UNL     1       2.592   1.483  -1.975  0.00  0.00    +0.113 C 
ATOM      5  C   UNL     1       3.272   0.954  -0.715  0.00  0.00    +0.100 C 
ATOM      6  C   UNL     1       3.514  -0.531  -0.794  0.00  0.00    -0.021 A 
ATOM      7  C   UNL     1       3.825  -1.139  -1.988  0.00  0.00    +0.006 A 
ATOM      8  C   UNL     1       4.038  -2.507  -2.032  0.00  0.00    +0.000 A 
ATOM      9  C   UNL     1       3.938  -3.266  -0.879  0.00  0.00    +0.001 A 
ATOM     10  C   UNL     1       3.629  -2.667   0.325  0.00  0.00    +0.008 A 
ATOM     11  C   UNL     1       3.415  -1.289   0.379  0.00  0.00    -0.019 A 
ATOM     12  C   UNL     1       3.095  -0.635   1.664  0.00  0.00    +0.022 C 
ATOM     13  C   UNL     1       2.553   0.599   1.661  0.00  0.00    +0.054 C 
ATOM     14  C   UNL     1       1.236   2.011  -0.018  0.00  0.00    +0.156 C 
ATOM     15  C   UNL     1       1.547   2.512  -1.443  0.00  0.00    +0.118 C 
ATOM     16  C   UNL     1       0.346   2.203  -2.323  0.00  0.00    +0.232 C 
ATOM     17  O   UNL     1      -0.591   2.944  -2.530  0.00  0.00    -0.274 OA
ATOM     18  N   UNL     1       2.556   1.470   0.426  0.00  0.00    -0.383 NA
ATOM     19  H   UNL     1       3.094   2.296   0.715  0.00  0.00    +0.127 HD
ENDROOT
BRANCH   1  23
ATOM     20  C   UNL     1      -2.495  -0.991  -4.966  0.00  0.00    +0.000 A 
ATOM     21  C   UNL     1      -1.925   0.160  -5.477  0.00  0.00    +0.002 A 
ATOM     22  C   UNL     1      -0.932   0.812  -4.772  0.00  0.00    +0.024 A 
ATOM     23  C   UNL     1      -0.507   0.311  -3.549  0.00  0.00    +0.044 A 
ATOM     24  C   UNL     1      -1.078  -0.848  -3.041  0.00  0.00    +0.024 A 
ATOM     25  C   UNL     1      -2.074  -1.494  -3.748  0.00  0.00    +0.002 A 
ENDBRANCH   1  23
BRANCH  14  26
ATOM     26  C   UNL     1      -0.032   1.198  -0.029  0.00  0.00    +0.237 C 
ATOM     27  O   UNL     1       0.025  -0.014  -0.034  0.00  0.00    -0.273 OA
ATOM     28  N   UNL     1      -1.230   1.816  -0.038  0.00  0.00    -0.284 N 
ATOM     29  H   UNL     1      -1.277   2.782   0.033  0.00  0.00    +0.155 HD
BRANCH  28  30
ATOM     30  C   UNL     1      -2.404   1.064  -0.149  0.00  0.00    +0.034 A 
ATOM     31  C   UNL     1      -3.491   1.571  -0.851  0.00  0.00    +0.023 A 
ATOM     32  C   UNL     1      -4.647   0.824  -0.963  0.00  0.00    +0.002 A 
ATOM     33  C   UNL     1      -4.728  -0.422  -0.370  0.00  0.00    +0.012 A 
ATOM     34  C   UNL     1      -3.650  -0.927   0.334  0.00  0.00    +0.057 A 
ATOM     35  C   UNL     1      -2.489  -0.188   0.446  0.00  0.00    +0.035 A 
BRANCH  34  36
ATOM     36  C   UNL     1      -3.742  -2.286   0.980  0.00  0.00    +0.417 C 
ATOM     37  F   UNL     1      -4.231  -2.150   2.283  0.00  0.00    -0.166 F 
ATOM     38  F   UNL     1      -4.609  -3.096   0.238  0.00  0.00    -0.166 F 
ATOM     39  F   UNL     1      -2.473  -2.872   1.016  0.00  0.00    -0.166 F 
ENDBRANCH  34  36
ENDBRANCH  28  30
ENDBRANCH  14  26
TORSDOF 4
