REMARK  Name = ZINC64774908
REMARK  8 active torsions:
REMARK  status: ('A' for Active; 'I' for Inactive)
REMARK    1  A    between atoms: C_1  and  C_2
REMARK    2  A    between atoms: C_5  and  N_27
REMARK    3  A    between atoms: C_6  and  C_8
REMARK    4  A    between atoms: C_12  and  S_15
REMARK    5  A    between atoms: S_15  and  C_16
REMARK    6  A    between atoms: C_16  and  C_17
REMARK    7  A    between atoms: N_19  and  C_20
REMARK    8  A    between atoms: C_28  and  C_30
REMARK                            x       y       z     vdW  Elec       q    Type
REMARK                         _______ _______ _______ _____ _____    ______ ____
ROOT
ATOM      1  C   UNL     1      -0.085  -1.904   1.640  0.00  0.00    +0.161 A 
ATOM      2  C   UNL     1      -0.066  -1.226   2.872  0.00  0.00    +0.300 A 
ATOM      3  O   UNL     1      -0.116   0.127   2.919  0.00  0.00    -0.263 OA
ATOM      4  N   UNL     1       0.003  -1.940   3.988  0.00  0.00    -0.180 NA
ATOM      5  C   UNL     1       0.051  -3.266   3.914  0.00  0.00    +0.213 A 
ATOM      6  N   UNL     1       0.032  -3.885   2.740  0.00  0.00    -0.122 NA
ATOM      7  N   UNL     1      -0.039  -3.231   1.634  0.00  0.00    -0.141 NA
ENDROOT
BRANCH   1  13
ATOM      8  C   UNL     1       1.585   1.751  -1.319  0.00  0.00    +0.044 C 
ATOM      9  C   UNL     1       0.638   0.608  -1.060  0.00  0.00    -0.050 A 
ATOM     10  C   UNL     1      -0.305   0.265  -2.014  0.00  0.00    +0.005 A 
ATOM     11  C   UNL     1      -1.178  -0.781  -1.787  0.00  0.00    +0.024 A 
ATOM     12  C   UNL     1      -1.114  -1.494  -0.599  0.00  0.00    +0.043 A 
ATOM     13  C   UNL     1      -0.162  -1.149   0.367  0.00  0.00    +0.029 A 
ATOM     14  C   UNL     1       0.717  -0.096   0.124  0.00  0.00    +0.015 A 
BRANCH  12  15
ATOM     15  N   UNL     1      -1.998  -2.552  -0.367  0.00  0.00    -0.285 N 
ATOM     16  C   UNL     1      -2.549  -3.209  -1.407  0.00  0.00    +0.214 C 
ATOM     17  O   UNL     1      -2.204  -2.950  -2.540  0.00  0.00    -0.276 OA
ATOM     18  C   UNL     1      -3.596  -4.265  -1.160  0.00  0.00    +0.109 C 
ATOM     19  H   UNL     1      -2.214  -2.813   0.541  0.00  0.00    +0.155 HD
ENDBRANCH  12  15
ENDBRANCH   1  13
BRANCH   5  20
ATOM     20  S   UNL     1       0.143  -4.215   5.395  0.00  0.00    -0.075 S 
BRANCH  20  21
ATOM     21  C   UNL     1       0.188  -5.933   4.814  0.00  0.00    +0.173 C 
BRANCH  21  22
ATOM     22  C   UNL     1       0.268  -6.862   5.997  0.00  0.00    +0.228 C 
ATOM     23  O   UNL     1       0.292  -6.410   7.122  0.00  0.00    -0.275 OA
ATOM     24  N   UNL     1       0.312  -8.196   5.805  0.00  0.00    -0.283 N 
ATOM     25  H   UNL     1       0.373  -8.554   4.906  0.00  0.00    +0.155 HD
BRANCH  24  26
ATOM     26  C   UNL     1       0.269  -9.063   6.904  0.00  0.00    +0.069 A 
ATOM     27  C   UNL     1      -0.316  -8.650   8.094  0.00  0.00    +0.026 A 
ATOM     28  C   UNL     1      -0.357  -9.508   9.175  0.00  0.00    +0.002 A 
ATOM     29  C   UNL     1       0.184 -10.777   9.076  0.00  0.00    +0.003 A 
ATOM     30  C   UNL     1       0.768 -11.193   7.893  0.00  0.00    +0.040 A 
ATOM     31  C   UNL     1       0.807 -10.341   6.804  0.00  0.00    +0.144 A 
ATOM     32  F   UNL     1       1.373 -10.749   5.647  0.00  0.00    -0.204 F 
ENDBRANCH  24  26
ENDBRANCH  21  22
ENDBRANCH  20  21
ENDBRANCH   5  20
TORSDOF 6
