REMARK  Name = ZINC16910559
REMARK  9 active torsions:
REMARK  status: ('A' for Active; 'I' for Inactive)
REMARK    1  A    between atoms: C_1  and  C_2
REMARK    2  A    between atoms: C_2  and  C_4
REMARK    3  A    between atoms: C_2  and  O_7
REMARK    4  A    between atoms: O_7  and  C_8
REMARK    5  A    between atoms: C_13  and  C_14
REMARK    6  A    between atoms: C_19  and  N_21
REMARK    7  A    between atoms: N_21  and  C_22
REMARK    8  A    between atoms: C_25  and  N_28
REMARK    9  A    between atoms: C_29  and  C_31
REMARK                            x       y       z     vdW  Elec       q    Type
REMARK                         _______ _______ _______ _____ _____    ______ ____
ROOT
ATOM      1  C   UNL     1       2.017  -1.222  -3.443  0.00  0.00    +0.032 C 
ATOM      2  C   UNL     1       2.567  -1.730  -4.575  0.00  0.00    +0.080 C 
ATOM      3  C   UNL     1       1.925  -2.116  -5.853  0.00  0.00    +0.276 C 
ATOM      4  O   UNL     1       0.722  -2.002  -6.029  0.00  0.00    -0.267 OA
ATOM      5  N   UNL     1       2.720  -2.587  -6.787  0.00  0.00    -0.152 NA
ATOM      6  C   UNL     1       4.026  -2.715  -6.609  0.00  0.00    +0.175 C 
ATOM      7  S   UNL     1       4.274  -2.116  -4.945  0.00  0.00    -0.050 S 
ENDROOT
BRANCH   1  13
ATOM      8  C   UNL     1      -0.054  -0.028  -2.744  0.00  0.00    +0.129 A 
ATOM      9  C   UNL     1      -1.433   0.017  -2.618  0.00  0.00    +0.046 A 
ATOM     10  C   UNL     1      -2.202  -1.054  -3.031  0.00  0.00    +0.004 A 
ATOM     11  C   UNL     1      -1.604  -2.180  -3.574  0.00  0.00    +0.001 A 
ATOM     12  C   UNL     1      -0.234  -2.244  -3.708  0.00  0.00    +0.011 A 
ATOM     13  C   UNL     1       0.557  -1.164  -3.299  0.00  0.00    +0.018 A 
BRANCH   8  14
ATOM     14  O   UNL     1       0.702   1.024  -2.338  0.00  0.00    -0.477 OA
BRANCH  14  16
ATOM     15  C   UNL     1      -0.404   3.144  -2.688  0.00  0.00    +0.064 C 
ATOM     16  C   UNL     1       0.025   2.089  -1.667  0.00  0.00    +0.282 C 
BRANCH  16  17
ATOM     17  C   UNL     1       0.951   2.714  -0.656  0.00  0.00    +0.395 C 
ATOM     18  O   UNL     1       0.539   3.585   0.091  0.00  0.00    -0.242 OA
ATOM     19  O   UNL     1       2.113   2.350  -0.586  0.00  0.00    -0.242 OA
ENDBRANCH  16  17
ENDBRANCH  14  16
ENDBRANCH   8  14
ENDBRANCH   1  13
BRANCH   6  20
ATOM     20  N   UNL     1       4.962  -3.188  -7.491  0.00  0.00    -0.192 NA
BRANCH  20  21
ATOM     21  C   UNL     1       4.592  -3.499  -8.805  0.00  0.00    +0.056 A 
ATOM     22  C   UNL     1       3.583  -2.778  -9.431  0.00  0.00    +0.027 A 
ATOM     23  C   UNL     1       3.218  -3.084 -10.726  0.00  0.00    +0.025 A 
ATOM     24  C   UNL     1       3.860  -4.113 -11.404  0.00  0.00    +0.033 A 
ATOM     25  C   UNL     1       4.868  -4.833 -10.778  0.00  0.00    +0.025 A 
ATOM     26  C   UNL     1       5.237  -4.524  -9.485  0.00  0.00    +0.027 A 
BRANCH  24  27
ATOM     27  N   UNL     1       3.489  -4.423 -12.719  0.00  0.00    -0.286 N 
ATOM     28  C   UNL     1       3.534  -5.700 -13.148  0.00  0.00    +0.214 C 
ATOM     29  O   UNL     1       3.805  -6.592 -12.371  0.00  0.00    -0.276 OA
ATOM     30  C   UNL     1       3.249  -6.021 -14.592  0.00  0.00    +0.109 C 
ATOM     31  H   UNL     1       3.200  -3.720 -13.320  0.00  0.00    +0.155 HD
ENDBRANCH  24  27
ENDBRANCH  20  21
ENDBRANCH   6  20
TORSDOF 7
