REMARK  Name = ZINC09119747
REMARK  12 active torsions:
REMARK  status: ('A' for Active; 'I' for Inactive)
REMARK    1  A    between atoms: C_1  and  C_2
REMARK    2  A    between atoms: C_3  and  C_29
REMARK    3  A    between atoms: C_4  and  C_28
REMARK    4  A    between atoms: C_7  and  C_8
REMARK    5  A    between atoms: C_8  and  C_10
REMARK    6  A    between atoms: C_10  and  N_62
REMARK    7  A    between atoms: N_13  and  S_16
REMARK    8  A    between atoms: S_16  and  C_19
REMARK    9  A    between atoms: C_22  and  C_25
REMARK   10  A    between atoms: C_25  and  C_26
REMARK   11  A    between atoms: C_25  and  C_27
REMARK   12  A    between atoms: C_29  and  C_31
REMARK                            x       y       z     vdW  Elec       q    Type
REMARK                         _______ _______ _______ _____ _____    ______ ____
ROOT
ATOM      1  C   UNL     1      -2.685   3.491  -1.125  0.00  0.00    -0.061 C 
ATOM      2  C   UNL     1      -1.435   2.703  -0.721  0.00  0.00    +0.091 C 
ATOM      3  N   UNL     1      -1.859   1.419  -0.142  0.00  0.00    -0.180 NA
ATOM      4  C   UNL     1      -2.802   0.589  -0.905  0.00  0.00    +0.091 C 
ATOM      5  C   UNL     1      -4.003   1.463  -1.300  0.00  0.00    -0.061 C 
ATOM      6  N   UNL     1      -3.505   2.652  -2.026  0.00  0.00    +0.386 N 
ATOM      7  H   UNL     1      -2.924   2.341  -2.813  0.00  0.00    -0.081 HD
ENDROOT
BRANCH   3   8
ATOM      8  S   UNL     1      -1.283   0.919   1.328  0.00  0.00    +0.061 S 
ATOM      9  O   UNL     1      -1.398  -0.497   1.349  0.00  0.00    -0.153 OA
ATOM     10  O   UNL     1      -0.044   1.586   1.528  0.00  0.00    -0.153 OA
BRANCH   8  11
ATOM     11  C   UNL     1      -2.388   1.532   2.556  0.00  0.00    +0.105 A 
ATOM     12  C   UNL     1      -2.167   2.771   3.128  0.00  0.00    +0.029 A 
ATOM     13  C   UNL     1      -3.037   3.254   4.088  0.00  0.00    +0.006 A 
ATOM     14  C   UNL     1      -4.122   2.493   4.483  0.00  0.00    -0.045 A 
ATOM     15  C   UNL     1      -4.339   1.252   3.915  0.00  0.00    +0.006 A 
ATOM     16  C   UNL     1      -3.472   0.771   2.952  0.00  0.00    +0.029 A 
BRANCH  14  17
ATOM     17  C   UNL     1      -5.067   3.018   5.533  0.00  0.00    +0.013 C 
ATOM     18  C   UNL     1      -4.299   3.268   6.832  0.00  0.00    +0.012 C 
ATOM     19  C   UNL     1      -5.691   4.328   5.048  0.00  0.00    +0.012 C 
ENDBRANCH  14  17
ENDBRANCH   8  11
ENDBRANCH   3   8
BRANCH   6  20
ATOM     20  C   UNL     1      -4.643   3.436  -2.549  0.00  0.00    +0.004 C 
BRANCH  20  21
ATOM     21  C   UNL     1      -5.331   2.634  -3.624  0.00  0.00    +0.163 C 
ATOM     22  O   UNL     1      -4.927   1.524  -3.906  0.00  0.00    -0.293 OA
BRANCH  21  29
ATOM     23  C   UNL     1      -6.905   1.184  -5.877  0.00  0.00    +0.047 C 
ATOM     24  C   UNL     1      -7.163   2.554  -5.305  0.00  0.00    -0.012 A 
ATOM     25  C   UNL     1      -8.187   3.449  -5.691  0.00  0.00    +0.041 A 
ATOM     26  C   UNL     1      -8.048   4.588  -4.911  0.00  0.00    +0.024 A 
ATOM     27  N   UNL     1      -7.008   4.417  -4.085  0.00  0.00    -0.355 N 
ATOM     28  H   UNL     1      -6.696   5.065  -3.434  0.00  0.00    +0.166 HD
ATOM     29  C   UNL     1      -6.448   3.175  -4.305  0.00  0.00    +0.084 A 
ATOM     30  C   UNL     1      -8.923   5.814  -4.982  0.00  0.00    +0.064 C 
BRANCH  25  31
ATOM     31  C   UNL     1      -9.200   3.220  -6.726  0.00  0.00    +0.162 C 
ATOM     32  O   UNL     1      -9.007   3.603  -7.861  0.00  0.00    -0.292 OA
ATOM     33  C   UNL     1     -10.483   2.508  -6.379  0.00  0.00    +0.091 C 
ENDBRANCH  25  31
ENDBRANCH  21  29
ENDBRANCH  20  21
ENDBRANCH   6  20
TORSDOF 7
