REMARK  Name = ZINC58884010
REMARK  10 active torsions:
REMARK  status: ('A' for Active; 'I' for Inactive)
REMARK    1  A    between atoms: C_1  and  N_2
REMARK    2  A    between atoms: N_2  and  C_3
REMARK    3  A    between atoms: N_2  and  C_4
REMARK    4  A    between atoms: C_4  and  C_6
REMARK    5  A    between atoms: C_4  and  C_29
REMARK    6  A    between atoms: C_6  and  N_7
REMARK    7  A    between atoms: N_10  and  C_11
REMARK    8  A    between atoms: C_14  and  N_21
REMARK    9  A    between atoms: C_16  and  C_17
REMARK   10  A    between atoms: C_22  and  C_24
REMARK                            x       y       z     vdW  Elec       q    Type
REMARK                         _______ _______ _______ _____ _____    ______ ____
ROOT
ATOM      1  C   UNL     1      -2.297   3.909  -3.839  0.00  0.00    +0.047 A 
ATOM      2  C   UNL     1      -3.534   3.571  -4.372  0.00  0.00    +0.026 A 
ATOM      3  C   UNL     1      -4.008   4.231  -5.489  0.00  0.00    +0.025 A 
ATOM      4  C   UNL     1      -3.246   5.231  -6.079  0.00  0.00    +0.034 A 
ATOM      5  C   UNL     1      -2.009   5.568  -5.546  0.00  0.00    +0.037 A 
ATOM      6  C   UNL     1      -1.539   4.913  -4.426  0.00  0.00    +0.078 A 
ENDROOT
BRANCH   1  10
ATOM      7  N   UNL     1      -1.742   1.323  -1.375  0.00  0.00    -0.300 N 
ATOM      8  C   UNL     1      -2.113   1.938  -2.515  0.00  0.00    +0.304 C 
ATOM      9  O   UNL     1      -2.716   1.321  -3.371  0.00  0.00    -0.253 OA
ATOM     10  N   UNL     1      -1.817   3.239  -2.706  0.00  0.00    -0.269 N 
ATOM     11  H   UNL     1      -1.260   1.815  -0.692  0.00  0.00    +0.150 HD
ATOM     12  H   UNL     1      -1.271   3.712  -2.058  0.00  0.00    +0.156 HD
BRANCH   7  13
ATOM     13  C   UNL     1      -2.064  -0.091  -1.168  0.00  0.00    +0.098 C 
BRANCH  13  14
ATOM     14  C   UNL     1      -1.427  -0.574   0.137  0.00  0.00    +0.016 C 
BRANCH  14  15
ATOM     15  C   UNL     1       0.074  -0.517   0.015  0.00  0.00    +0.093 A 
ATOM     16  C   UNL     1       0.881  -1.559  -0.253  0.00  0.00    +0.043 A 
ATOM     17  C   UNL     1       2.203  -1.058  -0.276  0.00  0.00    +0.041 A 
ATOM     18  C   UNL     1       2.124   0.261  -0.020  0.00  0.00    +0.195 A 
ATOM     19  O   UNL     1       0.832   0.584   0.149  0.00  0.00    -0.469 OA
ENDBRANCH  14  15
BRANCH  14  21
ATOM     20  C   UNL     1      -3.312   0.155   1.429  0.00  0.00    -0.096 C 
ATOM     21  N   UNL     1      -1.862   0.291   1.242  0.00  0.00    +0.384 N 
ATOM     22  C   UNL     1      -1.170  -0.106   2.476  0.00  0.00    -0.096 C 
ATOM     23  H   UNL     1      -1.639   1.251   1.026  0.00  0.00    -0.082 HD
ENDBRANCH  14  21
ENDBRANCH  13  14
ENDBRANCH   7  13
ENDBRANCH   1  10
BRANCH   6  24
ATOM     24  C   UNL     1      -0.199   5.283  -3.843  0.00  0.00    +0.419 C 
ATOM     25  F   UNL     1       0.371   6.312  -4.601  0.00  0.00    -0.166 F 
ATOM     26  F   UNL     1      -0.367   5.714  -2.523  0.00  0.00    -0.166 F 
ATOM     27  F   UNL     1       0.644   4.166  -3.865  0.00  0.00    -0.166 F 
ENDBRANCH   6  24
BRANCH   4  28
ATOM     28  N   UNL     1      -3.726   5.900  -7.212  0.00  0.00    -0.279 N 
ATOM     29  C   UNL     1      -5.047   6.133  -7.348  0.00  0.00    +0.284 C 
ATOM     30  O   UNL     1      -5.812   5.845  -6.446  0.00  0.00    -0.266 OA
ATOM     31  H   UNL     1      -3.108   6.195  -7.899  0.00  0.00    +0.155 HD
BRANCH  29  32
ATOM     32  C   UNL     1      -5.561   6.735  -8.582  0.00  0.00    +0.189 A 
ATOM     33  C   UNL     1      -6.869   7.029  -8.846  0.00  0.00    +0.054 A 
ATOM     34  C   UNL     1      -6.904   7.589 -10.133  0.00  0.00    +0.042 A 
ATOM     35  C   UNL     1      -5.633   7.612 -10.592  0.00  0.00    +0.196 A 
ATOM     36  O   UNL     1      -4.826   7.102  -9.652  0.00  0.00    -0.458 OA
ENDBRANCH  29  32
ENDBRANCH   4  28
TORSDOF 8
