REMARK  Name = ZINC41403310
REMARK  6 active torsions:
REMARK  status: ('A' for Active; 'I' for Inactive)
REMARK    1  A    between atoms: C_4  and  C_7
REMARK    2  A    between atoms: C_7  and  C_9
REMARK    3  A    between atoms: C_7  and  C_18
REMARK    4  A    between atoms: C_18  and  C_20
REMARK    5  A    between atoms: C_18  and  O_22
REMARK    6  A    between atoms: C_20  and  N_21
REMARK                            x       y       z     vdW  Elec       q    Type
REMARK                         _______ _______ _______ _____ _____    ______ ____
ROOT
ATOM      1  C   UNL     1       3.779  -0.750  -0.092  0.00  0.00    +0.076 C 
ENDROOT
BRANCH   1   2
ATOM      2  C   UNL     1       4.109  -1.836  -1.083  0.00  0.00    -0.034 A 
ATOM      3  C   UNL     1       3.273  -2.930  -1.211  0.00  0.00    +0.008 A 
ATOM      4  C   UNL     1       3.572  -3.929  -2.119  0.00  0.00    +0.050 A 
ATOM      5  C   UNL     1       4.710  -3.836  -2.903  0.00  0.00    +0.166 A 
ATOM      6  C   UNL     1       5.552  -2.734  -2.774  0.00  0.00    +0.167 A 
ATOM      7  C   UNL     1       5.243  -1.734  -1.866  0.00  0.00    +0.054 A 
ATOM      8  O   UNL     1       6.593  -2.875  -3.646  0.00  0.00    -0.453 OA
ATOM      9  C   UNL     1       6.597  -4.266  -4.017  0.00  0.00    +0.466 C 
ATOM     10  O   UNL     1       5.224  -4.668  -3.856  0.00  0.00    -0.453 OA
ENDBRANCH   1   2
BRANCH   1  14
ATOM     11  C   UNL     1       0.419   1.485  -1.495  0.00  0.00    +0.000 A 
ATOM     12  C   UNL     1       0.350   0.107  -1.421  0.00  0.00    +0.000 A 
ATOM     13  C   UNL     1       1.437  -0.617  -0.967  0.00  0.00    +0.004 A 
ATOM     14  C   UNL     1       2.594   0.039  -0.588  0.00  0.00    -0.038 A 
ATOM     15  C   UNL     1       2.663   1.417  -0.663  0.00  0.00    +0.004 A 
ATOM     16  C   UNL     1       1.575   2.141  -1.115  0.00  0.00    +0.000 A 
ENDBRANCH   1  14
BRANCH   1  17
ATOM     17  C   UNL     1       3.442  -1.379   1.261  0.00  0.00    +0.109 C 
BRANCH  17  18
ATOM     18  O   UNL     1       2.235  -2.134   1.149  0.00  0.00    -0.393 OA
ATOM     19  H   UNL     1       1.445  -1.594   1.007  0.00  0.00    +0.210 HD
ENDBRANCH  17  18
BRANCH  17  20
ATOM     20  C   UNL     1       3.259  -0.275   2.305  0.00  0.00    -0.054 C 
BRANCH  20  21
ATOM     21  N   UNL     1       3.055  -0.881   3.627  0.00  0.00    +0.380 N 
ATOM     22  H   UNL     1       2.934  -0.153   4.316  0.00  0.00    -0.090 HD
ATOM     23  H   UNL     1       2.232  -1.465   3.607  0.00  0.00    -0.090 HD
ATOM     24  H   UNL     1       3.859  -1.441   3.868  0.00  0.00    -0.090 HD
ENDBRANCH  20  21
ENDBRANCH  17  20
ENDBRANCH   1  17
TORSDOF 6
