REMARK  Name = ZINC05303688
REMARK  4 active torsions:
REMARK  status: ('A' for Active; 'I' for Inactive)
REMARK    1  A    between atoms: C_1  and  C_2
REMARK    2  A    between atoms: C_7  and  N_8
REMARK    3  A    between atoms: C_9  and  C_11
REMARK    4  A    between atoms: N_19  and  C_22
REMARK                            x       y       z     vdW  Elec       q    Type
REMARK                         _______ _______ _______ _____ _____    ______ ____
ROOT
ATOM      1  N   UNL     1       2.403   1.104  -0.043  0.00  0.00    -0.281 N 
ATOM      2  C   UNL     1       2.426  -0.238   0.081  0.00  0.00    +0.254 C 
ATOM      3  O   UNL     1       1.383  -0.863   0.114  0.00  0.00    -0.270 OA
ATOM      4  H   UNL     1       3.233   1.596  -0.141  0.00  0.00    +0.155 HD
ENDROOT
BRANCH   2   5
ATOM      5  C   UNL     1       3.713  -0.947   0.177  0.00  0.00    +0.102 A 
ATOM      6  C   UNL     1       3.753  -2.330   0.177  0.00  0.00    +0.030 A 
ATOM      7  C   UNL     1       5.007  -2.978   0.266  0.00  0.00    +0.018 A 
ATOM      8  C   UNL     1       5.087  -4.381   0.264  0.00  0.00    +0.013 A 
ATOM      9  C   UNL     1       6.324  -4.960   0.358  0.00  0.00    +0.020 A 
ATOM     10  C   UNL     1       7.452  -4.157   0.451  0.00  0.00    +0.113 A 
ATOM     11  N   UNL     1       7.363  -2.844   0.452  0.00  0.00    -0.237 NA
ATOM     12  C   UNL     1       6.193  -2.223   0.364  0.00  0.00    +0.143 A 
ATOM     13  N   UNL     1       6.143  -0.848   0.368  0.00  0.00    -0.295 N 
ATOM     14  C   UNL     1       4.969  -0.196   0.280  0.00  0.00    +0.265 A 
ATOM     15  O   UNL     1       4.950   1.021   0.286  0.00  0.00    -0.267 OA
ATOM     16  C   UNL     1       7.387  -0.082   0.470  0.00  0.00    +0.154 C 
ENDBRANCH   2   5
BRANCH   1  23
ATOM     17  C   UNL     1       2.320   3.686   1.150  0.00  0.00    +0.046 C 
ATOM     18  C   UNL     1       1.097   3.050   0.541  0.00  0.00    -0.028 A 
ATOM     19  C   UNL     1      -0.110   3.721   0.551  0.00  0.00    +0.020 A 
ATOM     20  C   UNL     1      -1.233   3.138  -0.008  0.00  0.00    +0.018 A 
ATOM     21  C   UNL     1      -1.149   1.882  -0.583  0.00  0.00    +0.017 A 
ATOM     22  C   UNL     1       0.053   1.203  -0.592  0.00  0.00    +0.024 A 
ATOM     23  C   UNL     1       1.182   1.787  -0.032  0.00  0.00    +0.037 A 
ATOM     24 BR   UNL     1      -2.883   4.061   0.008  0.00  0.00    -0.050 Br
ENDBRANCH   1  23
TORSDOF 2
