REMARK  Name = ZINC42236054
REMARK  13 active torsions:
REMARK  status: ('A' for Active; 'I' for Inactive)
REMARK    1  A    between atoms: C_1  and  C_2
REMARK    2  A    between atoms: C_2  and  C_3
REMARK    3  A    between atoms: C_2  and  C_4
REMARK    4  A    between atoms: C_4  and  C_6
REMARK    5  A    between atoms: C_4  and  N_18
REMARK    6  A    between atoms: N_8  and  N_9
REMARK    7  A    between atoms: N_9  and  C_10
REMARK    8  A    between atoms: C_10  and  N_12
REMARK    9  A    between atoms: N_12  and  C_13
REMARK   10  A    between atoms: C_13  and  C_14
REMARK   11  A    between atoms: C_14  and  C_15
REMARK   12  A    between atoms: C_15  and  O_16
REMARK   13  A    between atoms: O_16  and  C_17
REMARK                            x       y       z     vdW  Elec       q    Type
REMARK                         _______ _______ _______ _____ _____    ______ ____
ROOT
ATOM      1  C   UNL     1      -2.367  -0.002   0.819  0.00  0.00    +0.250 C 
ATOM      2  O   UNL     1      -3.384   0.542   0.446  0.00  0.00    -0.272 OA
ATOM      3  N   UNL     1      -2.081  -0.067   2.135  0.00  0.00    -0.234 N 
ATOM      4  H   UNL     1      -1.304  -0.561   2.439  0.00  0.00    +0.173 HD
ENDROOT
BRANCH   3   5
ATOM      5  N   UNL     1      -2.907   0.579   3.064  0.00  0.00    -0.246 N 
ATOM      6  H   UNL     1      -3.685   1.073   2.760  0.00  0.00    +0.172 HD
BRANCH   5   7
ATOM      7  C   UNL     1      -2.622   0.514   4.379  0.00  0.00    +0.147 C 
ATOM      8  S   UNL     1      -3.632   1.303   5.514  0.00  0.00    -0.017 S 
BRANCH   7   9
ATOM      9  N   UNL     1      -1.542  -0.172   4.801  0.00  0.00    -0.325 N 
ATOM     10  H   UNL     1      -0.970  -0.620   4.158  0.00  0.00    +0.148 HD
BRANCH   9  11
ATOM     11  C   UNL     1      -1.231  -0.243   6.231  0.00  0.00    +0.105 C 
BRANCH  11  12
ATOM     12  C   UNL     1       0.035  -1.076   6.438  0.00  0.00    +0.047 C 
BRANCH  12  13
ATOM     13  C   UNL     1       0.360  -1.149   7.931  0.00  0.00    +0.161 C 
BRANCH  13  14
ATOM     14  O   UNL     1       1.543  -1.927   8.124  0.00  0.00    -0.383 OA
ATOM     15  C   UNL     1       1.935  -2.059   9.492  0.00  0.00    +0.193 C 
ENDBRANCH  13  14
ENDBRANCH  12  13
ENDBRANCH  11  12
ENDBRANCH   9  11
ENDBRANCH   7   9
ENDBRANCH   5   7
ENDBRANCH   3   5
BRANCH   1  16
ATOM     16  C   UNL     1      -1.421  -0.606  -0.188  0.00  0.00    +0.164 C 
BRANCH  16  17
ATOM     17  N   UNL     1      -2.159  -0.947  -1.406  0.00  0.00    -0.288 N 
ATOM     18  C   UNL     1      -1.699  -1.915  -2.223  0.00  0.00    +0.298 C 
ATOM     19  O   UNL     1      -0.672  -2.505  -1.949  0.00  0.00    -0.253 OA
ATOM     20  N   UNL     1      -2.378  -2.229  -3.345  0.00  0.00    -0.313 N 
ATOM     21  H   UNL     1      -2.978  -0.476  -1.625  0.00  0.00    +0.151 HD
ATOM     22  H   UNL     1      -3.197  -1.759  -3.564  0.00  0.00    +0.146 HD
ATOM     23  H   UNL     1      -2.047  -2.926  -3.933  0.00  0.00    +0.146 HD
ENDBRANCH  16  17
BRANCH  16  25
ATOM     24  C   UNL     1       0.719  -0.259  -1.428  0.00  0.00    +0.009 C 
ATOM     25  C   UNL     1      -0.321   0.403  -0.523  0.00  0.00    +0.012 C 
ATOM     26  C   UNL     1      -0.934   1.605  -1.245  0.00  0.00    +0.009 C 
ENDBRANCH  16  25
ENDBRANCH   1  16
TORSDOF 10
