REMARK  Name = ZINC08416873
REMARK  10 active torsions:
REMARK  status: ('A' for Active; 'I' for Inactive)
REMARK    1  A    between atoms: C_1  and  C_2
REMARK    2  A    between atoms: C_2  and  C_3
REMARK    3  A    between atoms: C_3  and  C_4
REMARK    4  A    between atoms: C_3  and  C_5
REMARK    5  A    between atoms: C_3  and  C_6
REMARK    6  A    between atoms: C_14  and  N_32
REMARK    7  A    between atoms: C_15  and  C_19
REMARK    8  A    between atoms: N_21  and  C_22
REMARK    9  A    between atoms: C_25  and  S_28
REMARK   10  A    between atoms: S_28  and  N_31
REMARK                            x       y       z     vdW  Elec       q    Type
REMARK                         _______ _______ _______ _____ _____    ______ ____
ROOT
ATOM      1  C   UNL     1       1.457   2.015   0.024  0.00  0.00    -0.001 C 
ATOM      2  C   UNL     1       0.010   1.510   0.044  0.00  0.00    +0.010 C 
ATOM      3  C   UNL     1       0.033  -0.017   0.033  0.00  0.00    +0.056 C 
ATOM      4  C   UNL     1       0.908  -0.526  -1.083  0.00  0.00    +0.046 A 
ATOM      5  C   UNL     1       1.841   0.272  -1.718  0.00  0.00    -0.025 A 
ATOM      6  C   UNL     1       2.621  -0.251  -2.732  0.00  0.00    +0.017 A 
ATOM      7  C   UNL     1       2.456  -1.602  -3.116  0.00  0.00    +0.029 A 
ATOM      8  C   UNL     1       3.160  -2.351  -4.145  0.00  0.00    +0.053 A 
ATOM      9  C   UNL     1       2.821  -3.672  -4.340  0.00  0.00    +0.097 A 
ATOM     10  S   UNL     1       1.536  -3.949  -3.136  0.00  0.00    -0.062 S 
ATOM     11  C   UNL     1       1.474  -2.331  -2.408  0.00  0.00    +0.111 A 
ATOM     12  N   UNL     1       0.758  -1.792  -1.450  0.00  0.00    -0.244 NA
ATOM     13  C   UNL     1       2.051   1.718  -1.352  0.00  0.00    +0.041 C 
ENDROOT
BRANCH   9  14
ATOM     14  C   UNL     1       3.363  -4.590  -5.273  0.00  0.00    +0.257 C 
ATOM     15  O   UNL     1       4.246  -4.235  -6.034  0.00  0.00    -0.269 OA
ATOM     16  N   UNL     1       2.901  -5.855  -5.320  0.00  0.00    -0.281 N 
ATOM     17  H   UNL     1       2.247  -6.157  -4.671  0.00  0.00    +0.155 HD
BRANCH  16  18
ATOM     18  C   UNL     1       3.367  -6.733  -6.304  0.00  0.00    +0.034 A 
ATOM     19  C   UNL     1       2.512  -7.682  -6.850  0.00  0.00    +0.025 A 
ATOM     20  C   UNL     1       2.974  -8.545  -7.825  0.00  0.00    +0.030 A 
ATOM     21  C   UNL     1       4.287  -8.471  -8.250  0.00  0.00    +0.105 A 
ATOM     22  C   UNL     1       5.142  -7.531  -7.704  0.00  0.00    +0.030 A 
ATOM     23  C   UNL     1       4.686  -6.662  -6.733  0.00  0.00    +0.025 A 
BRANCH  21  24
ATOM     24  S   UNL     1       4.874  -9.578  -9.489  0.00  0.00    +0.056 S 
ATOM     25  O   UNL     1       3.736 -10.000 -10.228  0.00  0.00    -0.153 OA
ATOM     26  O   UNL     1       5.989  -8.946 -10.103  0.00  0.00    -0.153 OA
BRANCH  24  27
ATOM     27  N   UNL     1       5.457 -10.919  -8.713  0.00  0.00    -0.204 NA
ATOM     28  H   UNL     1       5.427 -10.970  -7.744  0.00  0.00    +0.144 HD
ATOM     29  H   UNL     1       5.829 -11.653  -9.226  0.00  0.00    +0.144 HD
ENDBRANCH  24  27
ENDBRANCH  21  24
ENDBRANCH  16  18
ENDBRANCH   9  14
BRANCH   1  30
ATOM     30  C   UNL     1       1.480   3.523   0.280  0.00  0.00    -0.032 C 
ATOM     31  C   UNL     1       0.677   4.238  -0.809  0.00  0.00    +0.011 C 
ATOM     32  C   UNL     1       0.859   3.818   1.647  0.00  0.00    +0.011 C 
BRANCH  30  34
ATOM     33  C   UNL     1       2.949   5.531   0.515  0.00  0.00    +0.004 C 
ATOM     34  C   UNL     1       2.926   4.023   0.258  0.00  0.00    +0.003 C 
ENDBRANCH  30  34
ENDBRANCH   1  30
BRANCH   8  35
ATOM     35  N   UNL     1       4.149  -1.750  -4.912  0.00  0.00    -0.356 N 
ATOM     36  H   UNL     1       4.378  -0.819  -4.765  0.00  0.00    +0.142 HD
ATOM     37  H   UNL     1       4.611  -2.261  -5.595  0.00  0.00    +0.142 HD
ENDBRANCH   8  35
TORSDOF 7
