REMARK  Name = ZINC09161372
REMARK  4 active torsions:
REMARK  status: ('A' for Active; 'I' for Inactive)
REMARK    1  A    between atoms: C_1  and  C_2
REMARK    2  A    between atoms: C_4  and  C_16
REMARK    3  A    between atoms: C_5  and  C_15
REMARK    4  A    between atoms: N_6  and  C_7
REMARK                            x       y       z     vdW  Elec       q    Type
REMARK                         _______ _______ _______ _____ _____    ______ ____
ROOT
ATOM      1  C   UNL     1      -4.561  -1.628  -0.235  0.00  0.00    +0.064 C 
ATOM      2  C   UNL     1      -3.924  -0.263  -0.187  0.00  0.00    +0.022 A 
ATOM      3  C   UNL     1      -2.606  -0.022  -0.088  0.00  0.00    +0.031 A 
ATOM      4  C   UNL     1      -2.450   1.439  -0.075  0.00  0.00    -0.003 A 
ATOM      5  C   UNL     1      -3.731   1.958  -0.165  0.00  0.00    +0.028 A 
ATOM      6  N   UNL     1      -4.596   0.927  -0.236  0.00  0.00    -0.317 N 
ATOM      7  C   UNL     1      -4.094   3.421  -0.184  0.00  0.00    +0.064 C 
ENDROOT
BRANCH   4   8
ATOM      8  C   UNL     1      -1.200   2.190   0.020  0.00  0.00    +0.026 C 
ATOM      9  C   UNL     1      -0.145   1.685   0.752  0.00  0.00    +0.079 C 
ATOM     10  C   UNL     1       1.200   2.323   0.735  0.00  0.00    +0.135 C 
ATOM     11  N   UNL     1       1.380   3.612   0.616  0.00  0.00    -0.284 NA
ATOM     12  N   UNL     1       2.262   1.400   0.860  0.00  0.00    -0.241 N 
ATOM     13  C   UNL     1       3.550   1.629   0.472  0.00  0.00    +0.091 C 
ATOM     14  C   UNL     1       4.481   0.704   0.720  0.00  0.00    +0.064 C 
ATOM     15  S   UNL     1       3.531  -0.576   1.526  0.00  0.00    -0.063 S 
ATOM     16  C   UNL     1       1.988   0.185   1.450  0.00  0.00    +0.163 C 
ATOM     17  N   UNL     1       0.816  -0.260   1.841  0.00  0.00    -0.154 NA
ATOM     18  C   UNL     1      -0.287   0.472   1.593  0.00  0.00    +0.273 C 
ATOM     19  O   UNL     1      -1.372   0.147   2.048  0.00  0.00    -0.268 OA
ATOM     20  H   UNL     1       2.279   3.978   0.611  0.00  0.00    +0.188 HD
ENDBRANCH   4   8
BRANCH   6  21
ATOM     21  C   UNL     1      -5.987   1.056  -0.341  0.00  0.00    +0.049 A 
ATOM     22  C   UNL     1      -6.550   1.631  -1.472  0.00  0.00    +0.046 A 
ATOM     23  C   UNL     1      -7.923   1.752  -1.575  0.00  0.00    +0.044 A 
ATOM     24  C   UNL     1      -8.736   1.310  -0.547  0.00  0.00    +0.040 A 
ATOM     25  C   UNL     1      -8.178   0.742   0.585  0.00  0.00    +0.044 A 
ATOM     26  C   UNL     1      -6.806   0.614   0.690  0.00  0.00    +0.046 A 
ATOM     27 CL   UNL     1      -9.202   0.190   1.873  0.00  0.00    -0.083 Cl
ATOM     28 CL   UNL     1      -8.627   2.465  -2.993  0.00  0.00    -0.083 Cl
ENDBRANCH   6  21
TORSDOF 2
