REMARK  Name = ZINC34955925
REMARK  3 active torsions:
REMARK  status: ('A' for Active; 'I' for Inactive)
REMARK    1  A    between atoms: C_4  and  S_8
REMARK    2  A    between atoms: S_8  and  N_11
REMARK    3  A    between atoms: N_15  and  O_16
REMARK                            x       y       z     vdW  Elec       q    Type
REMARK                         _______ _______ _______ _____ _____    ______ ____
ROOT
ATOM      1  S   UNL     1       3.934  -0.832  -0.041  0.00  0.00    +0.062 S 
ATOM      2  O   UNL     1       4.744  -0.128   0.890  0.00  0.00    -0.153 OA
ATOM      3  O   UNL     1       3.682  -2.226   0.070  0.00  0.00    -0.153 OA
ENDROOT
BRANCH   1   7
ATOM      4  C   UNL     1      -0.103   1.217  -0.056  0.00  0.00    +0.016 A 
ATOM      5  C   UNL     1       1.055   1.972  -0.077  0.00  0.00    +0.018 A 
ATOM      6  C   UNL     1       2.288   1.346  -0.072  0.00  0.00    +0.044 A 
ATOM      7  C   UNL     1       2.363  -0.035  -0.046  0.00  0.00    +0.120 A 
ATOM      8  C   UNL     1       1.205  -0.789  -0.024  0.00  0.00    +0.045 A 
ATOM      9  C   UNL     1      -0.028  -0.164  -0.030  0.00  0.00    +0.020 A 
ATOM     10 BR   UNL     1      -1.613  -1.196  -0.000  0.00  0.00    -0.050 Br
ATOM     11 BR   UNL     1       3.872   2.378  -0.101  0.00  0.00    -0.048 Br
ENDBRANCH   1   7
BRANCH   1  12
ATOM     12  N   UNL     1       4.610  -0.591  -1.533  0.00  0.00    -0.176 NA
ATOM     13  C   UNL     1       4.239  -1.451  -2.665  0.00  0.00    +0.115 C 
ATOM     14  C   UNL     1       3.688  -0.570  -3.794  0.00  0.00    +0.071 C 
ATOM     15  C   UNL     1       4.657   0.568  -4.029  0.00  0.00    +0.060 C 
ATOM     16  N   UNL     1       5.114   0.808  -5.199  0.00  0.00    -0.096 NA
ATOM     17  C   UNL     1       5.073   1.415  -2.846  0.00  0.00    +0.071 C 
ATOM     18  C   UNL     1       5.584   0.488  -1.742  0.00  0.00    +0.115 C 
BRANCH  16  19
ATOM     19  O   UNL     1       6.021   1.877  -5.400  0.00  0.00    -0.409 OA
ATOM     20  H   UNL     1       6.310   1.981  -6.317  0.00  0.00    +0.328 HD
ENDBRANCH  16  19
ENDBRANCH   1  12
TORSDOF 3
