REMARK  Name = ZINC09613509
REMARK  8 active torsions:
REMARK  status: ('A' for Active; 'I' for Inactive)
REMARK    1  A    between atoms: C_1  and  C_2
REMARK    2  A    between atoms: C_3  and  C_34
REMARK    3  A    between atoms: C_5  and  N_26
REMARK    4  A    between atoms: C_6  and  C_7
REMARK    5  A    between atoms: C_7  and  C_9
REMARK    6  A    between atoms: C_7  and  N_63
REMARK    7  A    between atoms: N_17  and  C_20
REMARK    8  A    between atoms: C_27  and  C_29
REMARK                            x       y       z     vdW  Elec       q    Type
REMARK                         _______ _______ _______ _____ _____    ______ ____
ROOT
ATOM      1  C   UNL     1       7.518  -2.097   0.913  0.00  0.00    -0.004 C 
ENDROOT
BRANCH   1   7
ATOM      2  C   UNL     1       9.868  -1.587   2.557  0.00  0.00    +0.045 C 
ATOM      3  C   UNL     1       8.811  -2.559   3.015  0.00  0.00    -0.037 A 
ATOM      4  C   UNL     1       8.941  -3.208   4.197  0.00  0.00    -0.008 A 
ATOM      5  S   UNL     1       7.458  -4.201   4.241  0.00  0.00    -0.078 S 
ATOM      6  C   UNL     1       6.759  -3.683   2.682  0.00  0.00    +0.074 A 
ATOM      7  C   UNL     1       7.696  -2.801   2.233  0.00  0.00    -0.025 A 
ATOM      8  C   UNL     1      10.050  -3.115   5.212  0.00  0.00    +0.052 C 
BRANCH   6   9
ATOM      9  N   UNL     1       5.564  -4.078   2.079  0.00  0.00    -0.273 N 
ATOM     10  C   UNL     1       4.821  -5.057   2.632  0.00  0.00    +0.284 C 
ATOM     11  O   UNL     1       5.193  -5.596   3.659  0.00  0.00    -0.266 OA
ATOM     12  H   UNL     1       5.268  -3.649   1.261  0.00  0.00    +0.156 HD
BRANCH  10  13
ATOM     13  C   UNL     1       3.566  -5.473   1.999  0.00  0.00    +0.189 A 
ATOM     14  C   UNL     1       2.723  -6.447   2.452  0.00  0.00    +0.054 A 
ATOM     15  C   UNL     1       1.654  -6.509   1.544  0.00  0.00    +0.042 A 
ATOM     16  C   UNL     1       1.889  -5.583   0.589  0.00  0.00    +0.196 A 
ATOM     17  O   UNL     1       3.039  -4.957   0.869  0.00  0.00    -0.458 OA
ENDBRANCH  10  13
ENDBRANCH   6   9
ENDBRANCH   1   7
BRANCH   1  23
ATOM     18  C   UNL     1       5.733  -0.810   1.925  0.00  0.00    -0.058 C 
ATOM     19  C   UNL     1       4.257  -0.428   1.792  0.00  0.00    +0.086 C 
ATOM     20  N   UNL     1       4.051   0.287   0.524  0.00  0.00    -0.333 N 
ATOM     21  C   UNL     1       4.443  -0.550  -0.619  0.00  0.00    +0.086 C 
ATOM     22  C   UNL     1       5.920  -0.932  -0.485  0.00  0.00    -0.058 C 
ATOM     23  N   UNL     1       6.108  -1.669   0.782  0.00  0.00    +0.389 N 
ATOM     24  H   UNL     1       5.506  -2.500   0.778  0.00  0.00    -0.080 HD
BRANCH  20  25
ATOM     25  C   UNL     1       2.728   0.715   0.400  0.00  0.00    +0.030 A 
ATOM     26  C   UNL     1       2.325   1.413  -0.731  0.00  0.00    +0.023 A 
ATOM     27  C   UNL     1       1.016   1.835  -0.851  0.00  0.00    +0.002 A 
ATOM     28  C   UNL     1       0.106   1.564   0.155  0.00  0.00    +0.000 A 
ATOM     29  C   UNL     1       0.503   0.870   1.282  0.00  0.00    +0.002 A 
ATOM     30  C   UNL     1       1.811   0.444   1.408  0.00  0.00    +0.023 A 
ENDBRANCH  20  25
ENDBRANCH   1  23
BRANCH   1  31
ATOM     31  C   UNL     1       7.846  -3.046  -0.211  0.00  0.00    -0.057 A 
ATOM     32  C   UNL     1       6.867  -3.880  -0.719  0.00  0.00    +0.002 A 
ATOM     33  C   UNL     1       7.167  -4.747  -1.753  0.00  0.00    +0.000 A 
ATOM     34  C   UNL     1       8.448  -4.788  -2.272  0.00  0.00    +0.000 A 
ATOM     35  C   UNL     1       9.428  -3.959  -1.759  0.00  0.00    +0.000 A 
ATOM     36  C   UNL     1       9.127  -3.088  -0.729  0.00  0.00    +0.002 A 
ENDBRANCH   1  31
TORSDOF 6
