REMARK  Name = ZINC39600894
REMARK  4 active torsions:
REMARK  status: ('A' for Active; 'I' for Inactive)
REMARK    1  A    between atoms: C_4  and  C_8
REMARK    2  A    between atoms: C_8  and  N_9
REMARK    3  A    between atoms: C_10  and  C_12
REMARK    4  A    between atoms: C_23  and  C_25
REMARK                            x       y       z     vdW  Elec       q    Type
REMARK                         _______ _______ _______ _____ _____    ______ ____
ROOT
ATOM      1  C   UNL     1       6.020  -1.397   2.938  0.00  0.00    +0.100 C 
ATOM      2  C   UNL     1       5.028  -2.075   3.909  0.00  0.00    +0.121 C 
ATOM      3  N   UNL     1       5.463  -3.490   3.961  0.00  0.00    -0.300 N 
ATOM      4  C   UNL     1       6.944  -3.421   3.959  0.00  0.00    +0.115 C 
ATOM      5  C   UNL     1       7.277  -2.281   2.977  0.00  0.00    -0.004 C 
ATOM      6  C   UNL     1       8.472  -1.480   3.483  0.00  0.00    -0.010 C 
ATOM      7  C   UNL     1       9.722  -2.364   3.457  0.00  0.00    -0.082 C 
ATOM      8  N   UNL     1       9.966  -2.830   2.087  0.00  0.00    +0.379 N 
ATOM      9  C   UNL     1       8.853  -3.677   1.641  0.00  0.00    -0.082 C 
ATOM     10  C   UNL     1       7.567  -2.849   1.590  0.00  0.00    -0.010 C 
ATOM     11  C   UNL     1       4.687  -4.592   4.001  0.00  0.00    +0.219 C 
ATOM     12  O   UNL     1       5.197  -5.691   4.041  0.00  0.00    -0.275 OA
ATOM     13  H   UNL     1      10.048  -2.034   1.472  0.00  0.00    -0.086 HD
ATOM     14  H   UNL     1      10.823  -3.361   2.061  0.00  0.00    -0.086 HD
ENDROOT
BRANCH  11  15
ATOM     15  C   UNL     1       3.186  -4.457   3.995  0.00  0.00    +0.079 C 
ATOM     16  C   UNL     1       2.543  -5.848   4.056  0.00  0.00    +0.017 C 
ATOM     17  C   UNL     1       1.032  -5.692   3.869  0.00  0.00    +0.027 C 
ATOM     18  C   UNL     1       0.505  -4.630   4.789  0.00  0.00    -0.031 C 
ATOM     19  C   UNL     1       1.245  -3.744   5.374  0.00  0.00    -0.030 C 
ATOM     20  C   UNL     1       2.736  -3.657   5.220  0.00  0.00    +0.039 C 
ENDBRANCH  11  15
BRANCH   1  22
ATOM     21  N   UNL     1       5.811  -0.380   0.693  0.00  0.00    -0.311 N 
ATOM     22  C   UNL     1       5.447  -1.359   1.545  0.00  0.00    +0.218 C 
ATOM     23  O   UNL     1       4.659  -2.210   1.190  0.00  0.00    -0.275 OA
ATOM     24  H   UNL     1       6.441   0.301   0.977  0.00  0.00    +0.149 HD
BRANCH  21  25
ATOM     25  C   UNL     1       5.254  -0.343  -0.662  0.00  0.00    +0.142 C 
BRANCH  25  29
ATOM     26  C   UNL     1       6.852   3.014  -2.769  0.00  0.00    +0.018 A 
ATOM     27  C   UNL     1       7.599   1.858  -2.646  0.00  0.00    +0.040 A 
ATOM     28  C   UNL     1       7.082   0.770  -1.964  0.00  0.00    +0.128 A 
ATOM     29  C   UNL     1       5.818   0.841  -1.404  0.00  0.00    +0.006 A 
ATOM     30  C   UNL     1       5.072   1.998  -1.528  0.00  0.00    +0.023 A 
ATOM     31  C   UNL     1       5.589   3.085  -2.210  0.00  0.00    +0.018 A 
ATOM     32 BR   UNL     1       4.568   4.667  -2.379  0.00  0.00    -0.050 Br
ATOM     33  F   UNL     1       7.812  -0.361  -1.843  0.00  0.00    -0.205 F 
ENDBRANCH  25  29
ENDBRANCH  21  25
ENDBRANCH   1  22
TORSDOF 4
