REMARK  Name = ZINC61690644
REMARK  3 active torsions:
REMARK  status: ('A' for Active; 'I' for Inactive)
REMARK    1  A    between atoms: C_6  and  C_7
REMARK    2  A    between atoms: C_8  and  S_13
REMARK    3  A    between atoms: S_13  and  N_16
REMARK                            x       y       z     vdW  Elec       q    Type
REMARK                         _______ _______ _______ _____ _____    ______ ____
ROOT
ATOM      1  C   UNL     1      -0.716  -0.907   0.310  0.00  0.00    +0.119 A 
ATOM      2  C   UNL     1      -1.282  -1.858  -0.562  0.00  0.00    +0.150 A 
ATOM      3  C   UNL     1      -2.598  -1.954  -0.272  0.00  0.00    +0.134 A 
ATOM      4  N   UNL     1      -2.865  -1.102   0.741  0.00  0.00    -0.282 N 
ATOM      5  H   UNL     1      -3.732  -0.962   1.154  0.00  0.00    +0.188 HD
ATOM      6  N   UNL     1      -1.672  -0.459   1.096  0.00  0.00    -0.172 NA
ENDROOT
BRANCH   1  12
ATOM      7  C   UNL     1       1.381  -0.217  -0.848  0.00  0.00    +0.013 A 
ATOM      8  C   UNL     1       2.705   0.172  -0.816  0.00  0.00    +0.040 A 
ATOM      9  C   UNL     1       3.364   0.292   0.397  0.00  0.00    +0.137 A 
ATOM     10  C   UNL     1       2.698   0.022   1.582  0.00  0.00    +0.054 A 
ATOM     11  C   UNL     1       1.374  -0.367   1.558  0.00  0.00    +0.028 A 
ATOM     12  C   UNL     1       0.707  -0.489   0.340  0.00  0.00    +0.005 A 
ATOM     13 BR   UNL     1       3.604   0.187   3.233  0.00  0.00    -0.047 Br
ATOM     14  F   UNL     1       4.660   0.673   0.424  0.00  0.00    -0.204 F 
ENDBRANCH   1  12
BRANCH   2  15
ATOM     15  S   UNL     1      -0.425  -2.762  -1.808  0.00  0.00    +0.059 S 
ATOM     16  O   UNL     1       0.796  -3.199  -1.227  0.00  0.00    -0.153 OA
ATOM     17  O   UNL     1      -1.366  -3.665  -2.373  0.00  0.00    -0.153 OA
BRANCH  15  18
ATOM     18  N   UNL     1      -0.024  -1.688  -3.003  0.00  0.00    -0.203 NA
ATOM     19  H   UNL     1      -0.341  -0.773  -2.959  0.00  0.00    +0.144 HD
ATOM     20  H   UNL     1       0.529  -1.974  -3.747  0.00  0.00    +0.144 HD
ENDBRANCH  15  18
ENDBRANCH   2  15
TORSDOF 3
