REMARK  Name = ZINC13052128
REMARK  13 active torsions:
REMARK  status: ('A' for Active; 'I' for Inactive)
REMARK    1  A    between atoms: C_1  and  C_2
REMARK    2  A    between atoms: C_2  and  C_3
REMARK    3  A    between atoms: C_3  and  C_5
REMARK    4  A    between atoms: C_3  and  N_12
REMARK    5  A    between atoms: C_8  and  C_11
REMARK    6  A    between atoms: C_13  and  C_15
REMARK    7  A    between atoms: C_15  and  S_16
REMARK    8  A    between atoms: S_16  and  C_17
REMARK    9  A    between atoms: C_21  and  C_33
REMARK   10  A    between atoms: N_27  and  C_28
REMARK   11  A    between atoms: C_28  and  C_29
REMARK   12  A    between atoms: C_29  and  C_31
REMARK   13  A    between atoms: C_29  and  O_32
REMARK                            x       y       z     vdW  Elec       q    Type
REMARK                         _______ _______ _______ _____ _____    ______ ____
ROOT
ATOM      1  C   UNL     1      -2.467   7.741   0.030  0.00  0.00    +0.173 A 
ATOM      2  N   UNL     1      -1.448   8.075   0.782  0.00  0.00    -0.223 NA
ATOM      3  C   UNL     1      -1.132   9.371   1.014  0.00  0.00    +0.080 A 
ATOM      4  C   UNL     1      -0.040   9.725   1.812  0.00  0.00    +0.043 A 
ATOM      5  C   UNL     1       0.243  11.068   2.025  0.00  0.00    +0.065 A 
ATOM      6  C   UNL     1      -0.556  12.063   1.447  0.00  0.00    +0.016 A 
ATOM      7  C   UNL     1      -1.624  11.729   0.665  0.00  0.00    +0.016 A 
ATOM      8  C   UNL     1      -1.927  10.387   0.438  0.00  0.00    +0.065 A 
ATOM      9  C   UNL     1      -3.069   9.983  -0.398  0.00  0.00    +0.262 A 
ATOM     10  O   UNL     1      -3.791  10.811  -0.921  0.00  0.00    -0.267 OA
ATOM     11  N   UNL     1      -3.287   8.658  -0.563  0.00  0.00    -0.285 N 
ENDROOT
BRANCH   5  12
ATOM     12  C   UNL     1       1.397  11.450   2.869  0.00  0.00    +0.387 C 
ATOM     13  O   UNL     1       2.092  10.591   3.372  0.00  0.00    -0.241 OA
ATOM     14  O   UNL     1       1.675  12.751   3.079  0.00  0.00    -0.241 OA
ENDBRANCH   5  12
BRANCH   1  15
ATOM     15  S   UNL     1      -2.801   6.030  -0.222  0.00  0.00    -0.078 S 
BRANCH  15  16
ATOM     16  C   UNL     1      -1.460   5.301   0.752  0.00  0.00    +0.173 C 
BRANCH  16  18
ATOM     17  N   UNL     1      -0.645   3.040   1.336  0.00  0.00    -0.308 N 
ATOM     18  C   UNL     1      -1.547   3.799   0.682  0.00  0.00    +0.224 C 
ATOM     19  O   UNL     1      -2.428   3.272   0.036  0.00  0.00    -0.275 OA
ATOM     20  H   UNL     1       0.060   3.462   1.852  0.00  0.00    +0.149 HD
BRANCH  17  21
ATOM     21  C   UNL     1      -0.729   1.579   1.267  0.00  0.00    +0.103 C 
BRANCH  21  22
ATOM     22  C   UNL     1      -0.074   0.981   2.485  0.00  0.00    -0.027 A 
ATOM     23  C   UNL     1       1.100   1.522   2.975  0.00  0.00    +0.006 A 
ATOM     24  C   UNL     1       1.698   0.976   4.095  0.00  0.00    +0.004 A 
ATOM     25  C   UNL     1       1.129  -0.118   4.719  0.00  0.00    -0.050 A 
ATOM     26  C   UNL     1      -0.042  -0.664   4.225  0.00  0.00    +0.004 A 
ATOM     27  C   UNL     1      -0.643  -0.114   3.108  0.00  0.00    +0.006 A 
ATOM     28  C   UNL     1       1.784  -0.718   5.936  0.00  0.00    +0.044 C 
ENDBRANCH  21  22
BRANCH  21  30
ATOM     29  C   UNL     1      -0.753   1.593  -1.232  0.00  0.00    +0.006 C 
ATOM     30  C   UNL     1      -0.013   1.086   0.008  0.00  0.00    +0.024 C 
ENDBRANCH  21  30
ENDBRANCH  17  21
ENDBRANCH  16  18
ENDBRANCH  15  16
ENDBRANCH   1  15
BRANCH  11  31
ATOM     31  C   UNL     1      -4.411   8.204  -1.386  0.00  0.00    +0.158 C 
BRANCH  31  32
ATOM     32  C   UNL     1      -5.652   8.039  -0.507  0.00  0.00    +0.131 C 
ATOM     33  C   UNL     1      -6.826   7.564  -1.366  0.00  0.00    +0.039 C 
BRANCH  32  34
ATOM     34  O   UNL     1      -5.389   7.075   0.514  0.00  0.00    -0.390 OA
ATOM     35  H   UNL     1      -5.159   6.198   0.177  0.00  0.00    +0.210 HD
ENDBRANCH  32  34
ENDBRANCH  31  32
ENDBRANCH  11  31
TORSDOF 10
