REMARK  Name = ZINC20155124
REMARK  10 active torsions:
REMARK  status: ('A' for Active; 'I' for Inactive)
REMARK    1  A    between atoms: C_1  and  O_2
REMARK    2  A    between atoms: O_2  and  C_3
REMARK    3  A    between atoms: C_8  and  C_9
REMARK    4  A    between atoms: C_9  and  N_10
REMARK    5  A    between atoms: N_10  and  C_11
REMARK    6  A    between atoms: C_11  and  C_12
REMARK    7  A    between atoms: N_14  and  C_15
REMARK    8  A    between atoms: C_18  and  N_31
REMARK    9  A    between atoms: C_20  and  C_21
REMARK   10  A    between atoms: N_23  and  C_24
REMARK                            x       y       z     vdW  Elec       q    Type
REMARK                         _______ _______ _______ _____ _____    ______ ____
ROOT
ATOM      1  C   UNL     1       3.904   0.983  -0.101  0.00  0.00    +0.046 A 
ATOM      2  C   UNL     1       4.764   0.027  -0.625  0.00  0.00    +0.026 A 
ATOM      3  C   UNL     1       4.474  -1.315  -0.484  0.00  0.00    +0.034 A 
ATOM      4  C   UNL     1       3.329  -1.719   0.184  0.00  0.00    +0.127 A 
ATOM      5  C   UNL     1       2.467  -0.784   0.715  0.00  0.00    +0.047 A 
ATOM      6  C   UNL     1       2.747   0.578   0.581  0.00  0.00    +0.060 A 
ENDROOT
BRANCH   1   9
ATOM      7  C   UNL     1       5.470   2.764  -0.209  0.00  0.00    +0.200 C 
ATOM      8  O   UNL     1       6.375   1.960  -0.130  0.00  0.00    -0.278 OA
ATOM      9  N   UNL     1       4.192   2.338  -0.247  0.00  0.00    -0.286 N 
ATOM     10  H   UNL     1       3.376   3.061  -0.393  0.00  0.00    +0.155 HD
BRANCH   7  11
ATOM     11  C   UNL     1       5.776   4.238  -0.266  0.00  0.00    +0.016 C 
BRANCH  11  12
ATOM     12  N   UNL     1       7.230   4.439  -0.209  0.00  0.00    +0.387 N 
ATOM     13  H   UNL     1       7.691   3.922  -1.064  0.00  0.00    -0.085 HD
ATOM     14  H   UNL     1       7.610   4.008   0.728  0.00  0.00    -0.085 HD
BRANCH  12  15
ATOM     15  C   UNL     1       7.566   5.868  -0.263  0.00  0.00    -0.042 C 
BRANCH  15  21
ATOM     16  C   UNL     1       9.828   5.848  -1.345  0.00  0.00    +0.121 A 
ATOM     17  C   UNL     1      11.206   6.003  -1.286  0.00  0.00    +0.046 A 
ATOM     18  C   UNL     1      11.812   6.342  -0.092  0.00  0.00    +0.004 A 
ATOM     19  C   UNL     1      11.046   6.528   1.045  0.00  0.00    +0.000 A 
ATOM     20  C   UNL     1       9.673   6.379   0.988  0.00  0.00    +0.005 A 
ATOM     21  C   UNL     1       9.063   6.035  -0.203  0.00  0.00    -0.023 A 
BRANCH  16  23
ATOM     22  C   UNL     1      10.080   5.338  -3.653  0.00  0.00    +0.277 C 
ATOM     23  O   UNL     1       9.230   5.515  -2.518  0.00  0.00    -0.495 OA
ENDBRANCH  16  23
ENDBRANCH  15  21
ENDBRANCH  12  15
ENDBRANCH  11  12
ENDBRANCH   7  11
ENDBRANCH   1   9
BRANCH   6  24
ATOM     24  C   UNL     1       1.829   1.584   1.147  0.00  0.00    +0.250 C 
ATOM     25  O   UNL     1       2.028   2.767   0.952  0.00  0.00    -0.270 OA
ATOM     26  N   UNL     1       0.770   1.191   1.882  0.00  0.00    -0.279 N 
ATOM     27  H   UNL     1       0.550   0.120   2.002  0.00  0.00    +0.155 HD
BRANCH  26  28
ATOM     28  C   UNL     1      -0.051   2.146   2.493  0.00  0.00    +0.069 A 
ATOM     29  C   UNL     1      -0.290   3.361   1.866  0.00  0.00    +0.026 A 
ATOM     30  C   UNL     1      -1.105   4.300   2.469  0.00  0.00    +0.002 A 
ATOM     31  C   UNL     1      -1.674   4.036   3.701  0.00  0.00    +0.003 A 
ATOM     32  C   UNL     1      -1.435   2.829   4.332  0.00  0.00    +0.040 A 
ATOM     33  C   UNL     1      -0.625   1.883   3.732  0.00  0.00    +0.144 A 
ATOM     34  F   UNL     1      -0.390   0.704   4.349  0.00  0.00    -0.204 F 
ENDBRANCH  26  28
ENDBRANCH   6  24
BRANCH   4  35
ATOM     35  N   UNL     1       3.030  -3.161   0.327  0.00  0.00    +0.056 N 
ATOM     36  O   UNL     1       2.024  -3.520   0.913  0.00  0.00    -0.126 OA
ATOM     37  O   UNL     1       3.789  -3.990  -0.142  0.00  0.00    -0.126 OA
ENDBRANCH   4  35
TORSDOF 9
