REMARK  Name = ZINC64774685
REMARK  10 active torsions:
REMARK  status: ('A' for Active; 'I' for Inactive)
REMARK    1  A    between atoms: C_1  and  C_2
REMARK    2  A    between atoms: C_6  and  N_9
REMARK    3  A    between atoms: C_7  and  C_8
REMARK    4  A    between atoms: C_10  and  C_12
REMARK    5  A    between atoms: C_12  and  C_14
REMARK    6  A    between atoms: C_12  and  S_15
REMARK    7  A    between atoms: S_15  and  C_16
REMARK    8  A    between atoms: C_20  and  C_23
REMARK    9  A    between atoms: C_28  and  N_29
REMARK   10  A    between atoms: C_30  and  C_32
REMARK                            x       y       z     vdW  Elec       q    Type
REMARK                         _______ _______ _______ _____ _____    ______ ____
ROOT
ATOM      1  C   UNL     1      -0.981  -7.256   4.989  0.00  0.00    +0.213 A 
ATOM      2  N   UNL     1      -1.472  -8.484   5.117  0.00  0.00    -0.180 NA
ATOM      3  C   UNL     1      -1.622  -9.004   6.328  0.00  0.00    +0.300 A 
ATOM      4  O   UNL     1      -2.120 -10.254   6.487  0.00  0.00    -0.263 OA
ATOM      5  C   UNL     1      -1.253  -8.230   7.443  0.00  0.00    +0.161 A 
ATOM      6  N   UNL     1      -0.768  -7.009   7.248  0.00  0.00    -0.141 NA
ATOM      7  N   UNL     1      -0.634  -6.545   6.055  0.00  0.00    -0.122 NA
ENDROOT
BRANCH   5   8
ATOM      8  C   UNL     1      -1.403  -8.768   8.815  0.00  0.00    +0.029 A 
ATOM      9  C   UNL     1      -0.899 -10.029   9.132  0.00  0.00    +0.012 A 
ATOM     10  C   UNL     1      -1.042 -10.526  10.411  0.00  0.00    +0.001 A 
ATOM     11  C   UNL     1      -1.684  -9.778  11.383  0.00  0.00    +0.002 A 
ATOM     12  C   UNL     1      -2.188  -8.527  11.082  0.00  0.00    +0.024 A 
ATOM     13  C   UNL     1      -2.047  -8.011   9.802  0.00  0.00    +0.043 A 
BRANCH  13  14
ATOM     14  N   UNL     1      -2.550  -6.744   9.496  0.00  0.00    -0.285 N 
ATOM     15  C   UNL     1      -2.711  -5.830  10.473  0.00  0.00    +0.214 C 
ATOM     16  O   UNL     1      -2.326  -6.070  11.598  0.00  0.00    -0.276 OA
ATOM     17  C   UNL     1      -3.369  -4.509  10.168  0.00  0.00    +0.109 C 
ATOM     18  H   UNL     1      -2.784  -6.523   8.581  0.00  0.00    +0.155 HD
ENDBRANCH  13  14
ENDBRANCH   5   8
BRANCH   1  19
ATOM     19  S   UNL     1      -0.781  -6.564   3.381  0.00  0.00    -0.072 S 
BRANCH  19  20
ATOM     20  C   UNL     1      -0.097  -4.914   3.695  0.00  0.00    +0.137 C 
ATOM     21  C   UNL     1       1.292  -5.048   4.323  0.00  0.00    +0.029 C 
BRANCH  20  23
ATOM     22  N   UNL     1       0.100  -2.814   2.403  0.00  0.00    -0.284 N 
ATOM     23  C   UNL     1       0.010  -4.159   2.396  0.00  0.00    +0.230 C 
ATOM     24  O   UNL     1       0.015  -4.761   1.343  0.00  0.00    -0.274 OA
ATOM     25  H   UNL     1       0.177  -2.338   3.245  0.00  0.00    +0.155 HD
BRANCH  22  31
ATOM     26  C   UNL     1       1.286   1.213  -0.156  0.00  0.00    +0.044 C 
ATOM     27  C   UNL     1       0.650  -0.151  -0.072  0.00  0.00    -0.046 A 
ATOM     28  C   UNL     1       0.049  -0.702  -1.188  0.00  0.00    +0.004 A 
ATOM     29  C   UNL     1      -0.536  -1.953  -1.115  0.00  0.00    +0.002 A 
ATOM     30  C   UNL     1      -0.520  -2.656   0.074  0.00  0.00    +0.023 A 
ATOM     31  C   UNL     1       0.083  -2.105   1.197  0.00  0.00    +0.037 A 
ATOM     32  C   UNL     1       0.674  -0.850   1.119  0.00  0.00    -0.026 A 
ATOM     33  C   UNL     1       1.335  -0.251   2.333  0.00  0.00    +0.046 C 
ENDBRANCH  22  31
ENDBRANCH  20  23
ENDBRANCH  19  20
ENDBRANCH   1  19
TORSDOF 6
