REMARK  Name = ZINC12657613
REMARK  10 active torsions:
REMARK  status: ('A' for Active; 'I' for Inactive)
REMARK    1  A    between atoms: C_1  and  O_2
REMARK    2  A    between atoms: O_2  and  C_3
REMARK    3  A    between atoms: C_6  and  C_9
REMARK    4  A    between atoms: C_10  and  C_11
REMARK    5  A    between atoms: N_13  and  C_14
REMARK    6  A    between atoms: C_14  and  C_25
REMARK    7  A    between atoms: C_15  and  C_16
REMARK    8  A    between atoms: C_20  and  N_22
REMARK    9  A    between atoms: N_27  and  C_28
REMARK   10  A    between atoms: C_32  and  C_34
REMARK                            x       y       z     vdW  Elec       q    Type
REMARK                         _______ _______ _______ _____ _____    ______ ____
ROOT
ATOM      1  C   UNL     1      -1.215   6.373   0.133  0.00  0.00    +0.097 C 
ATOM      2  C   UNL     1      -0.397   5.295   0.126  0.00  0.00    +0.036 C 
ENDROOT
BRANCH   2   3
ATOM      3  C   UNL     1      -0.963   3.943   0.004  0.00  0.00    -0.021 A 
ATOM      4  C   UNL     1      -2.249   3.763  -0.517  0.00  0.00    +0.008 A 
ATOM      5  C   UNL     1      -2.770   2.492  -0.634  0.00  0.00    +0.003 A 
ATOM      6  C   UNL     1      -2.029   1.396  -0.227  0.00  0.00    +0.033 A 
ATOM      7  C   UNL     1      -0.756   1.566   0.289  0.00  0.00    +0.127 A 
ATOM      8  C   UNL     1      -0.219   2.830   0.407  0.00  0.00    +0.040 A 
BRANCH   7   9
ATOM      9  N   UNL     1       0.030   0.387   0.716  0.00  0.00    +0.056 N 
ATOM     10  O   UNL     1      -0.443  -0.731   0.612  0.00  0.00    -0.126 OA
ATOM     11  O   UNL     1       1.151   0.534   1.170  0.00  0.00    -0.126 OA
ENDBRANCH   7   9
ENDBRANCH   2   3
BRANCH   1  14
ATOM     12  C   UNL     1      -3.378   6.774  -0.769  0.00  0.00    +0.241 C 
ATOM     13  O   UNL     1      -2.868   7.366  -1.703  0.00  0.00    -0.270 OA
ATOM     14  N   UNL     1      -2.601   6.198   0.169  0.00  0.00    -0.278 N 
ATOM     15  H   UNL     1      -3.004   5.662   0.871  0.00  0.00    +0.155 HD
BRANCH  12  17
ATOM     16  C   UNL     1      -5.611   7.174  -1.659  0.00  0.00    +0.013 C 
ATOM     17  C   UNL     1      -4.834   6.688  -0.667  0.00  0.00    +0.068 C 
BRANCH  16  21
ATOM     18  C   UNL     1      -9.828   7.233  -1.214  0.00  0.00    +0.120 A 
ATOM     19  C   UNL     1      -9.248   7.714  -2.382  0.00  0.00    +0.046 A 
ATOM     20  C   UNL     1      -7.880   7.697  -2.531  0.00  0.00    +0.011 A 
ATOM     21  C   UNL     1      -7.072   7.194  -1.504  0.00  0.00    -0.025 A 
ATOM     22  C   UNL     1      -7.662   6.705  -0.333  0.00  0.00    +0.011 A 
ATOM     23  C   UNL     1      -9.031   6.731  -0.192  0.00  0.00    +0.046 A 
BRANCH  18  25
ATOM     24  C   UNL     1     -11.709   6.742   0.153  0.00  0.00    +0.277 C 
ATOM     25  O   UNL     1     -11.178   7.252  -1.072  0.00  0.00    -0.495 OA
ENDBRANCH  18  25
ENDBRANCH  16  21
ENDBRANCH  12  17
ENDBRANCH   1  14
BRANCH   1  26
ATOM     26  C   UNL     1      -0.646   7.728   0.102  0.00  0.00    +0.262 C 
ATOM     27  O   UNL     1      -1.381   8.697   0.108  0.00  0.00    -0.268 OA
ATOM     28  N   UNL     1       0.691   7.897   0.067  0.00  0.00    -0.280 N 
ATOM     29  H   UNL     1       1.279   7.129   0.138  0.00  0.00    +0.155 HD
BRANCH  28  30
ATOM     30  C   UNL     1       1.230   9.180  -0.072  0.00  0.00    +0.034 A 
ATOM     31  C   UNL     1       2.433   9.499   0.547  0.00  0.00    +0.023 A 
ATOM     32  C   UNL     1       2.973  10.763   0.409  0.00  0.00    +0.003 A 
ATOM     33  C   UNL     1       2.316  11.722  -0.336  0.00  0.00    +0.015 A 
ATOM     34  C   UNL     1       1.105  11.413  -0.958  0.00  0.00    +0.065 A 
ATOM     35  C   UNL     1       0.563  10.134  -0.823  0.00  0.00    +0.038 A 
BRANCH  34  36
ATOM     36  C   UNL     1       0.400  12.437  -1.756  0.00  0.00    +0.387 C 
ATOM     37  O   UNL     1      -0.654  12.166  -2.296  0.00  0.00    -0.241 OA
ATOM     38  O   UNL     1       0.925  13.671  -1.885  0.00  0.00    -0.241 OA
ENDBRANCH  34  36
ENDBRANCH  28  30
ENDBRANCH   1  26
TORSDOF 9
