REMARK  Name = ZINC35426696
REMARK  3 active torsions:
REMARK  status: ('A' for Active; 'I' for Inactive)
REMARK    1  A    between atoms: C_6  and  N_7
REMARK    2  A    between atoms: N_10  and  C_11
REMARK    3  A    between atoms: C_14  and  C_16
REMARK                            x       y       z     vdW  Elec       q    Type
REMARK                         _______ _______ _______ _____ _____    ______ ____
ROOT
ATOM      1  N   UNL     1      -1.200  -0.722   0.010  0.00  0.00    -0.269 N 
ATOM      2  C   UNL     1      -1.183  -2.065  -0.099  0.00  0.00    +0.308 C 
ATOM      3  O   UNL     1      -0.124  -2.661  -0.113  0.00  0.00    -0.252 OA
ATOM      4  N   UNL     1      -2.342  -2.748  -0.193  0.00  0.00    -0.263 N 
ATOM      5  H   UNL     1      -2.044  -0.253   0.099  0.00  0.00    +0.156 HD
ATOM      6  H   UNL     1      -3.187  -2.272  -0.182  0.00  0.00    +0.157 HD
ENDROOT
BRANCH   1  12
ATOM      7  C   UNL     1       1.071  -0.453  -0.767  0.00  0.00    +0.025 A 
ATOM      8  C   UNL     1       2.256   0.257  -0.780  0.00  0.00    +0.022 A 
ATOM      9  C   UNL     1       2.377   1.417  -0.034  0.00  0.00    +0.041 A 
ATOM     10  C   UNL     1       1.312   1.867   0.727  0.00  0.00    +0.022 A 
ATOM     11  C   UNL     1       0.126   1.160   0.743  0.00  0.00    +0.025 A 
ATOM     12  C   UNL     1       0.002  -0.004  -0.005  0.00  0.00    +0.035 A 
ATOM     13 CL   UNL     1       3.867   2.307  -0.053  0.00  0.00    -0.084 Cl
ENDBRANCH   1  12
BRANCH   4  14
ATOM     14  C   UNL     1      -2.325  -4.130  -0.305  0.00  0.00    +0.074 A 
ATOM     15  C   UNL     1      -3.401  -4.985  -0.416  0.00  0.00    +0.032 A 
ATOM     16  C   UNL     1      -3.164  -6.328  -0.517  0.00  0.00    +0.025 A 
ATOM     17  C   UNL     1      -1.826  -6.713  -0.498  0.00  0.00    +0.102 A 
ATOM     18  S   UNL     1      -0.989  -5.148  -0.345  0.00  0.00    -0.067 S 
BRANCH  17  19
ATOM     19  C   UNL     1      -1.275  -8.010  -0.584  0.00  0.00    +0.393 C 
ATOM     20  O   UNL     1      -2.013  -8.983  -0.691  0.00  0.00    -0.240 OA
ATOM     21  O   UNL     1      -0.059  -8.162  -0.551  0.00  0.00    -0.240 OA
ENDBRANCH  17  19
ENDBRANCH   4  14
TORSDOF 3
