REMARK  Name = ZINC43735505
REMARK  10 active torsions:
REMARK  status: ('A' for Active; 'I' for Inactive)
REMARK    1  A    between atoms: C_1  and  C_2
REMARK    2  A    between atoms: C_8  and  C_29
REMARK    3  A    between atoms: C_12  and  C_14
REMARK    4  A    between atoms: C_12  and  C_18
REMARK    5  A    between atoms: C_14  and  C_15
REMARK    6  A    between atoms: C_18  and  O_19
REMARK    7  A    between atoms: C_22  and  O_28
REMARK    8  A    between atoms: C_24  and  C_25
REMARK    9  A    between atoms: C_24  and  C_26
REMARK   10  A    between atoms: C_26  and  O_27
REMARK                            x       y       z     vdW  Elec       q    Type
REMARK                         _______ _______ _______ _____ _____    ______ ____
ROOT
ATOM      1  C   UNL     1      -0.570   1.940   0.512  0.00  0.00    +0.010 C 
ATOM      2  C   UNL     1      -0.473   0.424   0.643  0.00  0.00    +0.018 C 
ATOM      3  C   UNL     1      -1.862  -0.147   0.946  0.00  0.00    +0.006 C 
ATOM      4  C   UNL     1      -1.776  -1.674   0.909  0.00  0.00    +0.005 C 
ATOM      5  C   UNL     1      -0.765  -2.214   1.919  0.00  0.00    +0.008 C 
ATOM      6  C   UNL     1       0.583  -1.515   1.818  0.00  0.00    +0.001 C 
ATOM      7  C   UNL     1       0.442   0.018   1.795  0.00  0.00    +0.079 C 
ATOM      8  C   UNL     1       1.823   0.670   1.627  0.00  0.00    +0.039 C 
ATOM      9  C   UNL     1       1.838   1.822   2.656  0.00  0.00    +0.041 C 
ATOM     10  C   UNL     1       0.695   1.489   3.629  0.00  0.00    +0.103 C 
ATOM     11  O   UNL     1      -0.097   0.455   3.044  0.00  0.00    -0.363 OA
ATOM     12  C   UNL     1       1.332  -1.957   0.562  0.00  0.00    +0.012 C 
ATOM     13  C   UNL     1       1.548  -3.468   0.591  0.00  0.00    +0.032 C 
ATOM     14  C   UNL     1       0.205  -4.183   0.622  0.00  0.00    +0.123 C 
ATOM     15  C   UNL     1      -0.676  -3.730   1.779  0.00  0.00    +0.020 C 
ATOM     16  C   UNL     1      -2.088  -4.303   1.515  0.00  0.00    +0.016 C 
ATOM     17  C   UNL     1       1.441  -1.841   3.053  0.00  0.00    +0.014 C 
ENDROOT
BRANCH  14  18
ATOM     18  O   UNL     1      -0.478  -3.983  -0.620  0.00  0.00    -0.391 OA
ATOM     19  H   UNL     1       0.002  -4.316  -1.390  0.00  0.00    +0.210 HD
ENDBRANCH  14  18
BRANCH  10  20
ATOM     20  C   UNL     1      -0.160   2.739   3.872  0.00  0.00    +0.162 C 
BRANCH  20  21
ATOM     21  C   UNL     1       0.701   3.831   4.452  0.00  0.00    +0.359 C 
ATOM     22  O   UNL     1       1.908   3.677   4.534  0.00  0.00    -0.246 OA
ATOM     23  O   UNL     1       0.191   4.869   4.839  0.00  0.00    -0.246 OA
ENDBRANCH  20  21
ENDBRANCH  10  20
BRANCH  10  24
ATOM     24  C   UNL     1       1.276   1.024   4.970  0.00  0.00    +0.191 C 
BRANCH  24  25
ATOM     25  O   UNL     1       0.212   0.786   5.893  0.00  0.00    -0.392 OA
ATOM     26  H   UNL     1       0.507   0.488   6.765  0.00  0.00    +0.210 HD
ENDBRANCH  24  25
ENDBRANCH  10  24
BRANCH  15  27
ATOM     27  C   UNL     1      -0.205  -4.392   3.081  0.00  0.00    +0.165 C 
BRANCH  27  28
ATOM     28  O   UNL     1      -1.054  -3.985   4.156  0.00  0.00    -0.394 OA
ATOM     29  H   UNL     1      -0.814  -4.365   5.012  0.00  0.00    +0.209 HD
ENDBRANCH  27  28
ENDBRANCH  15  27
TORSDOF 7
