REMARK  Name = ZINC03843558
REMARK  6 active torsions:
REMARK  status: ('A' for Active; 'I' for Inactive)
REMARK    1  A    between atoms: C_1  and  C_2
REMARK    2  A    between atoms: C_5  and  C_26
REMARK    3  A    between atoms: C_5  and  O_28
REMARK    4  A    between atoms: C_17  and  C_25
REMARK    5  A    between atoms: C_22  and  C_23
REMARK    6  A    between atoms: C_22  and  O_24
REMARK                            x       y       z     vdW  Elec       q    Type
REMARK                         _______ _______ _______ _____ _____    ______ ____
ROOT
ATOM      1  C   UNL     1      -2.061   0.908  -1.243  0.00  0.00    +0.012 C 
ATOM      2  C   UNL     1      -0.664   1.513  -1.198  0.00  0.00    -0.026 C 
ATOM      3  C   UNL     1       0.080   1.008   0.044  0.00  0.00    +0.011 C 
ATOM      4  C   UNL     1      -0.618   1.466   1.318  0.00  0.00    +0.048 C 
ATOM      5  C   UNL     1      -0.772   2.982   1.375  0.00  0.00    +0.126 C 
ATOM      6  C   UNL     1      -1.440   3.516   0.110  0.00  0.00    +0.052 C 
ATOM      7  C   UNL     1      -0.706   3.047  -1.138  0.00  0.00    -0.001 C 
ATOM      8  C   UNL     1      -1.334   3.645  -2.393  0.00  0.00    +0.004 C 
ATOM      9  C   UNL     1      -0.544   3.218  -3.642  0.00  0.00    +0.004 C 
ATOM     10  C   UNL     1      -0.562   1.699  -3.691  0.00  0.00    -0.004 C 
ATOM     11  C   UNL     1       0.138   1.151  -2.444  0.00  0.00    -0.001 C 
ATOM     12  C   UNL     1       0.424  -0.328  -2.632  0.00  0.00    +0.005 C 
ATOM     13  C   UNL     1       1.577  -0.471  -3.649  0.00  0.00    +0.010 C 
ATOM     14  C   UNL     1       1.443   0.552  -4.744  0.00  0.00    -0.000 C 
ATOM     15  C   UNL     1      -0.006   1.046  -4.918  0.00  0.00    +0.001 C 
ATOM     16  C   UNL     1       0.097   1.922  -6.176  0.00  0.00    +0.007 C 
ATOM     17  C   UNL     1       1.119   1.168  -7.068  0.00  0.00    +0.035 C 
ATOM     18  C   UNL     1       1.770   0.081  -6.173  0.00  0.00    +0.069 C 
ATOM     19  C   UNL     1       1.160  -1.281  -6.483  0.00  0.00    +0.042 C 
ATOM     20  C   UNL     1       2.392   1.730  -4.462  0.00  0.00    +0.014 C 
ENDROOT
BRANCH  18  21
ATOM     21  O   UNL     1       3.183   0.061  -6.367  0.00  0.00    -0.388 OA
ATOM     22  H   UNL     1       3.455  -0.228  -7.249  0.00  0.00    +0.210 HD
ENDBRANCH  18  21
BRANCH   5  23
ATOM     23  C   UNL     1       0.541   3.619   1.564  0.00  0.00    -0.071 C 
ATOM     24  C   UNL     1       1.589   4.127   1.715  0.00  0.00    +0.007 C 
ENDBRANCH   5  23
BRANCH   5  25
ATOM     25  O   UNL     1      -1.599   3.316   2.502  0.00  0.00    -0.377 OA
ATOM     26  H   UNL     1      -1.248   3.013   3.351  0.00  0.00    +0.211 HD
ENDBRANCH   5  25
TORSDOF 3
