REMARK  Name = ZINC08831459
REMARK  6 active torsions:
REMARK  status: ('A' for Active; 'I' for Inactive)
REMARK    1  A    between atoms: C_8  and  C_10
REMARK    2  A    between atoms: N_12  and  C_13
REMARK    3  A    between atoms: C_16  and  N_19
REMARK    4  A    between atoms: N_19  and  C_20
REMARK    5  A    between atoms: C_20  and  N_22
REMARK    6  A    between atoms: C_23  and  C_25
REMARK                            x       y       z     vdW  Elec       q    Type
REMARK                         _______ _______ _______ _____ _____    ______ ____
ROOT
ATOM      1  C   UNL     1       8.643  -5.874   0.048  0.00  0.00    +0.034 A 
ATOM      2  C   UNL     1       7.513  -6.681   0.045  0.00  0.00    +0.025 A 
ATOM      3  C   UNL     1       6.257  -6.109   0.049  0.00  0.00    +0.025 A 
ATOM      4  C   UNL     1       6.123  -4.727   0.056  0.00  0.00    +0.033 A 
ATOM      5  C   UNL     1       7.253  -3.920   0.053  0.00  0.00    +0.025 A 
ATOM      6  C   UNL     1       8.509  -4.491   0.055  0.00  0.00    +0.025 A 
ENDROOT
BRANCH   1   9
ATOM      7  C   UNL     1      10.140  -7.587  -0.650  0.00  0.00    +0.284 C 
ATOM      8  O   UNL     1       9.222  -8.136  -1.230  0.00  0.00    -0.266 OA
ATOM      9  N   UNL     1       9.918  -6.453   0.044  0.00  0.00    -0.279 N 
ATOM     10  H   UNL     1      10.641  -6.039   0.540  0.00  0.00    +0.155 HD
BRANCH   7  18
ATOM     11  C   UNL     1      15.505 -10.316  -1.171  0.00  0.00    +0.001 A 
ATOM     12  C   UNL     1      15.908  -9.252  -0.375  0.00  0.00    +0.004 A 
ATOM     13  C   UNL     1      15.003  -8.299   0.038  0.00  0.00    +0.047 A 
ATOM     14  C   UNL     1      13.670  -8.399  -0.344  0.00  0.00    +0.136 A 
ATOM     15  C   UNL     1      13.267  -9.478  -1.151  0.00  0.00    +0.021 A 
ATOM     16  C   UNL     1      14.200 -10.434  -1.559  0.00  0.00    +0.011 A 
ATOM     17  C   UNL     1      11.833  -9.295  -1.372  0.00  0.00    +0.063 A 
ATOM     18  C   UNL     1      11.492  -8.161  -0.706  0.00  0.00    +0.191 A 
ATOM     19  O   UNL     1      12.583  -7.638  -0.109  0.00  0.00    -0.450 OA
ENDBRANCH   7  18
ENDBRANCH   1   9
BRANCH   4  20
ATOM     20  N   UNL     1       4.848  -4.147   0.060  0.00  0.00    -0.297 N 
ATOM     21  H   UNL     1       4.657  -3.392  -0.517  0.00  0.00    +0.154 HD
BRANCH  20  22
ATOM     22  C   UNL     1       3.887  -4.639   0.867  0.00  0.00    +0.141 C 
ATOM     23  S   UNL     1       4.194  -6.031   1.815  0.00  0.00    -0.018 S 
BRANCH  22  24
ATOM     24  N   UNL     1       2.683  -4.035   0.927  0.00  0.00    -0.264 N 
ATOM     25  C   UNL     1       1.722  -4.527   1.734  0.00  0.00    +0.250 C 
ATOM     26  O   UNL     1       1.940  -5.515   2.407  0.00  0.00    -0.270 OA
ATOM     27  H   UNL     1       2.509  -3.247   0.390  0.00  0.00    +0.157 HD
BRANCH  25  28
ATOM     28  C   UNL     1       0.405  -3.866   1.800  0.00  0.00    +0.041 A 
ATOM     29  C   UNL     1       0.152  -2.729   1.027  0.00  0.00    +0.017 A 
ATOM     30  C   UNL     1      -1.079  -2.114   1.091  0.00  0.00    +0.050 A 
ATOM     31  C   UNL     1      -2.072  -2.618   1.923  0.00  0.00    +0.162 A 
ATOM     32  C   UNL     1      -1.827  -3.752   2.694  0.00  0.00    +0.163 A 
ATOM     33  C   UNL     1      -0.593  -4.374   2.635  0.00  0.00    +0.062 A 
ATOM     34  O   UNL     1      -2.792  -4.263   3.507  0.00  0.00    -0.485 OA
ATOM     35  C   UNL     1      -3.889  -3.400   3.824  0.00  0.00    +0.270 C 
ATOM     36  C   UNL     1      -4.368  -2.735   2.526  0.00  0.00    +0.270 C 
ATOM     37  O   UNL     1      -3.276  -1.989   1.977  0.00  0.00    -0.485 OA
ENDBRANCH  25  28
ENDBRANCH  22  24
ENDBRANCH  20  22
ENDBRANCH   4  20
TORSDOF 6
