REMARK  Name = ZINC03194372
REMARK  5 active torsions:
REMARK  status: ('A' for Active; 'I' for Inactive)
REMARK    1  A    between atoms: C_4  and  C_7
REMARK    2  A    between atoms: C_7  and  O_8
REMARK    3  A    between atoms: O_8  and  C_9
REMARK    4  A    between atoms: C_13  and  C_15
REMARK    5  A    between atoms: N_16  and  C_17
REMARK                            x       y       z     vdW  Elec       q    Type
REMARK                         _______ _______ _______ _____ _____    ______ ____
ROOT
ATOM      1  C   UNL     1       5.319  -1.605   1.466  0.00  0.00    +0.122 A 
ATOM      2  C   UNL     1       6.048  -2.007   0.355  0.00  0.00    +0.046 A 
ATOM      3  C   UNL     1       7.247  -2.677   0.513  0.00  0.00    +0.004 A 
ATOM      4  C   UNL     1       7.728  -2.952   1.776  0.00  0.00    +0.009 A 
ATOM      5  C   UNL     1       7.002  -2.551   2.902  0.00  0.00    -0.003 A 
ATOM      6  C   UNL     1       5.793  -1.869   2.740  0.00  0.00    +0.055 A 
ENDROOT
BRANCH   5   7
ATOM      7  C   UNL     1       7.511  -2.843   4.253  0.00  0.00    +0.119 C 
ATOM      8  N   UNL     1       8.641  -3.475   4.401  0.00  0.00    -0.255 NA
BRANCH   8   9
ATOM      9  C   UNL     1       9.114  -3.745   5.656  0.00  0.00    +0.064 A 
ATOM     10  C   UNL     1       9.084  -2.760   6.645  0.00  0.00    +0.028 A 
ATOM     11  C   UNL     1       9.562  -3.039   7.908  0.00  0.00    +0.002 A 
ATOM     12  C   UNL     1      10.072  -4.293   8.196  0.00  0.00    +0.000 A 
ATOM     13  C   UNL     1      10.105  -5.274   7.221  0.00  0.00    +0.002 A 
ATOM     14  C   UNL     1       9.624  -5.010   5.955  0.00  0.00    +0.028 A 
ENDBRANCH   8   9
ENDBRANCH   5   7
BRANCH   1  15
ATOM     15  O   UNL     1       4.141  -0.946   1.304  0.00  0.00    -0.487 OA
BRANCH  15  16
ATOM     16  C   UNL     1       3.711  -0.707  -0.038  0.00  0.00    +0.264 C 
BRANCH  16  20
ATOM     17  C   UNL     1      -0.017   1.378   0.010  0.00  0.00    +0.000 A 
ATOM     18  C   UNL     1       1.171   2.086   0.002  0.00  0.00    +0.000 A 
ATOM     19  C   UNL     1       2.377   1.411  -0.013  0.00  0.00    +0.007 A 
ATOM     20  C   UNL     1       2.396   0.029  -0.020  0.00  0.00    -0.010 A 
ATOM     21  C   UNL     1       1.208  -0.679  -0.012  0.00  0.00    +0.007 A 
ATOM     22  C   UNL     1       0.002  -0.004   0.002  0.00  0.00    +0.000 A 
ENDBRANCH  16  20
ENDBRANCH  15  16
ENDBRANCH   1  15
TORSDOF 5
