REMARK  Name = ZINC40702525
REMARK  9 active torsions:
REMARK  status: ('A' for Active; 'I' for Inactive)
REMARK    1  A    between atoms: C_1  and  O_2
REMARK    2  A    between atoms: O_2  and  C_3
REMARK    3  A    between atoms: C_8  and  N_9
REMARK    4  A    between atoms: C_11  and  N_30
REMARK    5  A    between atoms: C_12  and  N_16
REMARK    6  A    between atoms: N_16  and  N_17
REMARK    7  A    between atoms: C_18  and  C_20
REMARK    8  A    between atoms: C_20  and  O_21
REMARK    9  A    between atoms: O_21  and  C_22
REMARK                            x       y       z     vdW  Elec       q    Type
REMARK                         _______ _______ _______ _____ _____    ______ ____
ROOT
ATOM      1  N   UNL     1      -0.075  -2.780  -0.013  0.00  0.00    -0.295 N 
ATOM      2  C   UNL     1      -0.129  -4.165   0.085  0.00  0.00    +0.149 A 
ATOM      3  C   UNL     1       1.045  -4.916   0.181  0.00  0.00    +0.107 A 
ATOM      4  C   UNL     1       0.933  -6.304   0.277  0.00  0.00    +0.161 A 
ATOM      5  N   UNL     1      -0.278  -6.855   0.274  0.00  0.00    -0.217 NA
ATOM      6  C   UNL     1      -1.361  -6.110   0.182  0.00  0.00    +0.225 A 
ATOM      7  N   UNL     1      -1.300  -4.797   0.095  0.00  0.00    -0.219 NA
ATOM      8  H   UNL     1       0.774  -2.320   0.081  0.00  0.00    +0.154 HD
ENDROOT
BRANCH   1  14
ATOM      9  C   UNL     1      -1.335  -0.722   0.172  0.00  0.00    +0.141 A 
ATOM     10  C   UNL     1      -2.494  -0.001  -0.066  0.00  0.00    +0.049 A 
ATOM     11  C   UNL     1      -3.560  -0.598  -0.714  0.00  0.00    +0.024 A 
ATOM     12  C   UNL     1      -3.474  -1.917  -1.124  0.00  0.00    +0.043 A 
ATOM     13  C   UNL     1      -2.321  -2.643  -0.889  0.00  0.00    +0.047 A 
ATOM     14  C   UNL     1      -1.245  -2.048  -0.246  0.00  0.00    +0.076 A 
ATOM     15 CL   UNL     1      -4.816  -2.660  -1.935  0.00  0.00    -0.083 Cl
BRANCH   9  17
ATOM     16  C   UNL     1      -0.450   1.226   1.209  0.00  0.00    +0.277 C 
ATOM     17  O   UNL     1      -0.286  -0.136   0.809  0.00  0.00    -0.493 OA
ENDBRANCH   9  17
ENDBRANCH   1  14
BRANCH   3  18
ATOM     18  N   UNL     1       2.302  -4.291   0.180  0.00  0.00    -0.353 N 
ATOM     19  H   UNL     1       2.364  -3.325   0.113  0.00  0.00    +0.143 HD
ATOM     20  H   UNL     1       3.109  -4.825   0.247  0.00  0.00    +0.143 HD
ENDBRANCH   3  18
BRANCH   4  21
ATOM     21  N   UNL     1       2.070  -7.098   0.374  0.00  0.00    -0.247 N 
ATOM     22  H   UNL     1       2.949  -6.688   0.376  0.00  0.00    +0.172 HD
BRANCH  21  23
ATOM     23  N   UNL     1       1.946  -8.490   0.470  0.00  0.00    -0.232 N 
ATOM     24  C   UNL     1       3.048  -9.260   0.565  0.00  0.00    +0.267 C 
ATOM     25  O   UNL     1       4.147  -8.748   0.566  0.00  0.00    -0.271 OA
ATOM     26  H   UNL     1       1.067  -8.900   0.469  0.00  0.00    +0.173 HD
BRANCH  24  27
ATOM     27  C   UNL     1       2.914 -10.757   0.668  0.00  0.00    +0.326 C 
BRANCH  27  28
ATOM     28  O   UNL     1       4.213 -11.347   0.756  0.00  0.00    -0.481 OA
BRANCH  28  29
ATOM     29  C   UNL     1       4.271 -12.701   0.855  0.00  0.00    +0.140 A 
ATOM     30  C   UNL     1       3.102 -13.447   0.862  0.00  0.00    +0.048 A 
ATOM     31  C   UNL     1       3.163 -14.824   0.964  0.00  0.00    +0.023 A 
ATOM     32  C   UNL     1       4.388 -15.459   1.058  0.00  0.00    +0.043 A 
ATOM     33  C   UNL     1       5.556 -14.717   1.052  0.00  0.00    +0.043 A 
ATOM     34  C   UNL     1       5.500 -13.340   0.945  0.00  0.00    +0.084 A 
ATOM     35 CL   UNL     1       6.966 -12.409   0.929  0.00  0.00    -0.080 Cl
ATOM     36 CL   UNL     1       4.461 -17.189   1.186  0.00  0.00    -0.083 Cl
ENDBRANCH  28  29
ENDBRANCH  27  28
ENDBRANCH  24  27
ENDBRANCH  21  23
ENDBRANCH   4  21
TORSDOF 8
