REMARK  Name = ZINC03025180
REMARK  8 active torsions:
REMARK  status: ('A' for Active; 'I' for Inactive)
REMARK    1  A    between atoms: C_1  and  C_2
REMARK    2  A    between atoms: C_5  and  O_34
REMARK    3  A    between atoms: C_6  and  N_8
REMARK    4  A    between atoms: C_9  and  C_11
REMARK    5  A    between atoms: C_13  and  S_18
REMARK    6  A    between atoms: S_18  and  N_21
REMARK    7  A    between atoms: N_24  and  C_27
REMARK    8  A    between atoms: O_34  and  C_35
REMARK                            x       y       z     vdW  Elec       q    Type
REMARK                         _______ _______ _______ _____ _____    ______ ____
ROOT
ATOM      1  C   UNL     1       1.153   3.181   0.024  0.00  0.00    +0.074 A 
ATOM      2  C   UNL     1      -0.071   3.852   0.047  0.00  0.00    +0.044 A 
ATOM      3  C   UNL     1      -1.248   3.134   0.065  0.00  0.00    +0.106 A 
ATOM      4  C   UNL     1      -1.220   1.750   0.056  0.00  0.00    +0.031 A 
ATOM      5  C   UNL     1      -0.013   1.076   0.039  0.00  0.00    +0.041 A 
ATOM      6  C   UNL     1       1.176   1.783   0.020  0.00  0.00    +0.136 A 
ATOM      7  F   UNL     1       2.355   1.124  -0.002  0.00  0.00    -0.205 F 
ENDROOT
BRANCH   1   9
ATOM      8  N   UNL     1       2.392   5.291   0.008  0.00  0.00    -0.278 N 
ATOM      9  C   UNL     1       2.417   3.943   0.004  0.00  0.00    +0.251 C 
ATOM     10  O   UNL     1       3.482   3.356  -0.015  0.00  0.00    -0.270 OA
ATOM     11  H   UNL     1       1.545   5.760  -0.058  0.00  0.00    +0.155 HD
BRANCH   8  17
ATOM     12  C   UNL     1       7.092   5.523   1.431  0.00  0.00    +0.044 C 
ATOM     13  C   UNL     1       5.881   6.152   0.791  0.00  0.00    -0.048 A 
ATOM     14  C   UNL     1       5.952   7.444   0.304  0.00  0.00    +0.007 A 
ATOM     15  C   UNL     1       4.844   8.026  -0.283  0.00  0.00    +0.048 A 
ATOM     16  C   UNL     1       3.659   7.316  -0.384  0.00  0.00    +0.141 A 
ATOM     17  C   UNL     1       3.587   6.014   0.107  0.00  0.00    +0.076 A 
ATOM     18  C   UNL     1       4.702   5.438   0.699  0.00  0.00    +0.030 A 
BRANCH  16  19
ATOM     19  O   UNL     1       2.568   7.888  -0.960  0.00  0.00    -0.493 OA
ATOM     20  C   UNL     1       2.715   9.225  -1.441  0.00  0.00    +0.277 C 
ENDBRANCH  16  19
ENDBRANCH   8  17
ENDBRANCH   1   9
BRANCH   3  21
ATOM     21  S   UNL     1      -2.793   3.981   0.094  0.00  0.00    +0.061 S 
ATOM     22  O   UNL     1      -3.738   3.083   0.659  0.00  0.00    -0.153 OA
ATOM     23  O   UNL     1      -2.541   5.267   0.644  0.00  0.00    -0.153 OA
BRANCH  21  24
ATOM     24  N   UNL     1      -3.249   4.220  -1.480  0.00  0.00    -0.174 NA
ATOM     25  C   UNL     1      -2.856   5.439  -2.203  0.00  0.00    +0.128 C 
ATOM     26  C   UNL     1      -2.217   5.023  -3.537  0.00  0.00    +0.122 C 
ATOM     27  N   UNL     1      -3.141   4.141  -4.263  0.00  0.00    -0.325 N 
ATOM     28  C   UNL     1      -3.382   2.896  -3.522  0.00  0.00    +0.122 C 
ATOM     29  C   UNL     1      -4.064   3.222  -2.189  0.00  0.00    +0.128 C 
BRANCH  27  30
ATOM     30  C   UNL     1      -2.670   3.874  -5.552  0.00  0.00    +0.065 A 
ATOM     31  C   UNL     1      -3.440   3.127  -6.433  0.00  0.00    +0.026 A 
ATOM     32  C   UNL     1      -2.974   2.868  -7.708  0.00  0.00    +0.002 A 
ATOM     33  C   UNL     1      -1.738   3.344  -8.104  0.00  0.00    +0.003 A 
ATOM     34  C   UNL     1      -0.965   4.085  -7.229  0.00  0.00    +0.040 A 
ATOM     35  C   UNL     1      -1.427   4.352  -5.954  0.00  0.00    +0.144 A 
ATOM     36  F   UNL     1      -0.672   5.076  -5.098  0.00  0.00    -0.204 F 
ENDBRANCH  27  30
ENDBRANCH  21  24
ENDBRANCH   3  21
TORSDOF 6
