REMARK  Name = ZINC09359020
REMARK  3 active torsions:
REMARK  status: ('A' for Active; 'I' for Inactive)
REMARK    1  A    between atoms: C_15  and  C_17
REMARK    2  A    between atoms: C_17  and  C_19
REMARK    3  A    between atoms: N_26  and  C_29
REMARK                            x       y       z     vdW  Elec       q    Type
REMARK                         _______ _______ _______ _____ _____    ______ ____
ROOT
ATOM      1  C   UNL     1      10.019   0.499   2.801  0.00  0.00    +0.001 A 
ATOM      2  C   UNL     1       8.911   1.200   2.358  0.00  0.00    +0.000 A 
ATOM      3  C   UNL     1       7.996   0.598   1.514  0.00  0.00    +0.006 A 
ATOM      4  C   UNL     1       8.179  -0.706   1.104  0.00  0.00    -0.021 A 
ATOM      5  C   UNL     1       9.291  -1.427   1.560  0.00  0.00    -0.019 A 
ATOM      6  C   UNL     1      10.213  -0.808   2.408  0.00  0.00    +0.008 A 
ATOM      7  C   UNL     1       9.493  -2.831   1.154  0.00  0.00    +0.022 C 
ATOM      8  C   UNL     1       8.505  -3.503   0.537  0.00  0.00    +0.054 C 
ATOM      9  C   UNL     1       7.221  -1.364   0.149  0.00  0.00    +0.100 C 
ATOM     10  C   UNL     1       5.802  -1.064   0.299  0.00  0.00    +0.113 C 
ATOM     11  C   UNL     1       5.151  -2.300  -0.456  0.00  0.00    +0.116 C 
ATOM     12  C   UNL     1       5.945  -3.395   0.271  0.00  0.00    +0.141 C 
ATOM     13  C   UNL     1       3.738  -2.011  -0.025  0.00  0.00    +0.232 C 
ATOM     14  O   UNL     1       2.877  -2.816   0.262  0.00  0.00    -0.274 OA
ATOM     15  N   UNL     1       3.630  -0.649  -0.025  0.00  0.00    -0.210 N 
ATOM     16  C   UNL     1       4.850  -0.021  -0.032  0.00  0.00    +0.232 C 
ATOM     17  O   UNL     1       5.080   1.146  -0.263  0.00  0.00    -0.274 OA
ATOM     18  N   UNL     1       7.288  -2.789  -0.040  0.00  0.00    -0.384 NA
ATOM     19  H   UNL     1       7.400  -2.905  -1.054  0.00  0.00    +0.127 HD
ENDROOT
BRANCH  15  20
ATOM     20  C   UNL     1       2.404   0.033  -0.015  0.00  0.00    +0.048 A 
ATOM     21  C   UNL     1       2.382   1.421  -0.010  0.00  0.00    +0.028 A 
ATOM     22  C   UNL     1       1.176   2.094   0.002  0.00  0.00    +0.051 A 
ATOM     23  C   UNL     1      -0.017   1.386   0.010  0.00  0.00    +0.162 A 
ATOM     24  C   UNL     1       0.002  -0.004   0.002  0.00  0.00    +0.164 A 
ATOM     25  C   UNL     1       1.213  -0.678  -0.009  0.00  0.00    +0.073 A 
ATOM     26  O   UNL     1      -1.158  -0.716   0.002  0.00  0.00    -0.485 OA
ATOM     27  C   UNL     1      -2.344  -0.016   0.393  0.00  0.00    +0.270 C 
ATOM     28  C   UNL     1      -2.369   1.332  -0.341  0.00  0.00    +0.270 C 
ATOM     29  O   UNL     1      -1.196   2.066   0.030  0.00  0.00    -0.485 OA
ENDBRANCH  15  20
BRANCH  12  30
ATOM     30  C   UNL     1       5.404  -3.611   1.661  0.00  0.00    +0.189 C 
ATOM     31  O   UNL     1       5.963  -3.111   2.615  0.00  0.00    -0.290 OA
BRANCH  30  32
ATOM     32  C   UNL     1       4.245  -4.395   1.853  0.00  0.00    +0.056 A 
ATOM     33  C   UNL     1       3.589  -4.715   3.037  0.00  0.00    +0.019 A 
ATOM     34  C   UNL     1       2.473  -5.503   2.937  0.00  0.00    +0.008 A 
ATOM     35  C   UNL     1       2.066  -5.928   1.710  0.00  0.00    +0.046 A 
ATOM     36  S   UNL     1       3.236  -5.228   0.639  0.00  0.00    -0.094 S 
ENDBRANCH  30  32
ENDBRANCH  12  30
TORSDOF 3
