REMARK  Name = ZINC44737398
REMARK  7 active torsions:
REMARK  status: ('A' for Active; 'I' for Inactive)
REMARK    1  A    between atoms: C_1  and  C_2
REMARK    2  A    between atoms: C_9  and  C_11
REMARK    3  A    between atoms: C_11  and  C_13
REMARK    4  A    between atoms: C_11  and  N_14
REMARK    5  A    between atoms: C_15  and  C_17
REMARK    6  A    between atoms: C_28  and  C_30
REMARK    7  A    between atoms: C_35  and  C_36
REMARK                            x       y       z     vdW  Elec       q    Type
REMARK                         _______ _______ _______ _____ _____    ______ ____
ROOT
ATOM      1  C   UNL     1       1.865  -8.505   1.587  0.00  0.00    +0.100 C 
ATOM      2  C   UNL     1       2.821  -7.947   0.509  0.00  0.00    +0.121 C 
ATOM      3  N   UNL     1       4.178  -8.270   1.008  0.00  0.00    -0.296 N 
ATOM      4  C   UNL     1       4.043  -9.625   1.594  0.00  0.00    +0.115 C 
ATOM      5  C   UNL     1       2.670  -9.608   2.295  0.00  0.00    -0.004 C 
ATOM      6  C   UNL     1       2.838  -9.273   3.774  0.00  0.00    -0.010 C 
ATOM      7  C   UNL     1       3.591 -10.412   4.468  0.00  0.00    -0.082 C 
ATOM      8  N   UNL     1       2.842 -11.664   4.311  0.00  0.00    +0.379 N 
ATOM      9  C   UNL     1       2.764 -12.027   2.891  0.00  0.00    -0.082 C 
ATOM     10  C   UNL     1       1.976 -10.957   2.130  0.00  0.00    -0.010 C 
ATOM     11  C   UNL     1       5.286  -7.505   0.943  0.00  0.00    +0.247 C 
ATOM     12  O   UNL     1       6.355  -7.951   1.313  0.00  0.00    -0.270 OA
ATOM     13  H   UNL     1       3.308 -12.400   4.820  0.00  0.00    -0.086 HD
ATOM     14  H   UNL     1       1.909 -11.544   4.677  0.00  0.00    -0.086 HD
ENDROOT
BRANCH  11  15
ATOM     15  C   UNL     1       5.201  -6.124   0.423  0.00  0.00    +0.043 A 
ATOM     16  C   UNL     1       4.325  -5.821  -0.621  0.00  0.00    +0.051 A 
ATOM     17  C   UNL     1       4.251  -4.527  -1.102  0.00  0.00    +0.124 A 
ATOM     18  C   UNL     1       5.043  -3.534  -0.549  0.00  0.00    +0.038 A 
ATOM     19  C   UNL     1       5.913  -3.830   0.485  0.00  0.00    +0.007 A 
ATOM     20  C   UNL     1       5.992  -5.116   0.977  0.00  0.00    -0.038 A 
ATOM     21  C   UNL     1       6.936  -5.434   2.108  0.00  0.00    +0.044 C 
ATOM     22  F   UNL     1       3.404  -4.231  -2.112  0.00  0.00    -0.205 F 
ENDBRANCH  11  15
BRANCH   1  24
ATOM     23  N   UNL     1       0.295  -7.464   3.190  0.00  0.00    -0.305 N 
ATOM     24  C   UNL     1       1.488  -7.422   2.565  0.00  0.00    +0.219 C 
ATOM     25  O   UNL     1       2.258  -6.511   2.789  0.00  0.00    -0.275 OA
ATOM     26  H   UNL     1      -0.321  -8.192   3.011  0.00  0.00    +0.149 HD
BRANCH  23  27
ATOM     27  C   UNL     1      -0.072  -6.411   4.140  0.00  0.00    +0.136 C 
ATOM     28  C   UNL     1       0.498  -6.748   5.520  0.00  0.00    +0.036 C 
BRANCH  27  37
ATOM     29  C   UNL     1      -7.263  -4.671   4.950  0.00  0.00    +0.044 C 
ATOM     30  C   UNL     1      -5.994  -5.434   4.666  0.00  0.00    -0.048 A 
ATOM     31  C   UNL     1      -6.063  -6.759   4.259  0.00  0.00    +0.005 A 
ATOM     32  C   UNL     1      -4.925  -7.468   3.998  0.00  0.00    +0.030 A 
ATOM     33  C   UNL     1      -3.676  -6.857   4.139  0.00  0.00    +0.089 A 
ATOM     34  C   UNL     1      -3.606  -5.515   4.551  0.00  0.00    +0.067 A 
ATOM     35  C   UNL     1      -4.774  -4.809   4.808  0.00  0.00    +0.031 A 
ATOM     36  N   UNL     1      -2.263  -5.201   4.597  0.00  0.00    -0.340 N 
ATOM     37  C   UNL     1      -1.574  -6.314   4.227  0.00  0.00    +0.128 A 
ATOM     38  N   UNL     1      -2.400  -7.283   3.959  0.00  0.00    -0.231 NA
ATOM     39  H   UNL     1      -1.881  -4.345   4.847  0.00  0.00    +0.167 HD
ENDBRANCH  27  37
ENDBRANCH  23  27
ENDBRANCH   1  24
TORSDOF 4
