REMARK  Name = ZINC39197639
REMARK  7 active torsions:
REMARK  status: ('A' for Active; 'I' for Inactive)
REMARK    1  A    between atoms: C_3  and  N_10
REMARK    2  A    between atoms: C_5  and  N_7
REMARK    3  A    between atoms: C_11  and  C_13
REMARK    4  A    between atoms: C_13  and  N_14
REMARK    5  A    between atoms: C_17  and  C_20
REMARK    6  A    between atoms: C_17  and  O_31
REMARK    7  A    between atoms: C_24  and  C_26
REMARK                            x       y       z     vdW  Elec       q    Type
REMARK                         _______ _______ _______ _____ _____    ______ ____
ROOT
ATOM      1  N   UNL     1       4.579   5.668  -0.326  0.00  0.00    +0.386 N 
ATOM      2  C   UNL     1       3.969   6.122   0.930  0.00  0.00    -0.075 C 
ATOM      3  C   UNL     1       3.596   7.601   0.815  0.00  0.00    +0.021 C 
ATOM      4  C   UNL     1       4.860   8.420   0.534  0.00  0.00    +0.088 C 
ATOM      5  C   UNL     1       5.528   7.889  -0.737  0.00  0.00    +0.021 C 
ATOM      6  C   UNL     1       5.829   6.399  -0.565  0.00  0.00    -0.075 C 
ATOM      7  H   UNL     1       3.940   5.838  -1.088  0.00  0.00    -0.081 HD
ENDROOT
BRANCH   4   8
ATOM      8  C   UNL     1       4.490   9.868   0.342  0.00  0.00    -0.016 A 
ATOM      9  C   UNL     1       3.251  10.202  -0.173  0.00  0.00    +0.008 A 
ATOM     10  C   UNL     1       2.911  11.530  -0.350  0.00  0.00    +0.021 A 
ATOM     11  C   UNL     1       3.811  12.525  -0.010  0.00  0.00    +0.053 A 
ATOM     12  C   UNL     1       5.050  12.190   0.505  0.00  0.00    +0.073 A 
ATOM     13  C   UNL     1       5.387  10.862   0.687  0.00  0.00    +0.020 A 
ATOM     14 CL   UNL     1       3.385  14.193  -0.233  0.00  0.00    -0.083 Cl
BRANCH  12  15
ATOM     15  C   UNL     1       6.030  13.273   0.875  0.00  0.00    +0.419 C 
ATOM     16  F   UNL     1       7.202  12.692   1.371  0.00  0.00    -0.166 F 
ATOM     17  F   UNL     1       6.331  14.037  -0.258  0.00  0.00    -0.166 F 
ATOM     18  F   UNL     1       5.467  14.097   1.856  0.00  0.00    -0.166 F 
ENDBRANCH  12  15
ENDBRANCH   4   8
BRANCH   4  19
ATOM     19  O   UNL     1       5.763   8.298   1.635  0.00  0.00    -0.384 OA
ATOM     20  H   UNL     1       6.586   8.792   1.525  0.00  0.00    +0.211 HD
ENDBRANCH   4  19
BRANCH   1  21
ATOM     21  C   UNL     1       4.863   4.229  -0.238  0.00  0.00    +0.019 C 
BRANCH  21  23
ATOM     22  N   UNL     1       3.584   2.123  -0.021  0.00  0.00    -0.287 N 
ATOM     23  C   UNL     1       3.569   3.468  -0.116  0.00  0.00    +0.201 C 
ATOM     24  O   UNL     1       2.513   4.065  -0.103  0.00  0.00    -0.278 OA
ATOM     25  H   UNL     1       4.429   1.652   0.045  0.00  0.00    +0.155 HD
BRANCH  22  28
ATOM     26  C   UNL     1       0.112   1.159  -0.752  0.00  0.00    +0.004 A 
ATOM     27  C   UNL     1       1.298   1.867  -0.756  0.00  0.00    +0.023 A 
ATOM     28  C   UNL     1       2.381   1.409  -0.019  0.00  0.00    +0.035 A 
ATOM     29  C   UNL     1       2.269   0.238   0.720  0.00  0.00    +0.056 A 
ATOM     30  C   UNL     1       1.081  -0.466   0.720  0.00  0.00    +0.128 A 
ATOM     31  C   UNL     1       0.003  -0.006  -0.015  0.00  0.00    +0.033 A 
BRANCH  30  32
ATOM     32  N   UNL     1       0.960  -1.713   1.507  0.00  0.00    +0.056 N 
ATOM     33  O   UNL     1       1.901  -2.116   2.150  0.00  0.00    -0.126 OA
ATOM     34  O   UNL     1      -0.080  -2.330   1.508  0.00  0.00    -0.126 OA
ENDBRANCH  30  32
ENDBRANCH  22  28
ENDBRANCH  21  23
ENDBRANCH   1  21
TORSDOF 7
