REMARK  Name = ZINC36821704
REMARK  7 active torsions:
REMARK  status: ('A' for Active; 'I' for Inactive)
REMARK    1  A    between atoms: C_6  and  O_7
REMARK    2  A    between atoms: O_7  and  C_8
REMARK    3  A    between atoms: C_8  and  C_9
REMARK    4  A    between atoms: C_12  and  S_15
REMARK    5  A    between atoms: S_15  and  C_16
REMARK    6  A    between atoms: C_16  and  C_17
REMARK    7  A    between atoms: N_19  and  N_20
REMARK                            x       y       z     vdW  Elec       q    Type
REMARK                         _______ _______ _______ _____ _____    ______ ____
ROOT
ATOM      1  C   UNL     1      -4.953  -3.763  -3.442  0.00  0.00    +0.174 C 
ENDROOT
BRANCH   1   2
ATOM      2  C   UNL     1      -5.965  -4.188  -4.475  0.00  0.00    +0.240 C 
ATOM      3  O   UNL     1      -7.030  -4.650  -4.125  0.00  0.00    -0.273 OA
ATOM      4  N   UNL     1      -5.686  -4.055  -5.787  0.00  0.00    -0.223 N 
ATOM      5  H   UNL     1      -4.834  -3.686  -6.066  0.00  0.00    +0.174 HD
BRANCH   4   6
ATOM      6  N   UNL     1      -6.627  -4.450  -6.747  0.00  0.00    -0.137 N 
ATOM      7  C   UNL     1      -6.532  -5.577  -7.482  0.00  0.00    +0.263 C 
ATOM      8  O   UNL     1      -5.651  -6.409  -7.441  0.00  0.00    -0.271 OA
ATOM      9  C   UNL     1      -7.756  -5.585  -8.369  0.00  0.00    +0.114 C 
ATOM     10  C   UNL     1      -8.618  -6.808  -8.076  0.00  0.00    +0.035 C 
ATOM     11  C   UNL     1      -9.866  -6.780  -8.962  0.00  0.00    +0.003 C 
ATOM     12  C   UNL     1      -9.446  -6.772 -10.433  0.00  0.00    +0.000 C 
ATOM     13  C   UNL     1      -8.602  -5.527 -10.717  0.00  0.00    +0.003 C 
ATOM     14  C   UNL     1      -7.349  -5.550  -9.838  0.00  0.00    +0.035 C 
ATOM     15  N   UNL     1      -8.469  -4.354  -8.003  0.00  0.00    -0.284 N 
ATOM     16  C   UNL     1      -7.734  -3.760  -7.043  0.00  0.00    +0.326 C 
ATOM     17  O   UNL     1      -8.041  -2.712  -6.509  0.00  0.00    -0.251 OA
ATOM     18  H   UNL     1      -9.305  -4.034  -8.377  0.00  0.00    +0.151 HD
ENDBRANCH   4   6
ENDBRANCH   1   2
BRANCH   1  19
ATOM     19  S   UNL     1      -5.619  -4.066  -1.782  0.00  0.00    -0.077 S 
BRANCH  19  23
ATOM     20  C   UNL     1      -2.454  -2.722   0.012  0.00  0.00    +0.189 A 
ATOM     21  N   UNL     1      -3.175  -3.022  -1.069  0.00  0.00    -0.202 NA
ATOM     22  H   UNL     1      -5.093  -3.870   1.205  0.00  0.00    +0.191 HD
ATOM     23  C   UNL     1      -4.335  -3.525  -0.703  0.00  0.00    +0.185 A 
ATOM     24  N   UNL     1      -4.367  -3.552   0.647  0.00  0.00    -0.253 N 
ATOM     25  N   UNL     1      -3.137  -3.033   1.081  0.00  0.00    -0.153 NA
BRANCH  20  26
ATOM     26  C   UNL     1      -1.070  -2.126   0.001  0.00  0.00    +0.306 C 
BRANCH  26  27
ATOM     27  O   UNL     1      -1.165  -0.701   0.010  0.00  0.00    -0.484 OA
BRANCH  27  33
ATOM     28  C   UNL     1      -0.017   1.383   0.010  0.00  0.00    +0.047 A 
ATOM     29  C   UNL     1       1.171   2.089   0.002  0.00  0.00    +0.023 A 
ATOM     30  C   UNL     1       2.378   1.414  -0.013  0.00  0.00    +0.041 A 
ATOM     31  C   UNL     1       2.399   0.030  -0.021  0.00  0.00    +0.023 A 
ATOM     32  C   UNL     1       1.214  -0.679  -0.014  0.00  0.00    +0.047 A 
ATOM     33  C   UNL     1       0.002  -0.004   0.002  0.00  0.00    +0.121 A 
ATOM     34 CL   UNL     1       3.869   2.303  -0.024  0.00  0.00    -0.084 Cl
ENDBRANCH  27  33
ENDBRANCH  26  27
ENDBRANCH  20  26
ENDBRANCH  19  23
ENDBRANCH   1  19
TORSDOF 7
