REMARK  Name = ZINC20085994
REMARK  9 active torsions:
REMARK  status: ('A' for Active; 'I' for Inactive)
REMARK    1  A    between atoms: C_1  and  C_2
REMARK    2  A    between atoms: N_4  and  C_5
REMARK    3  A    between atoms: C_8  and  S_11
REMARK    4  A    between atoms: S_11  and  N_14
REMARK    5  A    between atoms: C_15  and  C_32
REMARK    6  A    between atoms: C_17  and  C_30
REMARK    7  A    between atoms: C_18  and  N_29
REMARK    8  A    between atoms: C_19  and  C_21
REMARK    9  A    between atoms: C_21  and  C_23
REMARK                            x       y       z     vdW  Elec       q    Type
REMARK                         _______ _______ _______ _____ _____    ______ ____
ROOT
ATOM      1  N   UNL     1       4.669   1.099  -0.559  0.00  0.00    -0.148 NA
ATOM      2  C   UNL     1       5.539   1.191   0.620  0.00  0.00    +0.153 C 
ATOM      3  C   UNL     1       4.827   2.040   1.640  0.00  0.00    +0.071 C 
ATOM      4  C   UNL     1       3.639   2.435   1.146  0.00  0.00    +0.044 C 
ATOM      5  C   UNL     1       3.465   1.878  -0.242  0.00  0.00    +0.196 C 
ENDROOT
BRANCH   2   6
ATOM      6  C   UNL     1       6.848   1.836   0.241  0.00  0.00    -0.023 A 
ATOM      7  C   UNL     1       6.864   2.901  -0.640  0.00  0.00    +0.007 A 
ATOM      8  C   UNL     1       8.063   3.496  -0.983  0.00  0.00    +0.020 A 
ATOM      9  C   UNL     1       9.248   3.019  -0.453  0.00  0.00    +0.041 A 
ATOM     10  C   UNL     1       9.232   1.950   0.425  0.00  0.00    +0.020 A 
ATOM     11  C   UNL     1       8.032   1.359   0.771  0.00  0.00    +0.007 A 
ATOM     12 CL   UNL     1      10.756   3.762  -0.889  0.00  0.00    -0.084 Cl
ENDBRANCH   2   6
BRANCH   1  13
ATOM     13  S   UNL     1       4.982   0.280  -1.964  0.00  0.00    +0.063 S 
ATOM     14  O   UNL     1       5.922  -0.736  -1.642  0.00  0.00    -0.153 OA
ATOM     15  O   UNL     1       3.723  -0.007  -2.557  0.00  0.00    -0.153 OA
BRANCH  13  19
ATOM     16  C   UNL     1       7.096   3.160  -4.749  0.00  0.00    +0.033 A 
ATOM     17  C   UNL     1       7.832   2.366  -3.880  0.00  0.00    +0.025 A 
ATOM     18  C   UNL     1       7.184   1.489  -3.032  0.00  0.00    +0.030 A 
ATOM     19  C   UNL     1       5.804   1.401  -3.048  0.00  0.00    +0.106 A 
ATOM     20  C   UNL     1       5.069   2.186  -3.916  0.00  0.00    +0.030 A 
ATOM     21  C   UNL     1       5.710   3.069  -4.763  0.00  0.00    +0.025 A 
BRANCH  16  25
ATOM     22  C   UNL     1       9.714   4.739  -6.944  0.00  0.00    +0.109 C 
ATOM     23  C   UNL     1       8.958   3.734  -6.113  0.00  0.00    +0.214 C 
ATOM     24  O   UNL     1       9.439   2.641  -5.898  0.00  0.00    -0.276 OA
ATOM     25  N   UNL     1       7.748   4.049  -5.610  0.00  0.00    -0.286 N 
ATOM     26  H   UNL     1       7.274   5.005  -5.876  0.00  0.00    +0.155 HD
ENDBRANCH  16  25
ENDBRANCH  13  19
ENDBRANCH   1  13
BRANCH   4  27
ATOM     27  N   UNL     1       2.728   3.221   1.803  0.00  0.00    -0.359 N 
ATOM     28  H   UNL     1       1.781   3.491   1.313  0.00  0.00    +0.142 HD
ATOM     29  H   UNL     1       2.944   3.582   2.819  0.00  0.00    +0.142 HD
ENDBRANCH   4  27
BRANCH   5  30
ATOM     30  C   UNL     1       2.252   0.986  -0.288  0.00  0.00    +0.187 C 
ATOM     31  O   UNL     1       2.379  -0.217  -0.200  0.00  0.00    -0.290 OA
BRANCH  30  32
ATOM     32  C   UNL     1       0.911   1.574  -0.440  0.00  0.00    +0.019 A 
ATOM     33  C   UNL     1      -0.218   0.750  -0.482  0.00  0.00    +0.011 A 
ATOM     34  C   UNL     1      -1.470   1.308  -0.629  0.00  0.00    +0.001 A 
ATOM     35  C   UNL     1      -1.612   2.682  -0.723  0.00  0.00    +0.000 A 
ATOM     36  C   UNL     1      -0.499   3.504  -0.682  0.00  0.00    +0.001 A 
ATOM     37  C   UNL     1       0.760   2.961  -0.541  0.00  0.00    +0.011 A 
ENDBRANCH  30  32
ENDBRANCH   5  30
BRANCH   3  38
ATOM     38  C   UNL     1       5.336   2.377   2.936  0.00  0.00    +0.098 C 
ATOM     39  N   UNL     1       5.739   2.644   3.963  0.00  0.00    -0.191 NA
ENDBRANCH   3  38
TORSDOF 8
