REMARK  Name = ZINC15954311
REMARK  14 active torsions:
REMARK  status: ('A' for Active; 'I' for Inactive)
REMARK    1  A    between atoms: CD1_1  and  CG1_2
REMARK    2  A    between atoms: CG1_2  and  CB_3
REMARK    3  A    between atoms: CB_3  and  CG2_5
REMARK    4  A    between atoms: CB_3  and  CA_6
REMARK    5  A    between atoms: CA_6  and  C_8
REMARK    6  A    between atoms: CA_6  and  N_10
REMARK    7  A    between atoms: C_11  and  C_13
REMARK    8  A    between atoms: C_13  and  N_14
REMARK    9  A    between atoms: C_15  and  C_17
REMARK   10  A    between atoms: C_17  and  C_18
REMARK   11  A    between atoms: C_18  and  C_19
REMARK   12  A    between atoms: C_20  and  C_35
REMARK   13  A    between atoms: C_24  and  C_34
REMARK   14  A    between atoms: C_25  and  C_33
REMARK                            x       y       z     vdW  Elec       q    Type
REMARK                         _______ _______ _______ _____ _____    ______ ____
ROOT
ATOM      1  C   UNK A   0       5.971   2.450  -0.042  0.00  0.00    +0.100 C 
ENDROOT
BRANCH   1   3
ATOM      2  N   UNK A   0       3.562   1.887  -0.022  0.00  0.00    -0.307 N 
ATOM      3  C   UNK A   0       4.839   1.455  -0.036  0.00  0.00    +0.214 C 
ATOM      4  O   UNK A   0       5.077   0.266  -0.045  0.00  0.00    -0.276 OA
ATOM      5  H   UNK A   0       3.372   2.838  -0.015  0.00  0.00    +0.149 HD
BRANCH   2   6
ATOM      6  C   UNK A   0       2.462   0.920  -0.017  0.00  0.00    +0.200 C 
BRANCH   6   8
ATOM      7  N   ILE A   1      -0.011   0.966   0.007  0.00  0.00    -0.301 N 
ATOM      8  C   UNK A   0       1.147   1.655   0.000  0.00  0.00    +0.231 C 
ATOM      9  O   UNK A   0       1.130   2.868   0.007  0.00  0.00    -0.274 OA
ATOM     10  H   ILE A   1       0.002  -0.004   0.002  0.00  0.00    +0.150 HD
BRANCH   7  11
ATOM     11  CA  ILE A   1      -1.290   1.681   0.017  0.00  0.00    +0.189 C 
BRANCH  11  12
ATOM     12  C   ILE A   1      -1.661   2.027   1.436  0.00  0.00    +0.376 C 
ATOM     13  O   ILE A   1      -0.932   1.708   2.346  0.00  0.00    -0.244 OA
ATOM     14  OXT ILE A   1      -2.801   2.688   1.690  0.00  0.00    -0.244 OA
ENDBRANCH  11  12
BRANCH  11  15
ATOM     15  CB  ILE A   1      -2.376   0.792  -0.592  0.00  0.00    +0.017 C 
ATOM     16  CG2 ILE A   1      -2.591  -0.433   0.298  0.00  0.00    +0.010 C 
BRANCH  15  18
ATOM     17  CD1 ILE A   1      -4.733   0.737  -1.418  0.00  0.00    +0.004 C 
ATOM     18  CG1 ILE A   1      -3.682   1.582  -0.696  0.00  0.00    +0.002 C 
ENDBRANCH  15  18
ENDBRANCH  11  15
ENDBRANCH   7  11
ENDBRANCH   6   8
ENDBRANCH   2   6
ENDBRANCH   1   3
BRANCH   1  19
ATOM     19  C   UNK A   0       7.306   1.703  -0.059  0.00  0.00    +0.052 C 
BRANCH  19  20
ATOM     20  C   UNK A   0       8.438   2.698  -0.064  0.00  0.00    +0.041 A 
ATOM     21  C   UNK A   0       8.961   3.141   1.108  0.00  0.00    -0.030 A 
ATOM     22  C   UNK A   0      10.061   4.108   1.054  0.00  0.00    +0.022 A 
ATOM     23  C   UNK A   0      10.637   4.599   2.226  0.00  0.00    +0.023 A 
ATOM     24  C   UNK A   0      11.676   5.515   2.140  0.00  0.00    +0.024 A 
ATOM     25  C   UNK A   0      12.497   6.225   3.131  0.00  0.00    -0.002 A 
ATOM     26  C   UNK A   0      13.350   6.985   2.433  0.00  0.00    +0.106 A 
ATOM     27  O   UNK A   0      13.146   6.822   1.113  0.00  0.00    -0.460 OA
ATOM     28  C   UNK A   0      12.147   5.946   0.883  0.00  0.00    +0.139 A 
ATOM     29  C   UNK A   0      11.569   5.453  -0.277  0.00  0.00    +0.093 A 
ATOM     30  C   UNK A   0      10.532   4.540  -0.203  0.00  0.00    +0.143 A 
ATOM     31  O   UNK A   0       9.965   4.057  -1.332  0.00  0.00    -0.422 OA
ATOM     32  C   UNK A   0       8.962   3.167  -1.288  0.00  0.00    +0.341 A 
ATOM     33  O   UNK A   0       8.487   2.757  -2.331  0.00  0.00    -0.245 OA
ATOM     34  C   UNK A   0      14.389   7.893   3.038  0.00  0.00    +0.086 C 
ATOM     35  C   UNK A   0      12.399   6.119   4.631  0.00  0.00    +0.048 C 
ATOM     36  C   UNK A   0       8.424   2.651   2.428  0.00  0.00    +0.045 C 
ENDBRANCH  19  20
ENDBRANCH   1  19
TORSDOF 9
