REMARK  Name = ZINC12661281
REMARK  6 active torsions:
REMARK  status: ('A' for Active; 'I' for Inactive)
REMARK    1  A    between atoms: C_1  and  C_2
REMARK    2  A    between atoms: C_15  and  O_33
REMARK    3  A    between atoms: C_18  and  C_31
REMARK    4  A    between atoms: C_23  and  C_25
REMARK    5  A    between atoms: C_25  and  C_30
REMARK    6  A    between atoms: C_31  and  O_32
REMARK                            x       y       z     vdW  Elec       q    Type
REMARK                         _______ _______ _______ _____ _____    ______ ____
ROOT
ATOM      1  C   UNL     1      -3.406   5.813   5.745  0.00  0.00    +0.012 C 
ATOM      2  C   UNL     1      -2.600   4.836   4.886  0.00  0.00    -0.023 C 
ATOM      3  C   UNL     1      -1.161   4.769   5.408  0.00  0.00    +0.012 C 
ATOM      4  C   UNL     1      -0.495   6.140   5.291  0.00  0.00    +0.065 C 
ATOM      5  C   UNL     1      -0.478   6.552   3.817  0.00  0.00    +0.170 C 
ATOM      6  C   UNL     1      -1.913   6.657   3.306  0.00  0.00    +0.069 C 
ATOM      7  C   UNL     1      -2.619   5.303   3.434  0.00  0.00    +0.000 C 
ATOM      8  C   UNL     1      -4.059   5.483   2.946  0.00  0.00    +0.004 C 
ATOM      9  C   UNL     1      -4.991   4.481   3.617  0.00  0.00    +0.004 C 
ATOM     10  C   UNL     1      -4.223   3.189   3.907  0.00  0.00    -0.001 C 
ATOM     11  C   UNL     1      -3.213   3.440   5.010  0.00  0.00    +0.027 C 
ATOM     12  C   UNL     1      -2.142   2.389   5.184  0.00  0.00    +0.119 C 
ATOM     13  C   UNL     1      -1.563   1.869   3.866  0.00  0.00    +0.041 C 
ATOM     14  C   UNL     1      -2.727   1.424   3.002  0.00  0.00    +0.007 C 
ATOM     15  C   UNL     1      -3.543   2.696   2.656  0.00  0.00    +0.001 C 
ATOM     16  C   UNL     1      -4.459   2.194   1.535  0.00  0.00    +0.005 C 
ATOM     17  C   UNL     1      -3.512   1.303   0.686  0.00  0.00    +0.010 C 
ATOM     18  C   UNL     1      -2.369   0.856   1.630  0.00  0.00    +0.057 C 
ATOM     19  O   UNL     1       0.181   7.821   3.680  0.00  0.00    -0.346 OA
ATOM     20  C   UNL     1       1.550   7.491   3.345  0.00  0.00    +0.191 C 
ATOM     21  C   UNL     1       1.364   6.240   2.450  0.00  0.00    +0.191 C 
ATOM     22  O   UNL     1       0.238   5.572   3.054  0.00  0.00    -0.346 OA
ENDROOT
BRANCH  18  23
ATOM     23  C   UNL     1      -1.033   1.429   1.152  0.00  0.00    +0.171 C 
ATOM     24  O   UNL     1      -0.011   1.125   2.111  0.00  0.00    -0.346 OA
ATOM     25  C   UNL     1       0.996   0.349   1.432  0.00  0.00    +0.191 C 
ATOM     26  C   UNL     1       0.764   0.700  -0.059  0.00  0.00    +0.191 C 
ATOM     27  O   UNL     1      -0.677   0.836  -0.108  0.00  0.00    -0.346 OA
ATOM     28  C   UNL     1      -1.152   2.946   0.991  0.00  0.00    +0.074 C 
ENDBRANCH  18  23
BRANCH  12  29
ATOM     29  O   UNL     1      -2.698   1.288   5.904  0.00  0.00    -0.391 OA
ATOM     30  H   UNL     1      -2.075   0.565   6.061  0.00  0.00    +0.210 HD
ENDBRANCH  12  29
BRANCH  14  31
ATOM     31  C   UNL     1      -3.607   0.430   3.763  0.00  0.00    +0.163 C 
BRANCH  31  32
ATOM     32  O   UNL     1      -2.850  -0.744   4.062  0.00  0.00    -0.394 OA
ATOM     33  H   UNL     1      -3.346  -1.419   4.545  0.00  0.00    +0.209 HD
ENDBRANCH  31  32
ENDBRANCH  14  31
TORSDOF 4
