REMARK  Name = ZINC09332942
REMARK  4 active torsions:
REMARK  status: ('A' for Active; 'I' for Inactive)
REMARK    1  A    between atoms: C_3  and  C_10
REMARK    2  A    between atoms: C_5  and  N_7
REMARK    3  A    between atoms: C_18  and  C_20
REMARK    4  A    between atoms: C_20  and  C_22
REMARK                            x       y       z     vdW  Elec       q    Type
REMARK                         _______ _______ _______ _____ _____    ______ ____
ROOT
ATOM      1  C   UNL     1       2.396   4.531   0.651  0.00  0.00    +0.016 C 
ATOM      2  C   UNL     1       2.166   4.327  -0.850  0.00  0.00    -0.047 C 
ATOM      3  C   UNL     1       2.392   5.636  -1.623  0.00  0.00    +0.052 C 
ATOM      4  S   UNL     1       0.759   5.870  -2.447  0.00  0.00    -0.181 S 
ATOM      5  C   UNL     1      -0.209   4.721  -1.374  0.00  0.00    -0.005 C 
ATOM      6  C   UNL     1       0.484   3.090   0.247  0.00  0.00    +0.052 C 
ATOM      7  C   UNL     1       1.145   3.939   1.339  0.00  0.00    +0.069 C 
ATOM      8  C   UNL     1      -1.006   3.021   0.430  0.00  0.00    -0.024 A 
ATOM      9  C   UNL     1      -2.000   3.973   0.468  0.00  0.00    +0.043 A 
ATOM     10  C   UNL     1      -3.318   3.591   0.656  0.00  0.00    +0.124 A 
ATOM     11  C   UNL     1      -3.632   2.250   0.806  0.00  0.00    +0.040 A 
ATOM     12  C   UNL     1      -2.637   1.295   0.769  0.00  0.00    +0.026 A 
ATOM     13  C   UNL     1      -1.310   1.671   0.574  0.00  0.00    +0.036 A 
ATOM     14  N   UNL     1      -0.145   0.903   0.506  0.00  0.00    -0.286 N 
ATOM     15  C   UNL     1       0.951   1.660   0.310  0.00  0.00    +0.212 C 
ATOM     16  O   UNL     1       2.094   1.267   0.205  0.00  0.00    -0.277 OA
ATOM     17  F   UNL     1      -4.295   4.524   0.694  0.00  0.00    -0.205 F 
ATOM     18  H   UNL     1      -0.128  -0.063   0.586  0.00  0.00    +0.155 HD
ATOM     19  N   UNL     1       0.844   3.704  -1.017  0.00  0.00    +0.401 N 
ATOM     20  H   UNL     1       0.891   2.992  -1.755  0.00  0.00    -0.078 HD
ENDROOT
BRANCH   1  23
ATOM     21  C   UNL     1       4.862   2.642   2.796  0.00  0.00    +0.002 A 
ATOM     22  C   UNL     1       3.729   3.321   2.390  0.00  0.00    +0.004 A 
ATOM     23  C   UNL     1       3.634   3.795   1.095  0.00  0.00    -0.043 A 
ATOM     24  C   UNL     1       4.676   3.598   0.209  0.00  0.00    +0.036 A 
ATOM     25  C   UNL     1       5.811   2.923   0.616  0.00  0.00    +0.126 A 
ATOM     26  C   UNL     1       5.904   2.445   1.910  0.00  0.00    +0.033 A 
BRANCH  25  27
ATOM     27  N   UNL     1       6.927   2.712  -0.333  0.00  0.00    +0.056 N 
ATOM     28  O   UNL     1       6.845   3.133  -1.473  0.00  0.00    -0.126 OA
ATOM     29  O   UNL     1       7.928   2.117   0.026  0.00  0.00    -0.126 OA
ENDBRANCH  25  27
ENDBRANCH   1  23
BRANCH   7  30
ATOM     30  C   UNL     1       0.218   5.040   1.785  0.00  0.00    +0.173 C 
ATOM     31  O   UNL     1       0.233   6.114   1.218  0.00  0.00    -0.291 OA
BRANCH  30  32
ATOM     32  C   UNL     1      -0.669   4.822   2.862  0.00  0.00    +0.055 A 
ATOM     33  C   UNL     1      -1.592   5.696   3.429  0.00  0.00    +0.019 A 
ATOM     34  C   UNL     1      -2.337   5.221   4.475  0.00  0.00    +0.008 A 
ATOM     35  C   UNL     1      -2.137   3.948   4.911  0.00  0.00    +0.046 A 
ATOM     36  S   UNL     1      -0.892   3.359   3.857  0.00  0.00    -0.094 S 
ENDBRANCH  30  32
ENDBRANCH   7  30
TORSDOF 4
