REMARK  Name = ZINC13590236
REMARK  5 active torsions:
REMARK  status: ('A' for Active; 'I' for Inactive)
REMARK    1  A    between atoms: C_6  and  S_11
REMARK    2  A    between atoms: S_11  and  C_14
REMARK    3  A    between atoms: C_14  and  C_15
REMARK    4  A    between atoms: C_15  and  C_16
REMARK    5  A    between atoms: C_22  and  C_24
REMARK                            x       y       z     vdW  Elec       q    Type
REMARK                         _______ _______ _______ _____ _____    ______ ____
ROOT
ATOM      1  C   UNL     1       2.869  -6.832  -0.065  0.00  0.00    +0.105 A 
ATOM      2  N   UNL     1       1.655  -6.318  -0.050  0.00  0.00    -0.145 NA
ATOM      3  N   UNL     1       1.453  -5.073  -0.041  0.00  0.00    -0.126 NA
ATOM      4  C   UNL     1       2.452  -4.202  -0.045  0.00  0.00    +0.188 A 
ATOM      5  S   UNL     1       3.843  -5.330  -0.072  0.00  0.00    -0.035 S 
ATOM      6  N   UNL     1       2.428  -2.813  -0.037  0.00  0.00    -0.259 N 
ATOM      7  C   UNL     1       1.249  -2.160  -0.022  0.00  0.00    +0.250 C 
ATOM      8  O   UNL     1       0.207  -2.786  -0.016  0.00  0.00    -0.270 OA
ATOM      9  H   UNL     1       3.259  -2.313  -0.042  0.00  0.00    +0.157 HD
ENDROOT
BRANCH   7  10
ATOM     10  C   UNL     1       1.222  -0.683  -0.013  0.00  0.00    +0.037 A 
ATOM     11  C   UNL     1       0.002  -0.004   0.002  0.00  0.00    +0.016 A 
ATOM     12  C   UNL     1      -0.017   1.374   0.010  0.00  0.00    +0.039 A 
ATOM     13  C   UNL     1       1.173   2.086   0.002  0.00  0.00    +0.123 A 
ATOM     14  C   UNL     1       2.388   1.417  -0.013  0.00  0.00    +0.039 A 
ATOM     15  C   UNL     1       2.418   0.039  -0.021  0.00  0.00    +0.016 A 
ATOM     16  F   UNL     1       1.149   3.437   0.010  0.00  0.00    -0.205 F 
ENDBRANCH   7  10
BRANCH   1  17
ATOM     17  C   UNL     1       3.311  -8.273  -0.078  0.00  0.00    +0.088 C 
BRANCH  17  18
ATOM     18  C   UNL     1       3.447  -8.751  -1.524  0.00  0.00    +0.178 C 
BRANCH  18  19
ATOM     19  S   UNL     1       3.978 -10.486  -1.540  0.00  0.00    -0.003 S 
ATOM     20  O   UNL     1       5.307 -10.595  -1.048  0.00  0.00    -0.169 OA
ATOM     21  O   UNL     1       2.946 -11.319  -1.030  0.00  0.00    -0.169 OA
BRANCH  19  27
ATOM     22  C   UNL     1       5.509 -11.737  -7.952  0.00  0.00    +0.001 A 
ATOM     23  C   UNL     1       6.623 -11.217  -7.296  0.00  0.00    +0.001 A 
ATOM     24  C   UNL     1       6.566 -10.880  -5.979  0.00  0.00    +0.008 A 
ATOM     25  C   UNL     1       5.368 -11.058  -5.266  0.00  0.00    -0.016 A 
ATOM     26  C   UNL     1       5.272 -10.721  -3.905  0.00  0.00    +0.035 A 
ATOM     27  C   UNL     1       4.095 -10.908  -3.247  0.00  0.00    +0.089 A 
ATOM     28  C   UNL     1       2.982 -11.434  -3.902  0.00  0.00    +0.027 A 
ATOM     29  C   UNL     1       3.037 -11.765  -5.220  0.00  0.00    +0.010 A 
ATOM     30  C   UNL     1       4.235 -11.587  -5.933  0.00  0.00    -0.018 A 
ATOM     31  C   UNL     1       4.332 -11.924  -7.294  0.00  0.00    +0.008 A 
ENDBRANCH  19  27
ENDBRANCH  18  19
ENDBRANCH  17  18
ENDBRANCH   1  17
TORSDOF 5
