REMARK  Name = ZINC59036987
REMARK  19 active torsions:
REMARK  status: ('A' for Active; 'I' for Inactive)
REMARK    1  A    between atoms: C_1  and  C_2
REMARK    2  A    between atoms: C_2  and  C_3
REMARK    3  A    between atoms: C_2  and  O_4
REMARK    4  A    between atoms: O_4  and  C_5
REMARK    5  A    between atoms: C_5  and  C_6
REMARK    6  A    between atoms: C_6  and  C_7
REMARK    7  A    between atoms: C_7  and  N_8
REMARK    8  A    between atoms: N_8  and  C_9
REMARK    9  A    between atoms: C_9  and  N_11
REMARK   10  A    between atoms: N_11  and  C_12
REMARK   11  A    between atoms: N_11  and  C_23
REMARK   12  A    between atoms: C_12  and  C_13
REMARK   13  A    between atoms: C_16  and  C_19
REMARK   14  A    between atoms: C_19  and  C_20
REMARK   15  A    between atoms: C_19  and  C_21
REMARK   16  A    between atoms: C_19  and  C_22
REMARK   17  A    between atoms: C_23  and  C_24
REMARK   18  A    between atoms: C_27  and  O_30
REMARK   19  A    between atoms: O_30  and  C_31
REMARK                            x       y       z     vdW  Elec       q    Type
REMARK                         _______ _______ _______ _____ _____    ______ ____
ROOT
ATOM      1  N   UNL     1      -6.222  -5.489  -1.703  0.00  0.00    -0.304 N 
ENDROOT
BRANCH   1   2
ATOM      2  C   UNL     1      -4.930  -5.110  -1.767  0.00  0.00    +0.133 C 
ATOM      3  S   UNL     1      -3.784  -6.107  -2.556  0.00  0.00    -0.019 S 
BRANCH   2   4
ATOM      4  N   UNL     1      -4.541  -3.946  -1.209  0.00  0.00    -0.326 N 
ATOM      5  H   UNL     1      -5.191  -3.381  -0.762  0.00  0.00    +0.148 HD
BRANCH   4   6
ATOM      6  C   UNL     1      -3.137  -3.534  -1.278  0.00  0.00    +0.105 C 
BRANCH   6   7
ATOM      7  C   UNL     1      -2.965  -2.187  -0.574  0.00  0.00    +0.047 C 
BRANCH   7   8
ATOM      8  C   UNL     1      -1.499  -1.757  -0.646  0.00  0.00    +0.161 C 
BRANCH   8   9
ATOM      9  O   UNL     1      -1.339  -0.499   0.012  0.00  0.00    -0.377 OA
BRANCH   9  11
ATOM     10  C   UNL     1      -0.019   1.526   0.010  0.00  0.00    +0.037 C 
ATOM     11  C   UNL     1       0.002  -0.004   0.002  0.00  0.00    +0.112 C 
ATOM     12  C   UNL     1       0.742  -0.511   1.242  0.00  0.00    +0.037 C 
ENDBRANCH   9  11
ENDBRANCH   8   9
ENDBRANCH   7   8
ENDBRANCH   6   7
ENDBRANCH   4   6
ENDBRANCH   2   4
ENDBRANCH   1   2
BRANCH   1  13
ATOM     13  C   UNL     1      -7.203  -4.636  -1.028  0.00  0.00    +0.142 C 
BRANCH  13  14
ATOM     14  C   UNL     1      -7.797  -3.670  -2.021  0.00  0.00    -0.030 A 
ATOM     15  C   UNL     1      -7.205  -2.438  -2.227  0.00  0.00    +0.005 A 
ATOM     16  C   UNL     1      -7.749  -1.553  -3.138  0.00  0.00    +0.004 A 
ATOM     17  C   UNL     1      -8.887  -1.899  -3.843  0.00  0.00    -0.042 A 
ATOM     18  C   UNL     1      -9.479  -3.131  -3.638  0.00  0.00    +0.004 A 
ATOM     19  C   UNL     1      -8.932  -4.018  -2.730  0.00  0.00    +0.005 A 
BRANCH  17  20
ATOM     20  C   UNL     1      -9.482  -0.933  -4.835  0.00  0.00    -0.013 C 
ATOM     21  C   UNL     1      -8.452  -0.622  -5.924  0.00  0.00    +0.015 C 
ATOM     22  C   UNL     1     -10.725  -1.557  -5.472  0.00  0.00    +0.015 C 
ATOM     23  C   UNL     1      -9.871   0.361  -4.117  0.00  0.00    +0.015 C 
ENDBRANCH  17  20
ENDBRANCH  13  14
ENDBRANCH   1  13
BRANCH   1  24
ATOM     24  C   UNL     1      -6.645  -6.753  -2.310  0.00  0.00    +0.142 C 
BRANCH  24  25
ATOM     25  C   UNL     1      -6.533  -7.860  -1.293  0.00  0.00    -0.030 A 
ATOM     26  C   UNL     1      -5.353  -8.572  -1.175  0.00  0.00    +0.009 A 
ATOM     27  C   UNL     1      -5.247  -9.587  -0.244  0.00  0.00    +0.046 A 
ATOM     28  C   UNL     1      -6.326  -9.892   0.573  0.00  0.00    +0.120 A 
ATOM     29  C   UNL     1      -7.509  -9.177   0.453  0.00  0.00    +0.046 A 
ATOM     30  C   UNL     1      -7.607  -8.159  -0.476  0.00  0.00    +0.009 A 
BRANCH  28  31
ATOM     31  O   UNL     1      -6.225 -10.891   1.489  0.00  0.00    -0.495 OA
ATOM     32  C   UNL     1      -7.376 -11.150   2.296  0.00  0.00    +0.277 C 
ENDBRANCH  28  31
ENDBRANCH  24  25
ENDBRANCH   1  24
TORSDOF 13
