REMARK  Name = ZINC63362919
REMARK  5 active torsions:
REMARK  status: ('A' for Active; 'I' for Inactive)
REMARK    1  A    between atoms: C_1  and  C_2
REMARK    2  A    between atoms: C_9  and  N_17
REMARK    3  A    between atoms: N_17  and  C_18
REMARK    4  A    between atoms: C_18  and  C_19
REMARK    5  A    between atoms: C_26  and  C_39
REMARK                            x       y       z     vdW  Elec       q    Type
REMARK                         _______ _______ _______ _____ _____    ______ ____
ROOT
ATOM      1  C   UNL     1       2.347  -7.285   1.377  0.00  0.00    +0.096 C 
ENDROOT
BRANCH   1   2
ATOM      2  C   UNL     1       2.175  -8.711   0.849  0.00  0.00    +0.118 C 
ATOM      3  C   UNL     1       3.544  -9.458   0.832  0.00  0.00    +0.045 C 
ATOM      4  C   UNL     1       3.240 -10.926   1.136  0.00  0.00    +0.015 C 
ATOM      5  C   UNL     1       4.397 -11.819   0.696  0.00  0.00    +0.030 C 
ATOM      6  C   UNL     1       4.549 -11.691  -0.827  0.00  0.00    -0.023 C 
ATOM      7  C   UNL     1       5.633 -12.653  -1.312  0.00  0.00    +0.007 C 
ATOM      8  C   UNL     1       5.208 -14.096  -1.031  0.00  0.00    +0.003 C 
ATOM      9  C   UNL     1       5.076 -14.304   0.481  0.00  0.00    +0.037 C 
ATOM     10  C   UNL     1       4.098 -13.274   1.061  0.00  0.00    +0.096 C 
ATOM     11  C   UNL     1       2.635 -13.691   1.203  0.00  0.00    +0.196 C 
ATOM     12  O   UNL     1       3.502 -13.537   2.329  0.00  0.00    -0.368 OA
ATOM     13  C   UNL     1       4.957 -10.251  -1.139  0.00  0.00    +0.052 C 
ATOM     14  C   UNL     1       3.930  -9.251  -0.646  0.00  0.00    +0.181 C 
ATOM     15  O   UNL     1       2.682  -9.351  -1.342  0.00  0.00    -0.461 OA
ATOM     16  C   UNL     1       1.752  -8.693  -0.609  0.00  0.00    +0.312 C 
ATOM     17  O   UNL     1       0.750  -8.175  -1.042  0.00  0.00    -0.250 OA
ATOM     18  C   UNL     1       3.221 -12.026  -1.507  0.00  0.00    +0.011 C 
ENDBRANCH   1   2
BRANCH   1  19
ATOM     19  N   UNL     1       1.036  -6.628   1.450  0.00  0.00    -0.310 NA
ATOM     20  H   UNL     1       0.394  -7.163   2.015  0.00  0.00    +0.122 HD
BRANCH  19  28
ATOM     21  C   UNL     1      -0.018   1.503   0.010  0.00  0.00    +0.044 C 
ATOM     22  C   UNL     1       0.002  -0.004   0.002  0.00  0.00    -0.050 A 
ATOM     23  C   UNL     1       0.005  -0.680  -1.226  0.00  0.00    +0.005 A 
ATOM     24  C   UNL     1       0.020  -2.026  -1.316  0.00  0.00    +0.026 A 
ATOM     25  C   UNL     1       0.033  -2.827  -0.142  0.00  0.00    +0.043 A 
ATOM     26  N   UNL     1       0.070  -4.130   0.027  0.00  0.00    -0.376 N 
ATOM     27  C   UNL     1      -0.017  -4.414   1.456  0.00  0.00    +0.123 C 
ATOM     28  C   UNL     1       1.162  -5.254   1.954  0.00  0.00    +0.080 C 
ATOM     29  C   UNL     1       1.144  -5.260   3.485  0.00  0.00    +0.021 C 
ATOM     30  C   UNL     1       1.398  -3.862   4.045  0.00  0.00    +0.006 C 
ATOM     31  C   UNL     1       0.255  -2.917   3.635  0.00  0.00    +0.033 C 
ATOM     32  C   UNL     1       0.063  -3.061   2.143  0.00  0.00    -0.037 C 
ATOM     33  C   UNL     1       0.038  -2.137   1.172  0.00  0.00    -0.001 A 
ATOM     34  C   UNL     1       0.022  -0.668   1.179  0.00  0.00    +0.013 A 
ATOM     35  H   UNL     1       0.143  -4.791  -0.679  0.00  0.00    +0.160 HD
ENDBRANCH  19  28
ENDBRANCH   1  19
TORSDOF 3
