REMARK  Name = ZINC40406939
REMARK  6 active torsions:
REMARK  status: ('A' for Active; 'I' for Inactive)
REMARK    1  A    between atoms: C_1  and  N_2
REMARK    2  A    between atoms: N_2  and  C_3
REMARK    3  A    between atoms: C_4  and  C_6
REMARK    4  A    between atoms: C_9  and  C_12
REMARK    5  A    between atoms: N_14  and  C_15
REMARK    6  A    between atoms: C_19  and  C_20
REMARK                            x       y       z     vdW  Elec       q    Type
REMARK                         _______ _______ _______ _____ _____    ______ ____
ROOT
ATOM      1  C   UNL     1      -0.065   2.278  -6.093  0.00  0.00    +0.248 C 
ATOM      2  O   UNL     1      -0.484   3.419  -6.115  0.00  0.00    -0.270 OA
ATOM      3  N   UNL     1       0.361   1.695  -7.231  0.00  0.00    -0.280 N 
ATOM      4  H   UNL     1       0.761   0.811  -7.203  0.00  0.00    +0.155 HD
ENDROOT
BRANCH   1   8
ATOM      5  C   UNL     1       0.051   0.125  -2.428  0.00  0.00    +0.013 A 
ATOM      6  C   UNL     1      -0.428   1.435  -2.453  0.00  0.00    +0.012 A 
ATOM      7  C   UNL     1      -0.466   2.133  -3.640  0.00  0.00    +0.014 A 
ATOM      8  C   UNL     1      -0.025   1.529  -4.819  0.00  0.00    +0.037 A 
ATOM      9  C   UNL     1       0.456   0.218  -4.794  0.00  0.00    +0.014 A 
ATOM     10  C   UNL     1       0.498  -0.477  -3.605  0.00  0.00    +0.012 A 
BRANCH   5  14
ATOM     11  C   UNL     1       2.306  -1.500  -1.778  0.00  0.00    +0.130 C 
ATOM     12  N   UNL     1       1.153  -1.460  -0.875  0.00  0.00    -0.323 N 
ATOM     13  C   UNL     1       1.127  -2.306   0.320  0.00  0.00    +0.130 C 
ATOM     14  C   UNL     1       0.091  -0.625  -1.151  0.00  0.00    +0.099 C 
ATOM     15  N   UNL     1      -0.877  -0.497  -0.290  0.00  0.00    -0.386 N 
ATOM     16  H   UNL     1      -1.624   0.091  -0.484  0.00  0.00    +0.157 HD
ATOM     17  H   UNL     1      -0.850  -0.988   0.546  0.00  0.00    +0.157 HD
ENDBRANCH   5  14
ENDBRANCH   1   8
BRANCH   3  18
ATOM     18  C   UNL     1       0.228   2.362  -8.448  0.00  0.00    +0.053 A 
ATOM     19  C   UNL     1      -0.195   3.674  -8.529  0.00  0.00    +0.031 A 
ATOM     20  C   UNL     1      -0.301   4.258  -9.745  0.00  0.00    +0.048 A 
ATOM     21  S   UNL     1       0.166   3.060 -10.826  0.00  0.00    -0.090 S 
ATOM     22  C   UNL     1       0.519   1.751  -9.668  0.00  0.00    +0.095 A 
BRANCH  22  23
ATOM     23  C   UNL     1       0.975   0.434  -9.921  0.00  0.00    +0.258 C 
ATOM     24  O   UNL     1       1.163  -0.334  -8.995  0.00  0.00    -0.269 OA
ATOM     25  N   UNL     1       1.200   0.031 -11.188  0.00  0.00    -0.266 N 
ATOM     26  C   UNL     1       1.546  -1.294 -11.445  0.00  0.00    +0.125 A 
ATOM     27  C   UNL     1       1.886  -1.678 -12.738  0.00  0.00    +0.045 A 
ATOM     28  C   UNL     1       2.228  -2.996 -12.981  0.00  0.00    +0.025 A 
ATOM     29  C   UNL     1       2.218  -3.890 -11.917  0.00  0.00    +0.059 A 
ATOM     30  C   UNL     1       1.870  -3.439 -10.658  0.00  0.00    +0.132 A 
ATOM     31  N   UNL     1       1.553  -2.174 -10.457  0.00  0.00    -0.239 NA
ATOM     32 CL   UNL     1       2.639  -5.556 -12.167  0.00  0.00    -0.082 Cl
ATOM     33  H   UNL     1       1.121   0.663 -11.919  0.00  0.00    +0.157 HD
ENDBRANCH  22  23
ENDBRANCH   3  18
TORSDOF 4
