REMARK  Name = ZINC38178964
REMARK  10 active torsions:
REMARK  status: ('A' for Active; 'I' for Inactive)
REMARK    1  A    between atoms: C_1  and  C_2
REMARK    2  A    between atoms: C_3  and  N_18
REMARK    3  A    between atoms: C_4  and  O_17
REMARK    4  A    between atoms: N_5  and  C_7
REMARK    5  A    between atoms: C_11  and  S_13
REMARK    6  A    between atoms: S_13  and  N_16
REMARK    7  A    between atoms: N_19  and  C_20
REMARK    8  A    between atoms: C_22  and  S_27
REMARK    9  A    between atoms: C_25  and  O_26
REMARK   10  A    between atoms: S_27  and  N_30
REMARK                            x       y       z     vdW  Elec       q    Type
REMARK                         _______ _______ _______ _____ _____    ______ ____
ROOT
ATOM      1  C   UNL     1      -0.705   0.708   0.240  0.00  0.00    +0.070 C 
ATOM      2  C   UNL     1      -0.033  -0.607  -0.061  0.00  0.00    +0.091 A 
ATOM      3  C   UNL     1       0.401  -1.044  -1.334  0.00  0.00    +0.170 A 
ATOM      4  C   UNL     1       0.962  -2.304  -1.162  0.00  0.00    +0.244 A 
ATOM      5  N   UNL     1       0.868  -2.607   0.151  0.00  0.00    -0.198 N 
ATOM      6  N   UNL     1       0.253  -1.536   0.809  0.00  0.00    -0.166 NA
ENDROOT
BRANCH   5   7
ATOM      7  C   UNL     1       1.316  -3.790   0.754  0.00  0.00    +0.071 A 
ATOM      8  C   UNL     1       1.120  -5.011   0.120  0.00  0.00    +0.028 A 
ATOM      9  C   UNL     1       1.563  -6.175   0.716  0.00  0.00    +0.004 A 
ATOM     10  C   UNL     1       2.200  -6.127   1.943  0.00  0.00    +0.028 A 
ATOM     11  C   UNL     1       2.396  -4.914   2.576  0.00  0.00    +0.107 A 
ATOM     12  C   UNL     1       1.960  -3.745   1.982  0.00  0.00    +0.056 A 
BRANCH  11  13
ATOM     13  S   UNL     1       3.207  -4.858   4.139  0.00  0.00    +0.056 S 
ATOM     14  O   UNL     1       2.782  -3.660   4.775  0.00  0.00    -0.153 OA
ATOM     15  O   UNL     1       3.035  -6.138   4.732  0.00  0.00    -0.153 OA
BRANCH  13  16
ATOM     16  N   UNL     1       4.828  -4.686   3.844  0.00  0.00    -0.204 NA
ATOM     17  H   UNL     1       5.152  -4.637   2.931  0.00  0.00    +0.144 HD
ATOM     18  H   UNL     1       5.453  -4.635   4.584  0.00  0.00    +0.144 HD
ENDBRANCH  13  16
ENDBRANCH  11  13
ENDBRANCH   5   7
BRANCH   4  19
ATOM     19  O   UNL     1       1.503  -3.082  -2.131  0.00  0.00    -0.491 OA
ATOM     20  H   UNL     1       2.462  -2.993  -2.218  0.00  0.00    +0.294 HD
ENDBRANCH   4  19
BRANCH   3  21
ATOM     21  N   UNL     1       0.290  -0.359  -2.506  0.00  0.00    -0.142 NA
ATOM     22  N   UNL     1      -0.268  -0.916  -3.527  0.00  0.00    -0.145 NA
BRANCH  22  23
ATOM     23  C   UNL     1      -0.907  -2.116  -3.388  0.00  0.00    +0.129 A 
ATOM     24  C   UNL     1      -1.647  -2.388  -2.234  0.00  0.00    +0.061 A 
ATOM     25  C   UNL     1      -2.289  -3.600  -2.099  0.00  0.00    +0.107 A 
ATOM     26  C   UNL     1      -2.205  -4.550  -3.103  0.00  0.00    +0.032 A 
ATOM     27  C   UNL     1      -1.477  -4.293  -4.249  0.00  0.00    +0.049 A 
ATOM     28  C   UNL     1      -0.830  -3.078  -4.404  0.00  0.00    +0.144 A 
BRANCH  25  29
ATOM     29  S   UNL     1      -3.221  -3.942  -0.643  0.00  0.00    +0.056 S 
ATOM     30  O   UNL     1      -3.175  -5.349  -0.453  0.00  0.00    -0.153 OA
ATOM     31  O   UNL     1      -2.778  -3.024   0.347  0.00  0.00    -0.153 OA
BRANCH  29  32
ATOM     32  N   UNL     1      -4.799  -3.560  -0.971  0.00  0.00    -0.204 NA
ATOM     33  H   UNL     1      -5.056  -3.287  -1.865  0.00  0.00    +0.144 HD
ATOM     34  H   UNL     1      -5.466  -3.610  -0.268  0.00  0.00    +0.144 HD
ENDBRANCH  29  32
ENDBRANCH  25  29
BRANCH  28  35
ATOM     35  O   UNL     1      -0.119  -2.823  -5.532  0.00  0.00    -0.505 OA
ATOM     36  H   UNL     1       0.809  -3.089  -5.481  0.00  0.00    +0.292 HD
ENDBRANCH  28  35
ENDBRANCH  22  23
ENDBRANCH   3  21
TORSDOF 9
