REMARK  Name = ZINC12031641
REMARK  4 active torsions:
REMARK  status: ('A' for Active; 'I' for Inactive)
REMARK    1  A    between atoms: C_8  and  C_10
REMARK    2  A    between atoms: C_14  and  O_16
REMARK    3  A    between atoms: C_21  and  C_22
REMARK    4  A    between atoms: C_21  and  N_55
REMARK                            x       y       z     vdW  Elec       q    Type
REMARK                         _______ _______ _______ _____ _____    ______ ____
ROOT
ATOM      1  C   UNL     1      -0.753  10.081   4.266  0.00  0.00    +0.011 A 
ATOM      2  C   UNL     1      -0.686   9.485   3.004  0.00  0.00    +0.016 A 
ATOM      3  C   UNL     1      -0.140   8.227   2.872  0.00  0.00    -0.018 A 
ATOM      4  C   UNL     1       0.323   7.542   3.979  0.00  0.00    +0.163 A 
ATOM      5  C   UNL     1       0.268   8.132   5.241  0.00  0.00    +0.159 A 
ATOM      6  C   UNL     1      -0.268   9.399   5.383  0.00  0.00    +0.059 A 
ATOM      7  O   UNL     1       0.829   6.285   3.837  0.00  0.00    -0.490 OA
ATOM      8  C   UNL     1      -0.126   5.277   3.482  0.00  0.00    +0.211 C 
ATOM      9  C   UNL     1      -0.319   5.227   1.981  0.00  0.00    -0.036 C 
ATOM     10  C   UNL     1      -0.015   7.595   1.500  0.00  0.00    -0.039 C 
ATOM     11  N   UNL     1      -0.953   6.449   1.441  0.00  0.00    +0.388 N 
ATOM     12  H   UNL     1      -1.779   6.671   2.009  0.00  0.00    -0.081 HD
ENDROOT
BRANCH   1  20
ATOM     13  C   UNL     1      -3.377  15.574   3.338  0.00  0.00    +0.002 A 
ATOM     14  C   UNL     1      -3.318  15.918   4.681  0.00  0.00    +0.001 A 
ATOM     15  C   UNL     1      -2.772  15.027   5.586  0.00  0.00    +0.017 A 
ATOM     16  C   UNL     1      -2.298  13.818   5.140  0.00  0.00    +0.040 A 
ATOM     17  C   UNL     1      -2.344  13.438   3.778  0.00  0.00    +0.079 A 
ATOM     18  C   UNL     1      -2.911  14.379   2.886  0.00  0.00    +0.029 A 
ATOM     19  N   UNL     1      -1.835  12.223   3.493  0.00  0.00    -0.239 NA
ATOM     20  C   UNL     1      -1.337  11.430   4.417  0.00  0.00    +0.110 A 
ATOM     21  S   UNL     1      -1.539  12.404   5.902  0.00  0.00    -0.067 S 
ENDBRANCH   1  20
BRANCH   5  22
ATOM     22  O   UNL     1       0.740   7.465   6.328  0.00  0.00    -0.503 OA
ATOM     23  H   UNL     1       1.675   7.625   6.512  0.00  0.00    +0.292 HD
ENDBRANCH   5  22
BRANCH  11  24
ATOM     24  C   UNL     1      -1.379   6.218   0.051  0.00  0.00    -0.023 C 
BRANCH  24  25
ATOM     25  C   UNL     1      -2.515   5.228   0.057  0.00  0.00    +0.009 A 
ATOM     26  C   UNL     1      -3.829   5.533   0.072  0.00  0.00    +0.021 A 
ATOM     27  C   UNL     1      -4.545   4.319   0.071  0.00  0.00    +0.020 A 
ATOM     28  C   UNL     1      -3.644   3.317   0.050  0.00  0.00    +0.093 A 
ATOM     29  N   UNL     1      -2.394   3.867   0.047  0.00  0.00    -0.307 N 
ATOM     30  C   UNL     1      -1.190   3.157   0.031  0.00  0.00    +0.138 A 
ATOM     31  C   UNL     1      -1.211   1.767   0.017  0.00  0.00    +0.047 A 
ATOM     32  C   UNL     1      -0.013   1.076   0.008  0.00  0.00    +0.005 A 
ATOM     33  C   UNL     1       1.171   1.802   0.001  0.00  0.00    +0.020 A 
ATOM     34  C   UNL     1       1.117   3.182   0.009  0.00  0.00    +0.113 A 
ATOM     35  N   UNL     1      -0.042   3.813   0.024  0.00  0.00    -0.238 NA
ENDBRANCH  24  25
ENDBRANCH  11  24
TORSDOF 4
