REMARK  Name = ZINC00634002
REMARK  2 active torsions:
REMARK  status: ('A' for Active; 'I' for Inactive)
REMARK    1  A    between atoms: C_6  and  C_7
REMARK    2  A    between atoms: C_10  and  C_18
REMARK                            x       y       z     vdW  Elec       q    Type
REMARK                         _______ _______ _______ _____ _____    ______ ____
ROOT
ATOM      1  C   UNL     1      -1.293  -0.775   0.011  0.00  0.00    +0.106 C 
ATOM      2  C   UNL     1      -1.588  -1.269   1.431  0.00  0.00    +0.058 C 
ATOM      3  C   UNL     1      -2.933  -2.006   1.454  0.00  0.00    +0.143 C 
ATOM      4  N   UNL     1      -2.955  -2.981   0.364  0.00  0.00    -0.226 N 
ATOM      5  C   UNL     1      -2.133  -2.941  -0.712  0.00  0.00    +0.215 A 
ATOM      6  N   UNL     1      -2.422  -3.956  -1.480  0.00  0.00    -0.202 NA
ATOM      7  C   UNL     1      -3.417  -4.661  -0.932  0.00  0.00    +0.247 A 
ATOM      8  N   UNL     1      -3.773  -4.098   0.196  0.00  0.00    -0.156 NA
ATOM      9  N   UNL     1      -1.180  -1.943  -0.884  0.00  0.00    -0.307 N 
ATOM     10  H   UNL     1      -0.479  -2.012  -1.551  0.00  0.00    +0.149 HD
ENDROOT
BRANCH   1  16
ATOM     11  C   UNL     1      -0.017   1.378   0.010  0.00  0.00    +0.007 A 
ATOM     12  C   UNL     1       1.171   2.086   0.002  0.00  0.00    +0.020 A 
ATOM     13  C   UNL     1       2.378   1.410  -0.013  0.00  0.00    +0.041 A 
ATOM     14  C   UNL     1       2.396   0.027  -0.021  0.00  0.00    +0.020 A 
ATOM     15  C   UNL     1       1.208  -0.679  -0.013  0.00  0.00    +0.007 A 
ATOM     16  C   UNL     1       0.002  -0.004   0.002  0.00  0.00    -0.027 A 
ATOM     17 CL   UNL     1       3.870   2.298  -0.023  0.00  0.00    -0.084 Cl
ENDBRANCH   1  16
BRANCH   3  18
ATOM     18  C   UNL     1      -3.096  -2.717   2.773  0.00  0.00    -0.023 A 
ATOM     19  C   UNL     1      -2.179  -3.676   3.160  0.00  0.00    +0.007 A 
ATOM     20  C   UNL     1      -2.328  -4.328   4.370  0.00  0.00    +0.015 A 
ATOM     21  C   UNL     1      -3.396  -4.021   5.193  0.00  0.00    +0.018 A 
ATOM     22  C   UNL     1      -4.314  -3.061   4.806  0.00  0.00    +0.015 A 
ATOM     23  C   UNL     1      -4.161  -2.406   3.599  0.00  0.00    +0.007 A 
ATOM     24 BR   UNL     1      -3.601  -4.912   6.848  0.00  0.00    -0.050 Br
ENDBRANCH   3  18
TORSDOF 2
