REMARK  Name = ZINC39612495
REMARK  7 active torsions:
REMARK  status: ('A' for Active; 'I' for Inactive)
REMARK    1  A    between atoms: C_1  and  C_2
REMARK    2  A    between atoms: C_6  and  N_12
REMARK    3  A    between atoms: C_9  and  C_11
REMARK    4  A    between atoms: C_13  and  C_15
REMARK    5  A    between atoms: C_15  and  O_16
REMARK    6  A    between atoms: O_16  and  C_17
REMARK    7  A    between atoms: C_17  and  C_19
REMARK                            x       y       z     vdW  Elec       q    Type
REMARK                         _______ _______ _______ _____ _____    ______ ____
ROOT
ATOM      1  N   UNL     1       3.313  -2.384  -2.487  0.00  0.00    -0.283 N 
ATOM      2  C   UNL     1       4.379  -2.496  -3.305  0.00  0.00    +0.253 C 
ATOM      3  O   UNL     1       4.612  -1.628  -4.119  0.00  0.00    -0.272 OA
ATOM      4  H   UNL     1       3.127  -3.079  -1.835  0.00  0.00    +0.152 HD
ENDROOT
BRANCH   1   9
ATOM      5  C   UNL     1      -0.019   1.526   0.010  0.00  0.00    +0.030 C 
ATOM      6  C   UNL     1       0.002  -0.004   0.002  0.00  0.00    +0.099 C 
ATOM      7  C   UNL     1       0.712  -0.492  -1.232  0.00  0.00    -0.011 C 
ATOM      8  C   UNL     1       2.029  -0.763  -1.215  0.00  0.00    +0.065 C 
ATOM      9  C   UNL     1       2.437  -1.214  -2.581  0.00  0.00    +0.243 C 
ATOM     10  O   UNL     1       1.211  -1.562  -3.261  0.00  0.00    -0.347 OA
ATOM     11  C   UNL     1       0.198  -0.762  -2.613  0.00  0.00    +0.146 C 
ATOM     12  C   UNL     1       0.002   0.554  -3.369  0.00  0.00    +0.043 C 
ATOM     13  C   UNL     1       2.797  -0.603   0.029  0.00  0.00    +0.258 C 
ATOM     14  O   UNL     1       4.009  -0.695   0.056  0.00  0.00    -0.269 OA
ATOM     15  N   UNL     1       2.069  -0.345   1.144  0.00  0.00    -0.247 N 
ATOM     16  N   UNL     1       0.718  -0.493   1.188  0.00  0.00    -0.233 NA
ATOM     17  H   UNL     1       2.530  -0.044   1.943  0.00  0.00    +0.169 HD
ATOM     18  H   UNL     1       0.464  -1.448   1.395  0.00  0.00    +0.145 HD
ENDBRANCH   1   9
BRANCH   2  19
ATOM     19  C   UNL     1       5.281  -3.699  -3.207  0.00  0.00    +0.327 C 
BRANCH  19  20
ATOM     20  O   UNL     1       6.330  -3.587  -4.171  0.00  0.00    -0.454 OA
BRANCH  20  21
ATOM     21  C   UNL     1       7.226  -4.586  -4.215  0.00  0.00    +0.321 C 
ATOM     22  O   UNL     1       7.123  -5.524  -3.460  0.00  0.00    -0.250 OA
BRANCH  21  23
ATOM     23  C   UNL     1       8.361  -4.537  -5.206  0.00  0.00    +0.163 C 
ATOM     24  C   UNL     1       8.793  -5.957  -5.645  0.00  0.00    +0.057 C 
ATOM     25  C   UNL     1      10.294  -6.061  -5.795  0.00  0.00    -0.059 C 
ATOM     26  C   UNL     1      11.026  -5.133  -5.226  0.00  0.00    -0.014 C 
ATOM     27  S   UNL     1       9.932  -3.996  -4.409  0.00  0.00    -0.115 S 
ATOM     28  C   UNL     1      12.537  -5.021  -5.285  0.00  0.00    +0.042 C 
ATOM     29  C   UNL     1      13.119  -6.191  -4.479  0.00  0.00    +0.005 C 
ATOM     30  C   UNL     1      13.095  -7.461  -5.299  0.00  0.00    +0.001 C 
ATOM     31  C   UNL     1      11.731  -8.058  -5.545  0.00  0.00    +0.004 C 
ATOM     32  C   UNL     1      10.922  -7.239  -6.550  0.00  0.00    +0.031 C 
ENDBRANCH  21  23
ENDBRANCH  20  21
ENDBRANCH  19  20
ENDBRANCH   2  19
TORSDOF 5
