REMARK  Name = ZINC19647471
REMARK  6 active torsions:
REMARK  status: ('A' for Active; 'I' for Inactive)
REMARK    1  A    between atoms: C_1  and  C_2
REMARK    2  A    between atoms: C_2  and  C_3
REMARK    3  A    between atoms: C_13  and  C_17
REMARK    4  A    between atoms: C_13  and  C_18
REMARK    5  A    between atoms: C_15  and  C_16
REMARK    6  A    between atoms: N_19  and  C_24
REMARK                            x       y       z     vdW  Elec       q    Type
REMARK                         _______ _______ _______ _____ _____    ______ ____
ROOT
ATOM      1  C   UNL     1       1.402   0.309  -0.231  0.00  0.00    -0.047 A 
ATOM      2  C   UNL     1       1.846   1.613  -0.100  0.00  0.00    +0.013 A 
ATOM      3  C   UNL     1       0.913   2.636   0.074  0.00  0.00    -0.000 A 
ATOM      4  C   UNL     1      -0.433   2.298   0.109  0.00  0.00    +0.051 A 
ATOM      5  C   UNL     1      -0.880   1.000  -0.028  0.00  0.00    +0.018 A 
ATOM      6  C   UNL     1       0.050  -0.004  -0.193  0.00  0.00    +0.012 A 
ATOM      7  C   UNL     1      -2.367   1.116   0.059  0.00  0.00    +0.193 C 
ATOM      8  C   UNL     1      -2.656   2.580   0.251  0.00  0.00    +0.260 C 
ATOM      9  O   UNL     1      -3.748   3.094   0.370  0.00  0.00    -0.271 OA
ATOM     10  N   UNL     1      -1.459   3.210   0.275  0.00  0.00    -0.259 N 
ATOM     11  C   UNL     1      -1.081   4.626   0.424  0.00  0.00    +0.055 C 
ATOM     12  C   UNL     1       0.385   4.987   0.384  0.00  0.00    +0.002 C 
ATOM     13  C   UNL     1       1.313   4.048   0.220  0.00  0.00    -0.043 C 
ATOM     14  C   UNL     1       2.771   4.428   0.183  0.00  0.00    +0.044 C 
ATOM     15  C   UNL     1      -1.783   5.412  -0.685  0.00  0.00    +0.036 C 
ATOM     16  C   UNL     1      -1.643   5.118   1.759  0.00  0.00    +0.036 C 
ATOM     17  N   UNL     1      -3.068   0.541  -1.084  0.00  0.00    -0.243 N 
ATOM     18  C   UNL     1      -4.122  -0.244  -0.863  0.00  0.00    +0.231 C 
ATOM     19  O   UNL     1      -4.731  -0.753  -1.780  0.00  0.00    -0.274 OA
ATOM     20  C   UNL     1      -4.532  -0.476   0.584  0.00  0.00    +0.168 C 
ATOM     21  S   UNL     1      -3.027   0.137   1.463  0.00  0.00    -0.111 S 
ENDROOT
BRANCH  17  22
ATOM     22  C   UNL     1      -2.640   0.810  -2.391  0.00  0.00    +0.042 A 
ATOM     23  C   UNL     1      -3.064   1.964  -3.037  0.00  0.00    +0.027 A 
ATOM     24  C   UNL     1      -2.640   2.232  -4.324  0.00  0.00    +0.051 A 
ATOM     25  C   UNL     1      -1.799   1.347  -4.978  0.00  0.00    +0.166 A 
ATOM     26  C   UNL     1      -1.377   0.185  -4.335  0.00  0.00    +0.168 A 
ATOM     27  C   UNL     1      -1.798  -0.081  -3.043  0.00  0.00    +0.073 A 
ATOM     28  O   UNL     1      -0.565  -0.512  -5.182  0.00  0.00    -0.453 OA
ATOM     29  C   UNL     1      -0.822   0.027  -6.492  0.00  0.00    +0.466 C 
ATOM     30  O   UNL     1      -1.251   1.376  -6.229  0.00  0.00    -0.453 OA
ENDBRANCH  17  22
BRANCH   1  32
ATOM     31  C   UNL     1       2.671  -1.000  -1.912  0.00  0.00    +0.009 C 
ATOM     32  C   UNL     1       2.409  -0.796  -0.418  0.00  0.00    +0.032 C 
ENDBRANCH   1  32
TORSDOF 2
