REMARK  Name = ZINC33516264
REMARK  10 active torsions:
REMARK  status: ('A' for Active; 'I' for Inactive)
REMARK    1  A    between atoms: C_1  and  C_2
REMARK    2  A    between atoms: C_2  and  C_4
REMARK    3  A    between atoms: C_7  and  N_10
REMARK    4  A    between atoms: C_15  and  C_33
REMARK    5  A    between atoms: C_18  and  C_23
REMARK    6  A    between atoms: C_18  and  C_30
REMARK    7  A    between atoms: C_23  and  C_24
REMARK    8  A    between atoms: C_24  and  C_25
REMARK    9  A    between atoms: C_25  and  N_26
REMARK   10  A    between atoms: C_36  and  C_39
REMARK                            x       y       z     vdW  Elec       q    Type
REMARK                         _______ _______ _______ _____ _____    ______ ____
ROOT
ATOM      1  N   UNL     1      -2.426   1.036   0.019  0.00  0.00    -0.210 N 
ATOM      2  C   UNL     1      -2.492  -0.333   0.006  0.00  0.00    +0.229 C 
ATOM      3  O   UNL     1      -1.599  -1.115   0.253  0.00  0.00    -0.275 OA
ATOM      4  C   UNL     1      -3.886  -0.654  -0.370  0.00  0.00    +0.077 C 
ATOM      5  C   UNL     1      -4.734  -1.772   0.188  0.00  0.00    -0.027 C 
ATOM      6  N   UNL     1      -6.125  -1.217   0.057  0.00  0.00    +0.395 N 
ATOM      7  C   UNL     1      -6.011   0.268   0.057  0.00  0.00    +0.048 C 
ATOM      8  C   UNL     1      -4.588   0.546   0.380  0.00  0.00    +0.086 C 
ATOM      9  C   UNL     1      -3.666   1.623   0.028  0.00  0.00    +0.229 C 
ATOM     10  O   UNL     1      -3.937   2.782  -0.205  0.00  0.00    -0.275 OA
ATOM     11  H   UNL     1      -6.573  -1.570  -0.884  0.00  0.00    -0.083 HD
ATOM     12  H   UNL     1      -6.736  -1.558   0.905  0.00  0.00    -0.083 HD
ENDROOT
BRANCH   1  16
ATOM     13  C   UNL     1       1.150   3.179   0.008  0.00  0.00    +0.017 A 
ATOM     14  C   UNL     1       1.170   1.779   0.000  0.00  0.00    +0.013 A 
ATOM     15  C   UNL     1      -0.013   1.076   0.008  0.00  0.00    +0.024 A 
ATOM     16  C   UNL     1      -1.228   1.754   0.017  0.00  0.00    +0.044 A 
ATOM     17  C   UNL     1      -1.253   3.145   0.031  0.00  0.00    +0.024 A 
ATOM     18  C   UNL     1      -0.075   3.857   0.024  0.00  0.00    +0.013 A 
BRANCH  13  20
ATOM     19  C   UNL     1       2.385   5.441   0.009  0.00  0.00    +0.091 C 
ATOM     20  C   UNL     1       2.410   3.934   0.001  0.00  0.00    +0.160 C 
ATOM     21  O   UNL     1       3.470   3.345  -0.012  0.00  0.00    -0.292 OA
ENDBRANCH  13  20
ENDBRANCH   1  16
BRANCH   5  22
ATOM     22  C   UNL     1      -4.577  -3.025  -0.635  0.00  0.00    -0.061 A 
ATOM     23  C   UNL     1      -5.276  -3.162  -1.821  0.00  0.00    +0.003 A 
ATOM     24  C   UNL     1      -5.133  -4.304  -2.581  0.00  0.00    +0.019 A 
ATOM     25  C   UNL     1      -4.290  -5.328  -2.145  0.00  0.00    +0.052 A 
ATOM     26  C   UNL     1      -3.593  -5.186  -0.944  0.00  0.00    +0.019 A 
ATOM     27  C   UNL     1      -3.740  -4.036  -0.197  0.00  0.00    +0.003 A 
BRANCH  25  28
ATOM     28  C   UNL     1      -4.141  -6.519  -2.927  0.00  0.00    +0.099 C 
ATOM     29  N   UNL     1      -4.023  -7.463  -3.546  0.00  0.00    -0.191 NA
ENDBRANCH  25  28
ENDBRANCH   5  22
BRANCH   7  30
ATOM     30  C   UNL     1      -6.914   0.856   1.110  0.00  0.00    +0.346 C 
ATOM     31  O   UNL     1      -6.540   1.796   1.770  0.00  0.00    -0.248 OA
ATOM     32  O   UNL     1      -8.134   0.335   1.315  0.00  0.00    -0.248 OA
ENDBRANCH   7  30
BRANCH   7  33
ATOM     33  C   UNL     1      -6.364   0.827  -1.323  0.00  0.00    +0.001 C 
BRANCH  33  34
ATOM     34  C   UNL     1      -7.832   0.529  -1.634  0.00  0.00    +0.018 C 
BRANCH  34  35
ATOM     35  C   UNL     1      -8.184   1.089  -3.014  0.00  0.00    +0.105 C 
BRANCH  35  36
ATOM     36  N   UNL     1      -9.590   0.803  -3.312  0.00  0.00    -0.300 N 
ATOM     37  C   UNL     1     -10.126   1.205  -4.481  0.00  0.00    +0.297 C 
ATOM     38  O   UNL     1      -9.443   1.804  -5.289  0.00  0.00    -0.253 OA
ATOM     39  N   UNL     1     -11.419   0.943  -4.755  0.00  0.00    -0.313 N 
ATOM     40  H   UNL     1     -10.208   0.261  -2.581  0.00  0.00    +0.150 HD
ATOM     41  H   UNL     1     -11.857   1.270  -5.710  0.00  0.00    +0.146 HD
ATOM     42  H   UNL     1     -12.037   0.401  -4.024  0.00  0.00    +0.146 HD
ENDBRANCH  35  36
ENDBRANCH  34  35
ENDBRANCH  33  34
ENDBRANCH   7  33
TORSDOF 9
