REMARK  Name = ZINC39205019
REMARK  12 active torsions:
REMARK  status: ('A' for Active; 'I' for Inactive)
REMARK    1  A    between atoms: C_1  and  N_2
REMARK    2  A    between atoms: N_2  and  C_3
REMARK    3  A    between atoms: N_2  and  C_4
REMARK    4  A    between atoms: C_7  and  C_10
REMARK    5  A    between atoms: N_11  and  N_12
REMARK    6  A    between atoms: N_12  and  C_13
REMARK    7  A    between atoms: C_19  and  N_23
REMARK    8  A    between atoms: N_24  and  C1*_25
REMARK    9  A    between atoms: C2*_27  and  O2*_37
REMARK   10  A    between atoms: C3*_29  and  O3*_36
REMARK   11  A    between atoms: C4*_31  and  C5*_34
REMARK   12  A    between atoms: C5*_34  and  O5*_35
REMARK                            x       y       z     vdW  Elec       q    Type
REMARK                         _______ _______ _______ _____ _____    ______ ____
ROOT
ATOM      1  C   UNL     1      -8.460  -2.260   0.057  0.00  0.00    +0.302 C 
ATOM      2  N   UNL     1      -8.914  -2.061   1.438  0.00  0.00    -0.233 NA
ATOM      3  C   UNL     1     -10.048  -2.652   1.591  0.00  0.00    +0.166 C 
ATOM      4  C   UNL     1     -10.458  -3.303   0.320  0.00  0.00    +0.160 C 
ATOM      5  N   UNL     1     -11.601  -3.957   0.297  0.00  0.00    -0.198 NA
ATOM      6  C   UNL     1     -12.381  -4.042   1.376  0.00  0.00    +0.226 C 
ATOM      7  N   UNL     1     -12.102  -3.498   2.547  0.00  0.00    -0.141 NA
ATOM      8  C   UNL     1     -10.980  -2.798   2.749  0.00  0.00    +0.292 C 
ATOM      9  O   UNL     1     -10.729  -2.299   3.832  0.00  0.00    -0.266 OA
ATOM     10  N   UNL     1      -9.492  -3.064  -0.614  0.00  0.00    -0.246 N 
ENDROOT
BRANCH  10  11
ATOM     11  C1* UNL     1      -9.483  -3.517  -2.007  0.00  0.00    +0.242 C 
ATOM     12  C2* UNL     1      -9.486  -5.061  -2.070  0.00  0.00    +0.193 C 
ATOM     13  C3* UNL     1      -8.573  -5.389  -3.272  0.00  0.00    +0.178 C 
ATOM     14  C4* UNL     1      -8.126  -4.005  -3.793  0.00  0.00    +0.177 C 
ATOM     15  O4* UNL     1      -8.256  -3.121  -2.657  0.00  0.00    -0.348 OA
BRANCH  13  16
ATOM     16  O3* UNL     1      -7.443  -6.155  -2.849  0.00  0.00    -0.386 OA
ATOM     17  H3* UNL     1      -6.836  -6.389  -3.564  0.00  0.00    +0.210 HD
ENDBRANCH  13  16
BRANCH  12  18
ATOM     18  O2* UNL     1      -8.950  -5.612  -0.866  0.00  0.00    -0.385 OA
ATOM     19  H2* UNL     1      -8.928  -6.578  -0.851  0.00  0.00    +0.210 HD
ENDBRANCH  12  18
BRANCH  14  20
ATOM     20  C5* UNL     1      -6.673  -4.057  -4.268  0.00  0.00    +0.190 C 
BRANCH  20  21
ATOM     21  O5* UNL     1      -6.316  -2.803  -4.852  0.00  0.00    -0.392 OA
ATOM     22  H5* UNL     1      -5.406  -2.764  -5.175  0.00  0.00    +0.210 HD
ENDBRANCH  20  21
ENDBRANCH  14  20
ENDBRANCH  10  11
BRANCH   1  23
ATOM     23  N   UNL     1      -7.181  -2.975   0.047  0.00  0.00    -0.229 N 
ATOM     24  H   UNL     1      -7.168  -3.945   0.045  0.00  0.00    +0.172 HD
BRANCH  23  26
ATOM     25  C   UNL     1      -4.845  -2.891   0.031  0.00  0.00    +0.138 C 
ATOM     26  N   UNL     1      -5.978  -2.258   0.040  0.00  0.00    -0.192 NA
BRANCH  25  30
ATOM     27  C   UNL     1      -1.197  -0.718   0.010  0.00  0.00    +0.029 A 
ATOM     28  C   UNL     1      -1.176  -2.109   0.008  0.00  0.00    +0.024 A 
ATOM     29  C   UNL     1      -2.358  -2.817   0.015  0.00  0.00    +0.011 A 
ATOM     30  C   UNL     1      -3.578  -2.137   0.024  0.00  0.00    -0.005 A 
ATOM     31  C   UNL     1      -3.595  -0.740   0.027  0.00  0.00    +0.011 A 
ATOM     32  C   UNL     1      -2.410  -0.038   0.025  0.00  0.00    +0.024 A 
BRANCH  27  34
ATOM     33  C   UNL     1      -0.018   1.461   0.010  0.00  0.00    +0.129 C 
ATOM     34  N   UNL     1       0.002  -0.004   0.002  0.00  0.00    -0.336 N 
ATOM     35  C   UNL     1       1.281  -0.719  -0.014  0.00  0.00    +0.129 C 
ENDBRANCH  27  34
ENDBRANCH  25  30
ENDBRANCH  23  26
ENDBRANCH   1  23
BRANCH   6  36
ATOM     36  N   UNL     1     -13.553  -4.742   1.261  0.00  0.00    -0.234 NA
ATOM     37  H   UNL     1     -14.145  -4.825   2.024  0.00  0.00    +0.173 HD
ENDBRANCH   6  36
TORSDOF 10
