REMARK  Name = ZINC52914778
REMARK  3 active torsions:
REMARK  status: ('A' for Active; 'I' for Inactive)
REMARK    1  A    between atoms: C_3  and  S_8
REMARK    2  A    between atoms: S_8  and  C_9
REMARK    3  A    between atoms: C_9  and  C_10
REMARK                            x       y       z     vdW  Elec       q    Type
REMARK                         _______ _______ _______ _____ _____    ______ ____
ROOT
ATOM      1  C   UNL     1       5.150   0.845  -0.043  0.00  0.00    +0.172 C 
ENDROOT
BRANCH   1   2
ATOM      2  C   UNL     1       6.535   1.439  -0.053  0.00  0.00    +0.231 C 
ATOM      3  O   UNL     1       6.678   2.643  -0.049  0.00  0.00    -0.274 OA
ATOM      4  N   UNL     1       7.614   0.632  -0.068  0.00  0.00    -0.240 N 
ATOM      5  C   UNL     1       8.853   1.163  -0.077  0.00  0.00    +0.303 C 
ATOM      6  O   UNL     1       8.996   2.370  -0.073  0.00  0.00    -0.253 OA
ATOM      7  N   UNL     1       9.932   0.356  -0.092  0.00  0.00    -0.313 N 
ATOM      8  H   UNL     1       7.500  -0.331  -0.072  0.00  0.00    +0.159 HD
ATOM      9  H   UNL     1       9.818  -0.607  -0.096  0.00  0.00    +0.146 HD
ATOM     10  H   UNL     1      10.824   0.739  -0.099  0.00  0.00    +0.146 HD
ENDBRANCH   1   2
BRANCH   1  11
ATOM     11  S   UNL     1       3.920   2.178  -0.024  0.00  0.00    -0.097 S 
BRANCH  11  14
ATOM     12  C   UNL     1      -0.017   1.385   0.010  0.00  0.00    +0.019 A 
ATOM     13  C   UNL     1       1.190   2.062   0.002  0.00  0.00    +0.036 A 
ATOM     14  C   UNL     1       2.374   1.332  -0.013  0.00  0.00    +0.097 A 
ATOM     15  N   UNL     1       2.351   0.008  -0.020  0.00  0.00    -0.248 NA
ATOM     16  C   UNL     1       1.216  -0.664  -0.013  0.00  0.00    +0.127 A 
ATOM     17  C   UNL     1       0.002  -0.004   0.002  0.00  0.00    +0.036 A 
ATOM     18 BR   UNL     1      -1.617  -0.981   0.013  0.00  0.00    -0.049 Br
ENDBRANCH  11  14
ENDBRANCH   1  11
TORSDOF 3
