REMARK  Name = ZINC36359952
REMARK  1 active torsions:
REMARK  status: ('A' for Active; 'I' for Inactive)
REMARK    1  A    between atoms: C_3  and  C_9
REMARK                            x       y       z     vdW  Elec       q    Type
REMARK                         _______ _______ _______ _____ _____    ______ ____
ROOT
ATOM      1  C   UNL     1       3.671   2.186  -0.023  0.00  0.00    +0.069 C 
ATOM      2  C   UNL     1       3.726   3.091  -1.263  0.00  0.00    +0.109 C 
ATOM      3  C   UNL     1       4.749   4.177  -1.082  0.00  0.00    +0.219 C 
ATOM      4  O   UNL     1       5.412   4.511  -2.041  0.00  0.00    -0.275 OA
ATOM      5  N   UNL     1       4.964   4.797   0.092  0.00  0.00    -0.270 N 
ATOM      6  C   UNL     1       4.352   4.275   1.261  0.00  0.00    +0.138 A 
ATOM      7  C   UNL     1       3.749   3.051   1.187  0.00  0.00    +0.041 A 
ATOM      8  S   UNL     1       3.139   2.821   2.829  0.00  0.00    -0.055 S 
ATOM      9  C   UNL     1       3.712   4.266   3.482  0.00  0.00    +0.163 A 
ATOM     10  N   UNL     1       4.311   4.846   2.459  0.00  0.00    -0.210 NA
ATOM     11  N   UNL     1       3.583   4.734   4.780  0.00  0.00    -0.305 N 
ATOM     12  C   UNL     1       2.878   3.945   5.803  0.00  0.00    +0.135 C 
ATOM     13  C   UNL     1       3.778   3.844   7.040  0.00  0.00    +0.179 C 
ATOM     14  O   UNL     1       4.196   5.155   7.427  0.00  0.00    -0.377 OA
ATOM     15  C   UNL     1       4.984   5.831   6.445  0.00  0.00    +0.179 C 
ATOM     16  C   UNL     1       4.152   6.031   5.178  0.00  0.00    +0.135 C 
ATOM     17  H   UNL     1       5.527   5.585   0.139  0.00  0.00    +0.156 HD
ENDROOT
BRANCH   1  20
ATOM     18  C   UNL     1      -0.017   1.380   0.010  0.00  0.00    +0.039 A 
ATOM     19  C   UNL     1       1.171   2.088   0.002  0.00  0.00    +0.008 A 
ATOM     20  C   UNL     1       2.377   1.414  -0.013  0.00  0.00    -0.020 A 
ATOM     21  C   UNL     1       2.398   0.030  -0.021  0.00  0.00    +0.047 A 
ATOM     22  C   UNL     1       1.211  -0.679  -0.013  0.00  0.00    +0.058 A 
ATOM     23  C   UNL     1       0.002  -0.004   0.002  0.00  0.00    +0.125 A 
ATOM     24  F   UNL     1      -1.158  -0.696   0.010  0.00  0.00    -0.205 F 
ATOM     25 CL   UNL     1       3.914  -0.815  -0.041  0.00  0.00    -0.083 Cl
ENDBRANCH   1  20
TORSDOF 1
