REMARK  Name = ZINC10428679
REMARK  5 active torsions:
REMARK  status: ('A' for Active; 'I' for Inactive)
REMARK    1  A    between atoms: C_1  and  C_2
REMARK    2  A    between atoms: C_4  and  C_30
REMARK    3  A    between atoms: C_10  and  S_13
REMARK    4  A    between atoms: S_13  and  C_14
REMARK    5  A    between atoms: C_14  and  C_15
REMARK                            x       y       z     vdW  Elec       q    Type
REMARK                         _______ _______ _______ _____ _____    ______ ____
ROOT
ATOM      1  C   UNL     1       3.795   3.006  -0.193  0.00  0.00    +0.142 A 
ATOM      2  N   UNL     1       4.377   1.819  -0.200  0.00  0.00    -0.216 NA
ATOM      3  C   UNL     1       3.694   0.699  -0.031  0.00  0.00    +0.128 A 
ATOM      4  C   UNL     1       2.287   0.769   0.165  0.00  0.00    +0.051 A 
ATOM      5  C   UNL     1       1.337  -0.330   0.373  0.00  0.00    -0.025 A 
ATOM      6  C   UNL     1       0.042   0.011   0.531  0.00  0.00    -0.004 A 
ATOM      7  S   UNL     1       0.009   1.782   0.422  0.00  0.00    -0.073 S 
ATOM      8  C   UNL     1       1.739   2.066   0.159  0.00  0.00    +0.114 A 
ATOM      9  N   UNL     1       2.494   3.134  -0.016  0.00  0.00    -0.224 NA
ATOM     10  C   UNL     1      -1.127  -0.901   0.738  0.00  0.00    +0.043 C 
ATOM     11  C   UNL     1      -0.797  -1.906   1.850  0.00  0.00    +0.005 C 
ATOM     12  C   UNL     1      -0.148  -3.130   1.212  0.00  0.00    +0.001 C 
ATOM     13  C   UNL     1       0.675  -2.711  -0.004  0.00  0.00    +0.005 C 
ATOM     14  C   UNL     1       1.808  -1.781   0.413  0.00  0.00    +0.037 C 
ATOM     15  N   UNL     1       4.340  -0.525  -0.045  0.00  0.00    -0.343 N 
ATOM     16  H   UNL     1       5.169  -0.630  -0.537  0.00  0.00    +0.144 HD
ATOM     17  H   UNL     1       3.963  -1.278   0.436  0.00  0.00    +0.144 HD
ENDROOT
BRANCH   1  18
ATOM     18  C   UNL     1       4.636   4.240  -0.392  0.00  0.00    +0.152 C 
BRANCH  18  19
ATOM     19  S   UNL     1       4.734   4.627  -2.161  0.00  0.00    -0.096 S 
BRANCH  19  29
ATOM     20  C   UNL     1      10.457  11.840  -3.578  0.00  0.00    +0.067 C 
ATOM     21  C   UNL     1       9.489  10.999  -2.785  0.00  0.00    +0.061 A 
ATOM     22  C   UNL     1       9.069  11.251  -1.474  0.00  0.00    +0.048 A 
ATOM     23  C   UNL     1       8.198  10.277  -1.121  0.00  0.00    +0.044 A 
ATOM     24  N   UNL     1       8.079   9.430  -2.175  0.00  0.00    -0.217 N 
ATOM     25  N   UNL     1       8.897   9.911  -3.206  0.00  0.00    -0.170 NA
ATOM     26  C   UNL     1       7.276   8.284  -2.226  0.00  0.00    +0.176 A 
ATOM     27  C   UNL     1       6.822   7.803  -3.454  0.00  0.00    +0.052 A 
ATOM     28  C   UNL     1       6.031   6.668  -3.455  0.00  0.00    +0.040 A 
ATOM     29  C   UNL     1       5.737   6.075  -2.226  0.00  0.00    +0.120 A 
ATOM     30  N   UNL     1       6.209   6.606  -1.108  0.00  0.00    -0.141 NA
ATOM     31  N   UNL     1       6.947   7.656  -1.110  0.00  0.00    -0.129 NA
ATOM     32  C   UNL     1       7.492  10.153   0.204  0.00  0.00    +0.066 C 
ENDBRANCH  19  29
ENDBRANCH  18  19
ENDBRANCH   1  18
TORSDOF 3
