REMARK  Name = ZINC13118063
REMARK  5 active torsions:
REMARK  status: ('A' for Active; 'I' for Inactive)
REMARK    1  A    between atoms: C_1  and  C_2
REMARK    2  A    between atoms: N_11  and  C_15
REMARK    3  A    between atoms: C_15  and  N_16
REMARK    4  A    between atoms: N_19  and  S_22
REMARK    5  A    between atoms: S_22  and  C_25
REMARK                            x       y       z     vdW  Elec       q    Type
REMARK                         _______ _______ _______ _____ _____    ______ ____
ROOT
ATOM      1  N   UNL     1       2.896   1.450  -1.403  0.00  0.00    -0.284 NA
ATOM      2  C   UNL     1       2.446   0.175  -1.976  0.00  0.00    +0.103 C 
ATOM      3  C   UNL     1       2.780   0.144  -3.471  0.00  0.00    +0.125 C 
ATOM      4  N   UNL     1       4.213   0.428  -3.635  0.00  0.00    -0.174 NA
ATOM      5  C   UNL     1       4.768   1.619  -2.974  0.00  0.00    +0.125 C 
ATOM      6  C   UNL     1       4.355   1.591  -1.498  0.00  0.00    +0.103 C 
ENDROOT
BRANCH   4   7
ATOM      7  S   UNL     1       5.178  -0.568  -4.541  0.00  0.00    +0.061 S 
ATOM      8  O   UNL     1       4.324  -1.238  -5.457  0.00  0.00    -0.153 OA
ATOM      9  O   UNL     1       6.285   0.216  -4.966  0.00  0.00    -0.153 OA
BRANCH   7  10
ATOM     10  C   UNL     1       5.820  -1.799  -3.457  0.00  0.00    +0.106 A 
ATOM     11  C   UNL     1       7.018  -1.588  -2.799  0.00  0.00    +0.029 A 
ATOM     12  C   UNL     1       7.512  -2.555  -1.949  0.00  0.00    +0.006 A 
ATOM     13  C   UNL     1       6.823  -3.746  -1.757  0.00  0.00    -0.044 A 
ATOM     14  C   UNL     1       5.632  -3.957  -2.415  0.00  0.00    -0.042 A 
ATOM     15  C   UNL     1       5.133  -2.980  -3.266  0.00  0.00    +0.032 A 
ATOM     16  C   UNL     1       4.826  -5.219  -2.248  0.00  0.00    +0.035 C 
ATOM     17  C   UNL     1       5.687  -6.331  -1.651  0.00  0.00    +0.005 C 
ATOM     18  C   UNL     1       6.378  -5.787  -0.395  0.00  0.00    +0.005 C 
ATOM     19  C   UNL     1       7.427  -4.764  -0.827  0.00  0.00    +0.035 C 
ENDBRANCH   7  10
ENDBRANCH   4   7
BRANCH   1  20
ATOM     20  C   UNL     1       2.443   1.592  -0.013  0.00  0.00    +0.205 C 
BRANCH  20  30
ATOM     21  C   UNL     1      -1.220   2.162  -2.475  0.00  0.00    +0.010 C 
ATOM     22  C   UNL     1      -2.069   1.879  -1.234  0.00  0.00    +0.018 C 
ATOM     23  C   UNL     1      -3.279   2.817  -1.219  0.00  0.00    +0.006 C 
ATOM     24  C   UNL     1      -4.116   2.547   0.033  0.00  0.00    +0.000 C 
ATOM     25  C   UNL     1      -3.268   2.804   1.280  0.00  0.00    +0.003 C 
ATOM     26  C   UNL     1      -2.058   1.866   1.276  0.00  0.00    +0.035 C 
ATOM     27  C   UNL     1      -1.230   2.107   0.018  0.00  0.00    +0.115 C 
ATOM     28  C   UNL     1      -0.014   1.208   0.009  0.00  0.00    +0.248 C 
ATOM     29  O   UNL     1       0.002  -0.004   0.002  0.00  0.00    -0.273 OA
ATOM     30  N   UNL     1       1.048   2.039   0.003  0.00  0.00    -0.211 N 
ATOM     31  C   UNL     1       0.670   3.323   0.013  0.00  0.00    +0.310 C 
ATOM     32  O   UNL     1       1.448   4.257   0.010  0.00  0.00    -0.252 OA
ATOM     33  N   UNL     1      -0.670   3.464   0.026  0.00  0.00    -0.285 N 
ATOM     34  H   UNL     1      -1.340   4.336   0.040  0.00  0.00    +0.151 HD
ENDBRANCH  20  30
ENDBRANCH   1  20
TORSDOF 4
