REMARK  Name = ZINC62815636
REMARK  3 active torsions:
REMARK  status: ('A' for Active; 'I' for Inactive)
REMARK    1  A    between atoms: C_1  and  C_2
REMARK    2  A    between atoms: C_6  and  C_10
REMARK    3  A    between atoms: N_12  and  C_13
REMARK                            x       y       z     vdW  Elec       q    Type
REMARK                         _______ _______ _______ _____ _____    ______ ____
ROOT
ATOM      1  C   UNL     1      -0.638  -4.011   1.159  0.00  0.00    +0.232 C 
ATOM      2  O   UNL     1      -0.832  -4.598   0.115  0.00  0.00    -0.274 OA
ATOM      3  N   UNL     1      -0.402  -4.707   2.289  0.00  0.00    -0.282 N 
ATOM      4  H   UNL     1      -0.183  -4.238   3.110  0.00  0.00    +0.155 HD
ENDROOT
BRANCH   1   9
ATOM      5  C   UNL     1       0.034   1.518  -0.001  0.00  0.00    -0.012 C 
ATOM      6  C   UNL     1       0.042  -0.012  -0.007  0.00  0.00    -0.061 C 
ATOM      7  C   UNL     1      -1.398  -0.530   0.003  0.00  0.00    +0.065 C 
ATOM      8  N   UNL     1      -1.386  -2.000   0.018  0.00  0.00    -0.309 NA
ATOM      9  C   UNL     1      -0.662  -2.505   1.192  0.00  0.00    +0.123 C 
ATOM     10  C   UNL     1       0.772  -1.970   1.173  0.00  0.00    -0.054 C 
ATOM     11  N   UNL     1       0.747  -0.502   1.185  0.00  0.00    +0.383 N 
ATOM     12  H   UNL     1      -2.325  -2.369  -0.015  0.00  0.00    +0.123 HD
ATOM     13  H   UNL     1       1.693  -0.150   1.184  0.00  0.00    -0.085 HD
ATOM     14  H   UNL     1       0.270  -0.181   2.014  0.00  0.00    -0.085 HD
ENDBRANCH   1   9
BRANCH   3  15
ATOM     15  C   UNL     1      -0.471  -6.105   2.278  0.00  0.00    +0.075 A 
ATOM     16  C   UNL     1      -0.071  -6.813   1.153  0.00  0.00    +0.064 A 
ATOM     17  C   UNL     1      -0.141  -8.194   1.144  0.00  0.00    +0.128 A 
ATOM     18  C   UNL     1      -0.609  -8.873   2.256  0.00  0.00    +0.079 A 
ATOM     19  C   UNL     1      -1.010  -8.171   3.380  0.00  0.00    +0.163 A 
ATOM     20  C   UNL     1      -0.936  -6.788   3.396  0.00  0.00    +0.180 A 
ATOM     21  F   UNL     1      -1.321  -6.102   4.495  0.00  0.00    -0.201 F 
ATOM     22  F   UNL     1      -1.467  -8.835   4.464  0.00  0.00    -0.202 F 
ATOM     23  F   UNL     1       0.249  -8.882   0.049  0.00  0.00    -0.205 F 
ENDBRANCH   3  15
TORSDOF 2
