REMARK  Name = ZINC20508911
REMARK  6 active torsions:
REMARK  status: ('A' for Active; 'I' for Inactive)
REMARK    1  A    between atoms: C_1  and  C_2
REMARK    2  A    between atoms: C_4  and  O_5
REMARK    3  A    between atoms: C_14  and  C_16
REMARK    4  A    between atoms: N_18  and  C_27
REMARK    5  A    between atoms: C_30  and  O_33
REMARK    6  A    between atoms: O_33  and  C_34
REMARK                            x       y       z     vdW  Elec       q    Type
REMARK                         _______ _______ _______ _____ _____    ______ ____
ROOT
ATOM      1  C   UNL     1       1.554   1.889  -1.002  0.00  0.00    +0.061 A 
ATOM      2  C   UNL     1       2.447   1.152  -0.283  0.00  0.00    +0.108 A 
ATOM      3  N   UNL     1       3.681   1.619   0.032  0.00  0.00    -0.283 N 
ATOM      4  C   UNL     1       4.110   2.839  -0.340  0.00  0.00    +0.263 A 
ATOM      5  O   UNL     1       5.227   3.215  -0.033  0.00  0.00    -0.267 OA
ATOM      6  C   UNL     1       3.224   3.714  -1.118  0.00  0.00    +0.048 A 
ATOM      7  C   UNL     1       1.939   3.236  -1.457  0.00  0.00    +0.001 A 
ATOM      8  C   UNL     1       1.073   4.042  -2.189  0.00  0.00    +0.009 A 
ATOM      9  C   UNL     1       1.483   5.298  -2.586  0.00  0.00    +0.001 A 
ATOM     10  C   UNL     1       2.748   5.766  -2.257  0.00  0.00    +0.001 A 
ATOM     11  C   UNL     1       3.619   4.986  -1.528  0.00  0.00    +0.014 A 
ENDROOT
BRANCH   1  24
ATOM     12  C   UNL     1      -6.195  -1.395  -2.781  0.00  0.00    +0.045 C 
ATOM     13  C   UNL     1      -4.909  -2.179  -2.814  0.00  0.00    -0.033 A 
ATOM     14  C   UNL     1      -4.884  -3.457  -3.275  0.00  0.00    +0.091 A 
ATOM     15  C   UNL     1      -3.668  -4.171  -3.297  0.00  0.00    +0.285 A 
ATOM     16  O   UNL     1      -2.519  -3.620  -2.873  0.00  0.00    -0.425 OA
ATOM     17  C   UNL     1      -2.476  -2.355  -2.402  0.00  0.00    +0.141 A 
ATOM     18  C   UNL     1      -3.654  -1.585  -2.352  0.00  0.00    +0.021 A 
ATOM     19  C   UNL     1      -3.613  -0.273  -1.867  0.00  0.00    +0.013 A 
ATOM     20  C   UNL     1      -2.431   0.255  -1.437  0.00  0.00    +0.024 A 
ATOM     21  C   UNL     1      -1.259  -0.500  -1.489  0.00  0.00    +0.037 A 
ATOM     22  C   UNL     1      -1.282  -1.802  -1.968  0.00  0.00    +0.070 A 
ATOM     23  N   UNL     1      -0.058   0.056  -1.052  0.00  0.00    -0.281 N 
ATOM     24  C   UNL     1       0.226   1.345  -1.323  0.00  0.00    +0.250 C 
ATOM     25  O   UNL     1      -0.619   2.061  -1.828  0.00  0.00    -0.270 OA
ATOM     26  H   UNL     1       0.659  -0.558  -0.487  0.00  0.00    +0.155 HD
BRANCH  15  27
ATOM     27  O   UNL     1      -3.659  -5.315  -3.713  0.00  0.00    -0.480 OA
ATOM     28  H   UNL     1      -2.718  -5.885  -3.737  0.00  0.00    +0.295 HD
ENDBRANCH  15  27
ENDBRANCH   1  24
BRANCH   3  29
ATOM     29  C   UNL     1       4.542   0.799   0.774  0.00  0.00    +0.050 A 
ATOM     30  C   UNL     1       5.696   0.295   0.190  0.00  0.00    +0.030 A 
ATOM     31  C   UNL     1       6.546  -0.509   0.923  0.00  0.00    +0.047 A 
ATOM     32  C   UNL     1       6.242  -0.822   2.240  0.00  0.00    +0.120 A 
ATOM     33  C   UNL     1       5.085  -0.323   2.823  0.00  0.00    +0.047 A 
ATOM     34  C   UNL     1       4.237   0.485   2.093  0.00  0.00    +0.030 A 
BRANCH  32  35
ATOM     35  O   UNL     1       7.077  -1.617   2.960  0.00  0.00    -0.495 OA
ATOM     36  C   UNL     1       8.249  -2.095   2.297  0.00  0.00    +0.277 C 
ENDBRANCH  32  35
ENDBRANCH   3  29
TORSDOF 4
