REMARK  Name = ZINC01574064
REMARK  14 active torsions:
REMARK  status: ('A' for Active; 'I' for Inactive)
REMARK    1  A    between atoms: C_1  and  C_2
REMARK    2  A    between atoms: C_3  and  O_35
REMARK    3  A    between atoms: C_9  and  O_13
REMARK    4  A    between atoms: C_11  and  O_12
REMARK    5  A    between atoms: C_16  and  O_34
REMARK    6  A    between atoms: C_18  and  C_21
REMARK    7  A    between atoms: C_21  and  C_23
REMARK    8  A    between atoms: C_21  and  O_32
REMARK    9  A    between atoms: C_23  and  C_25
REMARK   10  A    between atoms: C_25  and  C_27
REMARK   11  A    between atoms: C_25  and  O_31
REMARK   12  A    between atoms: C_27  and  C_29
REMARK   13  A    between atoms: C_27  and  O_30
REMARK   14  A    between atoms: O_32  and  C_33
REMARK                            x       y       z     vdW  Elec       q    Type
REMARK                         _______ _______ _______ _____ _____    ______ ____
ROOT
ATOM      1  C   UNL     1      -0.018   1.503   0.010  0.00  0.00    +0.051 C 
ATOM      2  C   UNL     1       0.002  -0.004   0.002  0.00  0.00    +0.033 A 
ATOM      3  C   UNL     1       0.006  -0.689  -1.214  0.00  0.00    +0.124 A 
ATOM      4  C   UNL     1       0.024  -2.067  -1.248  0.00  0.00    +0.054 A 
ATOM      5  C   UNL     1       0.039  -2.796  -0.051  0.00  0.00    -0.007 A 
ATOM      6  C   UNL     1       0.053  -4.205  -0.063  0.00  0.00    +0.013 A 
ATOM      7  C   UNL     1       0.068  -4.909   1.099  0.00  0.00    -0.032 A 
ATOM      8  C   UNL     1       0.074  -4.232   2.336  0.00  0.00    +0.065 A 
ATOM      9  C   UNL     1       0.056  -2.834   2.385  0.00  0.00    +0.139 A 
ATOM     10  C   UNL     1       0.037  -2.102   1.185  0.00  0.00    +0.066 A 
ATOM     11  C   UNL     1       0.023  -0.692   1.194  0.00  0.00    +0.134 A 
ATOM     12  C   UNL     1       0.104  -4.994   3.591  0.00  0.00    +0.195 C 
ATOM     13  O   UNL     1       0.322  -4.446   4.652  0.00  0.00    -0.289 OA
ATOM     14  C   UNL     1      -0.145  -6.485   3.517  0.00  0.00    +0.192 C 
ATOM     15  C   UNL     1       0.637  -7.022   2.311  0.00  0.00    +0.066 C 
ATOM     16  C   UNL     1       0.074  -6.413   1.030  0.00  0.00    +0.045 C 
ENDROOT
BRANCH  11  17
ATOM     17  O   UNL     1       0.024  -0.018   2.371  0.00  0.00    -0.506 OA
ATOM     18  H   UNL     1      -0.858   0.166   2.721  0.00  0.00    +0.292 HD
ENDBRANCH  11  17
BRANCH   9  19
ATOM     19  O   UNL     1       0.056  -2.193   3.577  0.00  0.00    -0.505 OA
ATOM     20  H   UNL     1       0.939  -1.995   3.917  0.00  0.00    +0.292 HD
ENDBRANCH   9  19
BRANCH  14  21
ATOM     21  O   UNL     1      -1.541  -6.736   3.343  0.00  0.00    -0.384 OA
ATOM     22  H   UNL     1      -2.095  -6.393   4.057  0.00  0.00    +0.210 HD
ENDBRANCH  14  21
BRANCH   3  23
ATOM     23  O   UNL     1      -0.009   0.011  -2.378  0.00  0.00    -0.506 OA
ATOM     24  H   UNL     1       0.870   0.225  -2.719  0.00  0.00    +0.292 HD
ENDBRANCH   3  23
BRANCH  15  25
ATOM     25  C   UNL     1       0.504  -8.546   2.254  0.00  0.00    +0.193 C 
BRANCH  25  26
ATOM     26  C   UNL     1       1.058  -9.146   3.521  0.00  0.00    +0.193 C 
ATOM     27  O   UNL     1       0.308  -9.571   4.366  0.00  0.00    -0.292 OA
BRANCH  26  28
ATOM     28  C   UNL     1       2.549  -9.217   3.732  0.00  0.00    +0.211 C 
BRANCH  28  29
ATOM     29  C   UNL     1       3.134 -10.333   2.865  0.00  0.00    +0.147 C 
ATOM     30  C   UNL     1       4.625 -10.488   3.171  0.00  0.00    +0.041 C 
BRANCH  29  31
ATOM     31  O   UNL     1       2.460 -11.560   3.149  0.00  0.00    -0.389 OA
ATOM     32  H   UNL     1       2.534 -11.846   4.070  0.00  0.00    +0.210 HD
ENDBRANCH  29  31
ENDBRANCH  28  29
BRANCH  28  33
ATOM     33  O   UNL     1       2.822  -9.489   5.107  0.00  0.00    -0.382 OA
ATOM     34  H   UNL     1       2.450 -10.322   5.425  0.00  0.00    +0.210 HD
ENDBRANCH  28  33
ENDBRANCH  26  28
ENDBRANCH  25  26
BRANCH  25  35
ATOM     35  O   UNL     1      -0.874  -8.899   2.123  0.00  0.00    -0.372 OA
ATOM     36  C   UNL     1      -1.097 -10.118   1.412  0.00  0.00    +0.194 C 
ENDBRANCH  25  35
ENDBRANCH  15  25
TORSDOF 11
