REMARK  Name = ZINC02158391
REMARK  10 active torsions:
REMARK  status: ('A' for Active; 'I' for Inactive)
REMARK    1  A    between atoms: C_1  and  C_2
REMARK    2  A    between atoms: C_2  and  C_3
REMARK    3  A    between atoms: C_2  and  C_4
REMARK    4  A    between atoms: C_2  and  C_18
REMARK    5  A    between atoms: C_4  and  C_5
REMARK    6  A    between atoms: N_7  and  C_8
REMARK    7  A    between atoms: C_9  and  C_16
REMARK    8  A    between atoms: C_18  and  C_19
REMARK    9  A    between atoms: N_21  and  C_22
REMARK   10  A    between atoms: C_23  and  C_30
REMARK                            x       y       z     vdW  Elec       q    Type
REMARK                         _______ _______ _______ _____ _____    ______ ____
ROOT
ATOM      1  C   UNL     1       2.399   0.114   1.229  0.00  0.00    +0.012 C 
ATOM      2  C   UNL     1       2.457   1.002  -0.016  0.00  0.00    -0.018 C 
ATOM      3  C   UNL     1       2.376   0.128  -1.269  0.00  0.00    +0.012 C 
ENDROOT
BRANCH   2   4
ATOM      4  C   UNL     1       1.280   1.980   0.001  0.00  0.00    +0.103 C 
BRANCH   4   5
ATOM      5  C   UNL     1      -0.014   1.209   0.009  0.00  0.00    +0.218 C 
ATOM      6  O   UNL     1       0.002  -0.004   0.002  0.00  0.00    -0.275 OA
ATOM      7  N   UNL     1      -1.191   1.867   0.018  0.00  0.00    -0.279 N 
ATOM      8  H   UNL     1      -1.204   2.836   0.023  0.00  0.00    +0.155 HD
BRANCH   7   9
ATOM      9  C   UNL     1      -2.381   1.157   0.020  0.00  0.00    +0.086 A 
ATOM     10  C   UNL     1      -3.676   1.649   0.034  0.00  0.00    +0.095 A 
ATOM     11  C   UNL     1      -4.770   0.677   0.030  0.00  0.00    -0.021 A 
ATOM     12  C   UNL     1      -4.387  -0.613   0.021  0.00  0.00    -0.004 A 
ATOM     13  S   UNL     1      -2.612  -0.558   0.012  0.00  0.00    -0.077 S 
ATOM     14  C   UNL     1      -5.564  -1.550   0.019  0.00  0.00    +0.043 C 
ATOM     15  C   UNL     1      -6.761  -0.672  -0.408  0.00  0.00    +0.010 C 
ATOM     16  C   UNL     1      -6.298   0.729   0.040  0.00  0.00    +0.037 C 
BRANCH  10  17
ATOM     17  C   UNL     1      -3.942   3.089   0.049  0.00  0.00    +0.389 C 
ATOM     18  O   UNL     1      -4.060   3.697  -0.998  0.00  0.00    -0.240 OA
ATOM     19  O   UNL     1      -4.054   3.742   1.224  0.00  0.00    -0.240 OA
ENDBRANCH  10  17
ENDBRANCH   7   9
ENDBRANCH   4   5
ENDBRANCH   2   4
BRANCH   2  20
ATOM     20  C   UNL     1       3.771   1.784  -0.024  0.00  0.00    +0.103 C 
BRANCH  20  21
ATOM     21  C   UNL     1       4.930   0.821  -0.041  0.00  0.00    +0.218 C 
ATOM     22  O   UNL     1       4.724  -0.374  -0.045  0.00  0.00    -0.275 OA
ATOM     23  N   UNL     1       6.194   1.287  -0.050  0.00  0.00    -0.279 N 
ATOM     24  H   UNL     1       6.358   2.243  -0.047  0.00  0.00    +0.155 HD
BRANCH  23  25
ATOM     25  C   UNL     1       7.260   0.401  -0.065  0.00  0.00    +0.086 A 
ATOM     26  C   UNL     1       8.616   0.685  -0.082  0.00  0.00    +0.095 A 
ATOM     27  C   UNL     1       9.543  -0.446  -0.093  0.00  0.00    -0.021 A 
ATOM     28  C   UNL     1       8.965  -1.660  -0.093  0.00  0.00    -0.004 A 
ATOM     29  S   UNL     1       7.220  -1.329  -0.075  0.00  0.00    -0.077 S 
ATOM     30  C   UNL     1       9.981  -2.769  -0.107  0.00  0.00    +0.043 C 
ATOM     31  C   UNL     1      11.302  -2.093   0.322  0.00  0.00    +0.010 C 
ATOM     32  C   UNL     1      11.061  -0.633  -0.111  0.00  0.00    +0.037 C 
BRANCH  26  33
ATOM     33  C   UNL     1       9.102   2.066  -0.085  0.00  0.00    +0.389 C 
ATOM     34  O   UNL     1       9.318   2.637   0.967  0.00  0.00    -0.240 OA
ATOM     35  O   UNL     1       9.310   2.705  -1.255  0.00  0.00    -0.240 OA
ENDBRANCH  26  33
ENDBRANCH  23  25
ENDBRANCH  20  21
ENDBRANCH   2  20
TORSDOF 8
