REMARK  Name = ZINC23325596
REMARK  8 active torsions:
REMARK  status: ('A' for Active; 'I' for Inactive)
REMARK    1  A    between atoms: C_1  and  C_2
REMARK    2  A    between atoms: C_2  and  N_3
REMARK    3  A    between atoms: N_6  and  S_9
REMARK    4  A    between atoms: S_9  and  C_12
REMARK    5  A    between atoms: C_15  and  O_33
REMARK    6  A    between atoms: C_16  and  N_18
REMARK    7  A    between atoms: C_24  and  C_26
REMARK    8  A    between atoms: O_33  and  C_34
REMARK                            x       y       z     vdW  Elec       q    Type
REMARK                         _______ _______ _______ _____ _____    ______ ____
ROOT
ATOM      1  C   UNL     1      -2.148  -3.436   3.331  0.00  0.00    +0.107 A 
ATOM      2  C   UNL     1      -1.241  -4.456   3.550  0.00  0.00    +0.032 A 
ATOM      3  C   UNL     1       0.108  -4.246   3.332  0.00  0.00    +0.049 A 
ATOM      4  C   UNL     1       0.554  -3.013   2.887  0.00  0.00    +0.141 A 
ATOM      5  C   UNL     1      -0.358  -1.982   2.671  0.00  0.00    +0.074 A 
ATOM      6  C   UNL     1      -1.710  -2.201   2.892  0.00  0.00    +0.055 A 
ENDROOT
BRANCH   5   7
ATOM      7  N   UNL     1       0.087  -0.732   2.227  0.00  0.00    -0.324 N 
ATOM      8  C   UNL     1       0.907  -0.071   3.251  0.00  0.00    +0.124 C 
ATOM      9  C   UNL     1       1.522   1.204   2.663  0.00  0.00    +0.127 C 
ATOM     10  N   UNL     1       0.440   2.030   2.105  0.00  0.00    -0.295 N 
ATOM     11  C   UNL     1      -0.507   1.398   1.174  0.00  0.00    +0.127 C 
ATOM     12  C   UNL     1      -1.042   0.115   1.820  0.00  0.00    +0.124 C 
ATOM     13  C   UNL     1       0.321   3.330   2.436  0.00  0.00    +0.247 C 
ATOM     14  O   UNL     1      -0.639   3.970   2.054  0.00  0.00    -0.270 OA
BRANCH  13  15
ATOM     15  C   UNL     1       1.358   3.980   3.265  0.00  0.00    +0.037 A 
ATOM     16  C   UNL     1       2.671   3.504   3.245  0.00  0.00    +0.014 A 
ATOM     17  C   UNL     1       3.635   4.118   4.016  0.00  0.00    +0.021 A 
ATOM     18  C   UNL     1       3.302   5.197   4.817  0.00  0.00    +0.041 A 
ATOM     19  C   UNL     1       2.000   5.670   4.846  0.00  0.00    +0.021 A 
ATOM     20  C   UNL     1       1.028   5.068   4.075  0.00  0.00    +0.014 A 
ATOM     21 CL   UNL     1       4.521   5.961   5.790  0.00  0.00    -0.084 Cl
ENDBRANCH  13  15
ENDBRANCH   5   7
BRANCH   1  22
ATOM     22  S   UNL     1      -3.865  -3.712   3.611  0.00  0.00    +0.061 S 
ATOM     23  O   UNL     1      -3.958  -4.783   4.540  0.00  0.00    -0.153 OA
ATOM     24  O   UNL     1      -4.446  -2.438   3.856  0.00  0.00    -0.153 OA
BRANCH  22  28
ATOM     25  N   UNL     1      -4.633  -5.065  -0.477  0.00  0.00    +0.381 N 
ATOM     26  C   UNL     1      -3.952  -5.927   0.498  0.00  0.00    -0.061 C 
ATOM     27  C   UNL     1      -4.558  -5.700   1.887  0.00  0.00    +0.091 C 
ATOM     28  N   UNL     1      -4.511  -4.262   2.189  0.00  0.00    -0.180 NA
ATOM     29  C   UNL     1      -5.058  -3.324   1.196  0.00  0.00    +0.091 C 
ATOM     30  C   UNL     1      -4.427  -3.644  -0.168  0.00  0.00    -0.061 C 
ATOM     31  H   UNL     1      -5.712  -5.269  -0.407  0.00  0.00    -0.082 HD
BRANCH  25  33
ATOM     32  C   UNL     1      -5.102  -4.643  -2.843  0.00  0.00    -0.017 C 
ATOM     33  C   UNL     1      -4.201  -5.375  -1.846  0.00  0.00    -0.082 C 
ENDBRANCH  25  33
ENDBRANCH  22  28
ENDBRANCH   1  22
BRANCH   4  34
ATOM     34  O   UNL     1       1.880  -2.806   2.666  0.00  0.00    -0.493 OA
ATOM     35  C   UNL     1       2.758  -3.908   2.908  0.00  0.00    +0.277 C 
ENDBRANCH   4  34
TORSDOF 6
