REMARK  Name = ZINC32101273
REMARK  5 active torsions:
REMARK  status: ('A' for Active; 'I' for Inactive)
REMARK    1  A    between atoms: C_6  and  C_7
REMARK    2  A    between atoms: C_10  and  C_12
REMARK    3  A    between atoms: C_10  and  O_16
REMARK    4  A    between atoms: C_17  and  C_19
REMARK    5  A    between atoms: C_22  and  N_25
REMARK                            x       y       z     vdW  Elec       q    Type
REMARK                         _______ _______ _______ _____ _____    ______ ____
ROOT
ATOM      1  C   UNL     1       1.154   1.930   0.019  0.00  0.00    +0.071 C 
ATOM      2  N   UNL     1      -0.015   1.389   0.017  0.00  0.00    -0.178 NA
ATOM      3  N   UNL     1       0.003  -0.005   0.011  0.00  0.00    -0.148 N 
ATOM      4  C   UNL     1       1.401  -0.463   0.009  0.00  0.00    +0.257 C 
ATOM      5  C   UNL     1       2.211   0.849   0.014  0.00  0.00    +0.124 C 
ATOM      6  C   UNL     1      -1.083  -0.803   0.008  0.00  0.00    +0.269 C 
ATOM      7  O   UNL     1      -0.953  -2.007  -0.099  0.00  0.00    -0.268 OA
ENDROOT
BRANCH   1  13
ATOM      8  C   UNL     1       2.734   3.853   0.031  0.00  0.00    +0.011 A 
ATOM      9  C   UNL     1       2.976   5.210   0.030  0.00  0.00    +0.016 A 
ATOM     10  C   UNL     1       1.919   6.105   0.033  0.00  0.00    +0.018 A 
ATOM     11  C   UNL     1       0.613   5.644   0.032  0.00  0.00    +0.016 A 
ATOM     12  C   UNL     1       0.358   4.288   0.028  0.00  0.00    +0.011 A 
ATOM     13  C   UNL     1       1.419   3.381   0.024  0.00  0.00    -0.002 A 
ATOM     14 BR   UNL     1       2.260   7.965   0.040  0.00  0.00    -0.050 Br
ENDBRANCH   1  13
BRANCH   6  15
ATOM     15  C   UNL     1      -2.433  -0.214   0.135  0.00  0.00    +0.039 A 
ATOM     16  C   UNL     1      -2.595   1.172   0.150  0.00  0.00    +0.015 A 
ATOM     17  C   UNL     1      -3.858   1.715   0.263  0.00  0.00    +0.033 A 
ATOM     18  C   UNL     1      -4.962   0.888   0.373  0.00  0.00    +0.126 A 
ATOM     19  C   UNL     1      -4.809  -0.487   0.365  0.00  0.00    +0.033 A 
ATOM     20  C   UNL     1      -3.551  -1.043   0.247  0.00  0.00    +0.015 A 
BRANCH  18  21
ATOM     21  N   UNL     1      -6.314   1.478   0.501  0.00  0.00    +0.056 N 
ATOM     22  O   UNL     1      -7.288   0.752   0.598  0.00  0.00    -0.126 OA
ATOM     23  O   UNL     1      -6.453   2.688   0.508  0.00  0.00    -0.126 OA
ENDBRANCH  18  21
ENDBRANCH   6  15
BRANCH   4  24
ATOM     24  C   UNL     1       1.701  -1.285   1.264  0.00  0.00    +0.438 C 
ATOM     25  F   UNL     1       0.881  -2.419   1.284  0.00  0.00    -0.166 F 
ATOM     26  F   UNL     1       3.043  -1.679   1.253  0.00  0.00    -0.166 F 
ATOM     27  F   UNL     1       1.451  -0.509   2.400  0.00  0.00    -0.166 F 
ENDBRANCH   4  24
BRANCH   4  28
ATOM     28  O   UNL     1       1.680  -1.221  -1.170  0.00  0.00    -0.363 OA
ATOM     29  H   UNL     1       2.685  -1.639  -1.330  0.00  0.00    +0.212 HD
ENDBRANCH   4  28
TORSDOF 5
