REMARK  Name = ZINC02114389
REMARK  5 active torsions:
REMARK  status: ('A' for Active; 'I' for Inactive)
REMARK    1  A    between atoms: C_1  and  C_2
REMARK    2  A    between atoms: C_5  and  O_27
REMARK    3  A    between atoms: C_18  and  C_26
REMARK    4  A    between atoms: C_23  and  C_24
REMARK    5  A    between atoms: C_23  and  O_25
REMARK                            x       y       z     vdW  Elec       q    Type
REMARK                         _______ _______ _______ _____ _____    ______ ____
ROOT
ATOM      1  C   UNL     1      -0.297   2.215  -1.926  0.00  0.00    +0.012 C 
ATOM      2  C   UNL     1      -0.589   0.717  -1.820  0.00  0.00    -0.026 C 
ATOM      3  C   UNL     1      -0.160   0.026  -3.113  0.00  0.00    +0.010 C 
ATOM      4  C   UNL     1       1.338   0.243  -3.336  0.00  0.00    +0.032 C 
ATOM      5  C   UNL     1       2.119  -0.345  -2.160  0.00  0.00    +0.115 C 
ATOM      6  C   UNL     1       1.690   0.348  -0.865  0.00  0.00    +0.035 C 
ATOM      7  C   UNL     1       0.192   0.130  -0.642  0.00  0.00    -0.002 C 
ATOM      8  C   UNL     1      -0.238   0.827   0.651  0.00  0.00    +0.004 C 
ATOM      9  C   UNL     1      -1.736   0.603   0.873  0.00  0.00    +0.004 C 
ATOM     10  C   UNL     1      -2.526   1.187  -0.302  0.00  0.00    -0.004 C 
ATOM     11  C   UNL     1      -2.086   0.514  -1.601  0.00  0.00    -0.001 C 
ATOM     12  C   UNL     1      -2.400  -0.982  -1.497  0.00  0.00    +0.005 C 
ATOM     13  C   UNL     1      -3.901  -1.153  -1.403  0.00  0.00    +0.010 C 
ATOM     14  C   UNL     1      -4.444  -0.484  -0.139  0.00  0.00    -0.000 C 
ATOM     15  C   UNL     1      -4.005   0.989  -0.063  0.00  0.00    +0.001 C 
ATOM     16  C   UNL     1      -4.872   1.663  -1.143  0.00  0.00    +0.007 C 
ATOM     17  C   UNL     1      -6.248   0.986  -0.979  0.00  0.00    +0.035 C 
ATOM     18  C   UNL     1      -5.982  -0.379  -0.318  0.00  0.00    +0.069 C 
ATOM     19  C   UNL     1      -6.677  -0.449   1.043  0.00  0.00    +0.042 C 
ATOM     20  C   UNL     1      -4.048  -1.257   1.121  0.00  0.00    +0.014 C 
ENDROOT
BRANCH  18  21
ATOM     21  O   UNL     1      -6.451  -1.433  -1.162  0.00  0.00    -0.388 OA
ATOM     22  H   UNL     1      -7.406  -1.421  -1.313  0.00  0.00    +0.210 HD
ENDBRANCH  18  21
BRANCH   5  23
ATOM     23  O   UNL     1       1.851  -1.745  -2.062  0.00  0.00    -0.392 OA
ATOM     24  H   UNL     1       2.099  -2.249  -2.850  0.00  0.00    +0.210 HD
ENDBRANCH   5  23
TORSDOF 2
