REMARK  Name = ZINC09429509
REMARK  8 active torsions:
REMARK  status: ('A' for Active; 'I' for Inactive)
REMARK    1  A    between atoms: C_1  and  C_2
REMARK    2  A    between atoms: C_5  and  N_9
REMARK    3  A    between atoms: C_6  and  C_8
REMARK    4  A    between atoms: C_10  and  C_12
REMARK    5  A    between atoms: N_17  and  S_19
REMARK    6  A    between atoms: S_19  and  C_22
REMARK    7  A    between atoms: C_29  and  C_37
REMARK    8  A    between atoms: C_32  and  C_34
REMARK                            x       y       z     vdW  Elec       q    Type
REMARK                         _______ _______ _______ _____ _____    ______ ____
ROOT
ATOM      1  C   UNL     1       7.425  -7.162  -2.652  0.00  0.00    +0.091 C 
ATOM      2  C   UNL     1       6.210  -7.859  -3.269  0.00  0.00    +0.015 C 
ATOM      3  C   UNL     1       5.532  -6.918  -4.268  0.00  0.00    +0.018 C 
ATOM      4  C   UNL     1       5.049  -5.663  -3.534  0.00  0.00    +0.109 C 
ATOM      5  N   UNL     1       6.185  -5.066  -2.818  0.00  0.00    -0.176 NA
ATOM      6  C   UNL     1       6.966  -5.911  -1.904  0.00  0.00    +0.122 C 
ENDROOT
BRANCH   1   8
ATOM      7  N   UNL     1       8.599  -9.276  -2.135  0.00  0.00    -0.285 N 
ATOM      8  C   UNL     1       8.110  -8.101  -1.693  0.00  0.00    +0.222 C 
ATOM      9  O   UNL     1       8.222  -7.798  -0.524  0.00  0.00    -0.275 OA
ATOM     10  H   UNL     1       8.437  -9.556  -3.050  0.00  0.00    +0.155 HD
BRANCH   7  15
ATOM     11  C   UNL     1      11.607 -12.589   1.353  0.00  0.00    +0.044 C 
ATOM     12  C   UNL     1      10.807 -11.709   0.427  0.00  0.00    -0.050 A 
ATOM     13  C   UNL     1      10.736 -10.347   0.659  0.00  0.00    +0.005 A 
ATOM     14  C   UNL     1      10.005  -9.538  -0.188  0.00  0.00    +0.024 A 
ATOM     15  C   UNL     1       9.341 -10.093  -1.275  0.00  0.00    +0.036 A 
ATOM     16  C   UNL     1       9.410 -11.461  -1.502  0.00  0.00    -0.029 A 
ATOM     17  C   UNL     1      10.148 -12.264  -0.654  0.00  0.00    +0.008 A 
ATOM     18  C   UNL     1       8.686 -12.069  -2.676  0.00  0.00    +0.045 C 
ENDBRANCH   7  15
ENDBRANCH   1   8
BRANCH   5  19
ATOM     19  S   UNL     1       6.582  -3.474  -3.043  0.00  0.00    +0.061 S 
ATOM     20  O   UNL     1       6.072  -3.104  -4.316  0.00  0.00    -0.153 OA
ATOM     21  O   UNL     1       7.957  -3.347  -2.707  0.00  0.00    -0.153 OA
BRANCH  19  22
ATOM     22  C   UNL     1       5.683  -2.540  -1.849  0.00  0.00    +0.106 A 
ATOM     23  C   UNL     1       4.424  -2.055  -2.153  0.00  0.00    +0.030 A 
ATOM     24  C   UNL     1       3.719  -1.324  -1.222  0.00  0.00    +0.026 A 
ATOM     25  C   UNL     1       4.267  -1.072   0.037  0.00  0.00    +0.040 A 
ATOM     26  C   UNL     1       5.532  -1.556   0.330  0.00  0.00    -0.022 A 
ATOM     27  C   UNL     1       6.235  -2.289  -0.607  0.00  0.00    +0.034 A 
ATOM     28  C   UNL     1       5.891  -1.143   1.739  0.00  0.00    +0.059 C 
ATOM     29  C   UNL     1       4.673  -0.345   2.231  0.00  0.00    +0.083 C 
ATOM     30  N   UNL     1       3.729  -0.355   1.111  0.00  0.00    -0.268 N 
ATOM     31  C   UNL     1       2.517   0.236   1.115  0.00  0.00    +0.223 C 
ATOM     32  O   UNL     1       1.762   0.077   0.180  0.00  0.00    -0.275 OA
ATOM     33  C   UNL     1       4.052  -1.025   3.454  0.00  0.00    +0.029 C 
BRANCH  31  34
ATOM     34  C   UNL     1       2.102   1.093   2.283  0.00  0.00    +0.076 C 
ATOM     35  C   UNL     1       0.759   1.819   2.184  0.00  0.00    +0.013 C 
ATOM     36  C   UNL     1       2.065   2.608   2.070  0.00  0.00    +0.013 C 
ENDBRANCH  31  34
ENDBRANCH  19  22
ENDBRANCH   5  19
TORSDOF 5
