REMARK  Name = ZINC06310779
REMARK  18 active torsions:
REMARK  status: ('A' for Active; 'I' for Inactive)
REMARK    1  A    between atoms: C_1  and  C_2
REMARK    2  A    between atoms: C_2  and  C_3
REMARK    3  A    between atoms: C_3  and  C_4
REMARK    4  A    between atoms: C_4  and  C_5
REMARK    5  A    between atoms: C_5  and  C_7
REMARK    6  A    between atoms: C_5  and  C_9
REMARK    7  A    between atoms: C_7  and  C_8
REMARK    8  A    between atoms: N_11  and  C_12
REMARK    9  A    between atoms: C_15  and  S_18
REMARK   10  A    between atoms: S_18  and  N_21
REMARK   11  A    between atoms: N_21  and  C_22
REMARK   12  A    between atoms: N_21  and  C_26
REMARK   13  A    between atoms: C_22  and  C_23
REMARK   14  A    between atoms: C_23  and  C_24
REMARK   15  A    between atoms: C_24  and  C_25
REMARK   16  A    between atoms: C_26  and  C_27
REMARK   17  A    between atoms: C_27  and  C_28
REMARK   18  A    between atoms: C_28  and  C_29
REMARK                            x       y       z     vdW  Elec       q    Type
REMARK                         _______ _______ _______ _____ _____    ______ ____
ROOT
ATOM      1  C   UNL     1       1.868  -6.059   3.474  0.00  0.00    +0.034 A 
ATOM      2  C   UNL     1       1.405  -6.656   2.309  0.00  0.00    +0.025 A 
ATOM      3  C   UNL     1       1.335  -8.033   2.221  0.00  0.00    +0.030 A 
ATOM      4  C   UNL     1       1.724  -8.816   3.292  0.00  0.00    +0.106 A 
ATOM      5  C   UNL     1       2.185  -8.225   4.454  0.00  0.00    +0.030 A 
ATOM      6  C   UNL     1       2.264  -6.849   4.545  0.00  0.00    +0.025 A 
ENDROOT
BRANCH   1   9
ATOM      7  C   UNL     1       1.013  -3.900   2.956  0.00  0.00    +0.220 C 
ATOM      8  O   UNL     1       0.065  -4.419   2.407  0.00  0.00    -0.275 OA
ATOM      9  N   UNL     1       1.940  -4.665   3.566  0.00  0.00    -0.285 N 
ATOM     10  H   UNL     1       2.658  -4.248   4.069  0.00  0.00    +0.155 HD
BRANCH   7  11
ATOM     11  C   UNL     1       1.155  -2.400   2.956  0.00  0.00    +0.075 C 
BRANCH  11  12
ATOM     12  C   UNL     1       2.466  -2.011   2.268  0.00  0.00    +0.009 C 
ATOM     13  C   UNL     1       2.682  -0.502   2.397  0.00  0.00    +0.004 C 
ENDBRANCH  11  12
BRANCH  11  14
ATOM     14  C   UNL     1      -0.021  -1.776   2.202  0.00  0.00    +0.013 C 
BRANCH  14  15
ATOM     15  C   UNL     1      -1.316  -2.030   2.977  0.00  0.00    +0.000 C 
BRANCH  15  17
ATOM     16  C   UNL     1      -3.767  -1.555   3.065  0.00  0.00    +0.004 C 
ATOM     17  C   UNL     1      -2.472  -1.301   2.291  0.00  0.00    -0.003 C 
ENDBRANCH  15  17
ENDBRANCH  14  15
ENDBRANCH  11  14
ENDBRANCH   7  11
ENDBRANCH   1   9
BRANCH   4  18
ATOM     18  S   UNL     1       1.633 -10.572   3.176  0.00  0.00    +0.061 S 
ATOM     19  O   UNL     1       1.540 -11.062   4.506  0.00  0.00    -0.153 OA
ATOM     20  O   UNL     1       0.656 -10.863   2.186  0.00  0.00    -0.153 OA
BRANCH  18  21
ATOM     21  N   UNL     1       3.084 -11.099   2.577  0.00  0.00    -0.177 NA
BRANCH  21  22
ATOM     22  C   UNL     1       4.177 -11.434   3.494  0.00  0.00    +0.109 C 
BRANCH  22  23
ATOM     23  C   UNL     1       4.162 -12.938   3.777  0.00  0.00    +0.017 C 
BRANCH  23  24
ATOM     24  C   UNL     1       5.303 -13.287   4.735  0.00  0.00    -0.002 C 
ATOM     25  C   UNL     1       5.289 -14.791   5.018  0.00  0.00    +0.004 C 
ENDBRANCH  23  24
ENDBRANCH  22  23
ENDBRANCH  21  22
BRANCH  21  26
ATOM     26  C   UNL     1       3.276 -11.231   1.131  0.00  0.00    +0.109 C 
BRANCH  26  27
ATOM     27  C   UNL     1       3.928  -9.959   0.585  0.00  0.00    +0.017 C 
BRANCH  27  28
ATOM     28  C   UNL     1       4.127 -10.097  -0.926  0.00  0.00    -0.002 C 
ATOM     29  C   UNL     1       4.779  -8.825  -1.472  0.00  0.00    +0.004 C 
ENDBRANCH  27  28
ENDBRANCH  26  27
ENDBRANCH  21  26
ENDBRANCH  18  21
ENDBRANCH   4  18
TORSDOF 14
