REMARK  Name = ZINC25604293
REMARK  7 active torsions:
REMARK  status: ('A' for Active; 'I' for Inactive)
REMARK    1  A    between atoms: C_1  and  C_2
REMARK    2  A    between atoms: C_2  and  O_3
REMARK    3  A    between atoms: O_3  and  C_4
REMARK    4  A    between atoms: N_13  and  C_14
REMARK    5  A    between atoms: C_14  and  C_16
REMARK    6  A    between atoms: C_16  and  N_17
REMARK    7  A    between atoms: C_23  and  C_25
REMARK                            x       y       z     vdW  Elec       q    Type
REMARK                         _______ _______ _______ _____ _____    ______ ____
ROOT
ATOM      1  C   UNL     1      -3.517  -8.729   0.377  0.00  0.00    +0.252 C 
ATOM      2  O   UNL     1      -2.329  -8.513   0.232  0.00  0.00    -0.272 OA
ENDROOT
BRANCH   1  12
ATOM      3  C   UNL     1      -2.159  -1.888   0.535  0.00  0.00    +0.122 A 
ATOM      4  C   UNL     1      -1.021  -2.671   0.387  0.00  0.00    +0.048 A 
ATOM      5  C   UNL     1      -1.101  -4.044   0.357  0.00  0.00    +0.030 A 
ATOM      6  C   UNL     1      -2.339  -4.691   0.477  0.00  0.00    +0.055 A 
ATOM      7  C   UNL     1      -3.472  -3.879   0.627  0.00  0.00    +0.042 A 
ATOM      8  C   UNL     1      -3.395  -2.507   0.662  0.00  0.00    +0.062 A 
ATOM      9  S   UNL     1      -4.797  -5.053   0.742  0.00  0.00    -0.052 S 
ATOM     10  C   UNL     1      -3.902  -6.469   0.602  0.00  0.00    +0.164 A 
ATOM     11  N   UNL     1      -2.620  -6.046   0.470  0.00  0.00    -0.335 N 
ATOM     12  N   UNL     1      -4.351  -7.723   0.617  0.00  0.00    -0.155 NA
ATOM     13  H   UNL     1      -1.903  -6.691   0.372  0.00  0.00    +0.168 HD
BRANCH   3  14
ATOM     14  O   UNL     1      -2.062  -0.532   0.562  0.00  0.00    -0.492 OA
BRANCH  14  16
ATOM     15  C   UNL     1      -0.846   1.554   0.479  0.00  0.00    +0.048 C 
ATOM     16  C   UNL     1      -0.755   0.028   0.426  0.00  0.00    +0.225 C 
ENDBRANCH  14  16
ENDBRANCH   3  14
ENDBRANCH   1  12
BRANCH   1  17
ATOM     17  C   UNL     1      -4.044 -10.138   0.284  0.00  0.00    +0.182 C 
BRANCH  17  18
ATOM     18  N   UNL     1      -2.932 -11.059   0.013  0.00  0.00    -0.291 NA
ATOM     19  C   UNL     1      -1.997 -11.102   1.146  0.00  0.00    +0.104 C 
ATOM     20  C   UNL     1      -0.767 -11.928   0.756  0.00  0.00    +0.123 C 
ATOM     21  N   UNL     1      -1.219 -13.242   0.273  0.00  0.00    -0.295 N 
ATOM     22  C   UNL     1      -2.258 -13.280  -0.767  0.00  0.00    +0.123 C 
ATOM     23  C   UNL     1      -3.430 -12.401  -0.318  0.00  0.00    +0.104 C 
ATOM     24  C   UNL     1      -0.695 -14.380   0.770  0.00  0.00    +0.247 C 
ATOM     25  O   UNL     1       0.089 -14.333   1.697  0.00  0.00    -0.270 OA
BRANCH  24  26
ATOM     26  C   UNL     1      -1.075 -15.684   0.188  0.00  0.00    +0.037 A 
ATOM     27  C   UNL     1      -1.366 -15.786  -1.174  0.00  0.00    +0.014 A 
ATOM     28  C   UNL     1      -1.719 -17.005  -1.711  0.00  0.00    +0.021 A 
ATOM     29  C   UNL     1      -1.786 -18.128  -0.903  0.00  0.00    +0.041 A 
ATOM     30  C   UNL     1      -1.499 -18.034   0.449  0.00  0.00    +0.021 A 
ATOM     31  C   UNL     1      -1.139 -16.820   0.997  0.00  0.00    +0.014 A 
ATOM     32 CL   UNL     1      -2.233 -19.660  -1.587  0.00  0.00    -0.084 Cl
ENDBRANCH  24  26
ENDBRANCH  17  18
ENDBRANCH   1  17
TORSDOF 6
