REMARK  Name = ZINC13550536
REMARK  6 active torsions:
REMARK  status: ('A' for Active; 'I' for Inactive)
REMARK    1  A    between atoms: C_1  and  C_2
REMARK    2  A    between atoms: C_5  and  S_7
REMARK    3  A    between atoms: S_7  and  C_8
REMARK    4  A    between atoms: C_8  and  C_9
REMARK    5  A    between atoms: C_13  and  N_15
REMARK    6  A    between atoms: N_18  and  C_19
REMARK                            x       y       z     vdW  Elec       q    Type
REMARK                         _______ _______ _______ _____ _____    ______ ____
ROOT
ATOM      1  N   UNL     1      -2.246  -9.429   0.515  0.00  0.00    -0.177 NA
ATOM      2  C   UNL     1      -2.040 -10.725   0.626  0.00  0.00    +0.203 C 
ATOM      3  N   UNL     1      -2.950 -11.510   1.283  0.00  0.00    -0.369 N 
ATOM      4  N   UNL     1      -0.915 -11.288   0.083  0.00  0.00    -0.326 N 
ATOM      5  H   UNL     1      -3.790 -11.130   1.583  0.00  0.00    +0.159 HD
ATOM      6  H   UNL     1      -0.234 -10.724  -0.314  0.00  0.00    +0.169 HD
ATOM      7  H   UNL     1      -2.754 -12.445   1.447  0.00  0.00    +0.159 HD
ENDROOT
BRANCH   4   8
ATOM      8  C   UNL     1      -0.750 -12.679   0.102  0.00  0.00    +0.046 A 
ATOM      9  C   UNL     1      -1.856 -13.512  -0.000  0.00  0.00    +0.029 A 
ATOM     10  C   UNL     1      -1.693 -14.883   0.019  0.00  0.00    +0.051 A 
ATOM     11  C   UNL     1      -0.425 -15.433   0.140  0.00  0.00    +0.162 A 
ATOM     12  C   UNL     1       0.684 -14.602   0.240  0.00  0.00    +0.164 A 
ATOM     13  C   UNL     1       0.521 -13.225   0.217  0.00  0.00    +0.075 A 
ATOM     14  O   UNL     1       1.937 -15.123   0.352  0.00  0.00    -0.485 OA
ATOM     15  C   UNL     1       2.030 -16.498   0.741  0.00  0.00    +0.270 C 
ATOM     16  C   UNL     1       1.026 -17.303  -0.095  0.00  0.00    +0.270 C 
ATOM     17  O   UNL     1      -0.285 -16.788   0.161  0.00  0.00    -0.485 OA
ENDBRANCH   4   8
BRANCH   1  22
ATOM     18  C   UNL     1      -1.066  -6.660  -1.352  0.00  0.00    +0.061 A 
ATOM     19  C   UNL     1      -0.280  -7.292  -2.300  0.00  0.00    +0.096 A 
ATOM     20  C   UNL     1      -0.180  -8.682  -2.264  0.00  0.00    +0.275 A 
ATOM     21  N   UNL     1      -0.837  -9.354  -1.328  0.00  0.00    -0.172 NA
ATOM     22  C   UNL     1      -1.583  -8.713  -0.433  0.00  0.00    +0.257 A 
ATOM     23  N   UNL     1      -1.692  -7.387  -0.441  0.00  0.00    -0.215 NA
ATOM     24  O   UNL     1       0.579  -9.339  -3.175  0.00  0.00    -0.266 OA
BRANCH  18  25
ATOM     25  C   UNL     1      -1.201  -5.160  -1.354  0.00  0.00    +0.132 C 
BRANCH  25  26
ATOM     26  S   UNL     1       0.102  -4.434  -0.322  0.00  0.00    -0.091 S 
BRANCH  26  31
ATOM     27  C   UNL     1      -0.250   1.454  -0.192  0.00  0.00    +0.075 C 
ATOM     28  C   UNL     1      -0.336  -0.041  -0.357  0.00  0.00    +0.100 A 
ATOM     29  N   UNL     1      -1.189  -0.769  -1.050  0.00  0.00    -0.146 NA
ATOM     30  N   UNL     1      -1.125  -2.028  -1.085  0.00  0.00    -0.135 NA
ATOM     31  C   UNL     1      -0.189  -2.699  -0.425  0.00  0.00    +0.159 A 
ATOM     32  S   UNL     1       0.697  -1.335   0.324  0.00  0.00    -0.044 S 
ENDBRANCH  26  31
ENDBRANCH  25  26
ENDBRANCH  18  25
ENDBRANCH   1  22
TORSDOF 5
