REMARK  Name = ZINC59987456
REMARK  9 active torsions:
REMARK  status: ('A' for Active; 'I' for Inactive)
REMARK    1  A    between atoms: C_1  and  C_2
REMARK    2  A    between atoms: C_5  and  S_9
REMARK    3  A    between atoms: C_7  and  C_8
REMARK    4  A    between atoms: S_9  and  N_12
REMARK    5  A    between atoms: N_12  and  C_13
REMARK    6  A    between atoms: N_12  and  C_14
REMARK    7  A    between atoms: C_14  and  C_15
REMARK    8  A    between atoms: N_17  and  C_18
REMARK    9  A    between atoms: C_21  and  C_24
REMARK                            x       y       z     vdW  Elec       q    Type
REMARK                         _______ _______ _______ _____ _____    ______ ____
ROOT
ATOM      1  C   UNL     1       3.087  -3.942  -1.679  0.00  0.00    +0.233 C 
ATOM      2  O   UNL     1       3.034  -2.970  -0.955  0.00  0.00    -0.274 OA
ATOM      3  N   UNL     1       3.805  -3.894  -2.819  0.00  0.00    -0.284 N 
ATOM      4  H   UNL     1       3.904  -4.690  -3.364  0.00  0.00    +0.155 HD
ENDROOT
BRANCH   3   5
ATOM      5  C   UNL     1       4.409  -2.695  -3.216  0.00  0.00    +0.033 A 
ATOM      6  C   UNL     1       4.923  -1.828  -2.260  0.00  0.00    +0.024 A 
ATOM      7  C   UNL     1       5.518  -0.646  -2.648  0.00  0.00    +0.012 A 
ATOM      8  C   UNL     1       5.603  -0.322  -4.002  0.00  0.00    -0.000 A 
ATOM      9  C   UNL     1       5.087  -1.194  -4.959  0.00  0.00    +0.012 A 
ATOM     10  C   UNL     1       4.498  -2.377  -4.565  0.00  0.00    +0.024 A 
BRANCH   8  11
ATOM     11  C   UNL     1       6.242   0.949  -4.422  0.00  0.00    +0.064 A 
ATOM     12  C   UNL     1       6.789   1.883  -3.598  0.00  0.00    +0.113 A 
ATOM     13  N   UNL     1       7.259   2.880  -4.398  0.00  0.00    -0.335 N 
ATOM     14  C   UNL     1       6.990   2.537  -5.681  0.00  0.00    +0.087 A 
ATOM     15  N   UNL     1       6.391   1.383  -5.692  0.00  0.00    -0.343 N 
ATOM     16  C   UNL     1       7.354   3.388  -6.876  0.00  0.00    +0.072 C 
ATOM     17  C   UNL     1       7.677   4.802  -6.378  0.00  0.00    +0.009 C 
ATOM     18  C   UNL     1       8.654   4.711  -5.202  0.00  0.00    +0.022 C 
ATOM     19  C   UNL     1       7.937   4.112  -3.987  0.00  0.00    +0.123 C 
ATOM     20  H   UNL     1       6.095   0.911  -6.486  0.00  0.00    +0.167 HD
ENDBRANCH   8  11
ENDBRANCH   3   5
BRANCH   1  21
ATOM     21  C   UNL     1       2.352  -5.202  -1.305  0.00  0.00    +0.205 C 
BRANCH  21  22
ATOM     22  N   UNL     1       1.653  -5.001  -0.033  0.00  0.00    -0.171 NA
ATOM     23  C   UNL     1       2.362  -5.206   1.233  0.00  0.00    +0.132 C 
BRANCH  22  24
ATOM     24  S   UNL     1       0.062  -4.541  -0.026  0.00  0.00    +0.061 S 
ATOM     25  O   UNL     1      -0.476  -4.959   1.221  0.00  0.00    -0.153 OA
ATOM     26  O   UNL     1      -0.486  -4.956  -1.270  0.00  0.00    -0.153 OA
BRANCH  24  31
ATOM     27  C   UNL     1      -0.055   1.491  -0.018  0.00  0.00    +0.044 C 
ATOM     28  C   UNL     1      -0.026  -0.015  -0.020  0.00  0.00    -0.047 A 
ATOM     29  C   UNL     1      -0.016  -0.705  -1.218  0.00  0.00    +0.005 A 
ATOM     30  C   UNL     1       0.011  -2.087  -1.220  0.00  0.00    +0.029 A 
ATOM     31  C   UNL     1       0.029  -2.779  -0.024  0.00  0.00    +0.106 A 
ATOM     32  C   UNL     1       0.020  -2.090   1.174  0.00  0.00    +0.032 A 
ATOM     33  C   UNL     1      -0.003  -0.708   1.176  0.00  0.00    -0.046 A 
ATOM     34  C   UNL     1      -0.007   0.044   2.482  0.00  0.00    +0.044 C 
ENDBRANCH  24  31
ENDBRANCH  22  24
ENDBRANCH  21  22
ENDBRANCH   1  21
TORSDOF 6
