REMARK  Name = ZINC49443035
REMARK  3 active torsions:
REMARK  status: ('A' for Active; 'I' for Inactive)
REMARK    1  A    between atoms: C_8  and  O_10
REMARK    2  A    between atoms: O_10  and  C_11
REMARK    3  A    between atoms: N_19  and  C_20
REMARK                            x       y       z     vdW  Elec       q    Type
REMARK                         _______ _______ _______ _____ _____    ______ ____
ROOT
ATOM      1  C   UNL     1       5.705  -3.108   0.215  0.00  0.00    +0.179 C 
ATOM      2  C   UNL     1       5.962  -3.496  -1.242  0.00  0.00    +0.063 C 
ATOM      3  C   UNL     1       7.230  -2.792  -1.738  0.00  0.00    +0.113 C 
ATOM      4  N   UNL     1       8.335  -3.112  -0.824  0.00  0.00    -0.285 N 
ATOM      5  C   UNL     1       8.159  -2.863   0.613  0.00  0.00    +0.113 C 
ATOM      6  C   UNL     1       6.881  -3.565   1.082  0.00  0.00    +0.063 C 
ATOM      7  C   UNL     1       9.489  -3.624  -1.296  0.00  0.00    +0.306 C 
ATOM      8  O   UNL     1       9.590  -3.915  -2.472  0.00  0.00    -0.252 OA
ATOM      9  N   UNL     1      10.532  -3.813  -0.463  0.00  0.00    -0.269 N 
ATOM     10  H   UNL     1      10.429  -3.654   0.488  0.00  0.00    +0.156 HD
ENDROOT
BRANCH   9  11
ATOM     11  C   UNL     1      11.766  -4.241  -0.972  0.00  0.00    +0.038 A 
ATOM     12  C   UNL     1      12.174  -3.836  -2.236  0.00  0.00    +0.027 A 
ATOM     13  C   UNL     1      13.390  -4.256  -2.739  0.00  0.00    +0.051 A 
ATOM     14  C   UNL     1      14.207  -5.082  -1.983  0.00  0.00    +0.166 A 
ATOM     15  C   UNL     1      13.801  -5.490  -0.715  0.00  0.00    +0.168 A 
ATOM     16  C   UNL     1      12.584  -5.064  -0.210  0.00  0.00    +0.073 A 
ATOM     17  O   UNL     1      14.771  -6.289  -0.182  0.00  0.00    -0.453 OA
ATOM     18  C   UNL     1      15.587  -6.698  -1.296  0.00  0.00    +0.466 C 
ATOM     19  O   UNL     1      15.432  -5.627  -2.245  0.00  0.00    -0.453 OA
ENDBRANCH   9  11
BRANCH   1  20
ATOM     20  O   UNL     1       4.505  -3.737   0.671  0.00  0.00    -0.468 OA
BRANCH  20  28
ATOM     21  C   UNL     1      -0.726  -0.398  -0.222  0.00  0.00    +0.004 A 
ATOM     22  C   UNL     1       0.305   0.383  -0.726  0.00  0.00    +0.040 A 
ATOM     23  C   UNL     1       1.609  -0.045  -0.695  0.00  0.00    +0.150 A 
ATOM     24  C   UNL     1       1.943  -1.305  -0.144  0.00  0.00    +0.117 A 
ATOM     25  C   UNL     1       0.868  -2.070   0.359  0.00  0.00    +0.045 A 
ATOM     26  C   UNL     1      -0.434  -1.634   0.324  0.00  0.00    +0.017 A 
ATOM     27  S   UNL     1       1.687  -3.534   0.944  0.00  0.00    -0.029 S 
ATOM     28  C   UNL     1       3.350  -3.054   0.499  0.00  0.00    +0.258 A 
ATOM     29  N   UNL     1       3.166  -1.871  -0.036  0.00  0.00    -0.203 NA
ATOM     30  F   UNL     1       2.583   0.745  -1.197  0.00  0.00    -0.203 F 
ENDBRANCH  20  28
ENDBRANCH   1  20
TORSDOF 3
