REMARK  Name = ZINC40793445
REMARK  5 active torsions:
REMARK  status: ('A' for Active; 'I' for Inactive)
REMARK    1  A    between atoms: C_6  and  N_7
REMARK    2  A    between atoms: C_9  and  N_26
REMARK    3  A    between atoms: C_10  and  N_14
REMARK    4  A    between atoms: N_14  and  N_15
REMARK    5  A    between atoms: C_16  and  C_18
REMARK                            x       y       z     vdW  Elec       q    Type
REMARK                         _______ _______ _______ _____ _____    ______ ____
ROOT
ATOM      1  N   UNL     1      -1.199  -0.721   0.010  0.00  0.00    -0.298 N 
ATOM      2  C   UNL     1      -1.183  -2.107  -0.102  0.00  0.00    +0.149 A 
ATOM      3  C   UNL     1      -2.376  -2.824  -0.206  0.00  0.00    +0.107 A 
ATOM      4  C   UNL     1      -2.302  -4.213  -0.317  0.00  0.00    +0.161 A 
ATOM      5  N   UNL     1      -1.106  -4.797  -0.320  0.00  0.00    -0.217 NA
ATOM      6  C   UNL     1      -0.004  -4.083  -0.220  0.00  0.00    +0.225 A 
ATOM      7  N   UNL     1      -0.029  -2.769  -0.119  0.00  0.00    -0.219 NA
ATOM      8  H   UNL     1      -2.043  -0.251   0.099  0.00  0.00    +0.154 HD
ENDROOT
BRANCH   1  14
ATOM      9  C   UNL     1       1.074  -0.459  -0.760  0.00  0.00    +0.026 A 
ATOM     10  C   UNL     1       2.260   0.251  -0.773  0.00  0.00    +0.041 A 
ATOM     11  C   UNL     1       2.379   1.416  -0.035  0.00  0.00    +0.142 A 
ATOM     12  C   UNL     1       1.310   1.872   0.720  0.00  0.00    +0.078 A 
ATOM     13  C   UNL     1       0.123   1.165   0.736  0.00  0.00    +0.046 A 
ATOM     14  C   UNL     1       0.002  -0.004  -0.004  0.00  0.00    +0.034 A 
ATOM     15 CL   UNL     1       1.462   3.333   1.646  0.00  0.00    -0.081 Cl
ATOM     16  F   UNL     1       3.539   2.108  -0.049  0.00  0.00    -0.204 F 
ENDBRANCH   1  14
BRANCH   3  17
ATOM     17  N   UNL     1      -3.616  -2.165  -0.198  0.00  0.00    -0.353 N 
ATOM     18  H   UNL     1      -3.652  -1.199  -0.120  0.00  0.00    +0.143 HD
ATOM     19  H   UNL     1      -4.437  -2.677  -0.271  0.00  0.00    +0.143 HD
ENDBRANCH   3  17
BRANCH   4  20
ATOM     20  N   UNL     1      -3.460  -4.975  -0.423  0.00  0.00    -0.247 N 
ATOM     21  H   UNL     1      -4.328  -4.542  -0.419  0.00  0.00    +0.172 HD
BRANCH  20  22
ATOM     22  N   UNL     1      -3.373  -6.369  -0.534  0.00  0.00    -0.231 N 
ATOM     23  C   UNL     1      -4.496  -7.108  -0.636  0.00  0.00    +0.262 C 
ATOM     24  O   UNL     1      -5.584  -6.564  -0.632  0.00  0.00    -0.269 OA
ATOM     25  H   UNL     1      -2.506  -6.802  -0.537  0.00  0.00    +0.173 HD
BRANCH  23  26
ATOM     26  C   UNL     1      -4.405  -8.577  -0.753  0.00  0.00    +0.057 A 
ATOM     27  C   UNL     1      -3.157  -9.205  -0.752  0.00  0.00    +0.016 A 
ATOM     28  C   UNL     1      -3.079 -10.577  -0.862  0.00  0.00    +0.021 A 
ATOM     29  C   UNL     1      -4.234 -11.334  -0.972  0.00  0.00    +0.042 A 
ATOM     30  C   UNL     1      -5.474 -10.719  -0.973  0.00  0.00    +0.040 A 
ATOM     31  C   UNL     1      -5.567  -9.346  -0.859  0.00  0.00    +0.054 A 
ATOM     32 CL   UNL     1      -7.123  -8.576  -0.855  0.00  0.00    -0.083 Cl
ATOM     33 CL   UNL     1      -4.125 -13.061  -1.109  0.00  0.00    -0.083 Cl
ENDBRANCH  23  26
ENDBRANCH  20  22
ENDBRANCH   4  20
TORSDOF 5
