REMARK  Name = ZINC15910309
REMARK  8 active torsions:
REMARK  status: ('A' for Active; 'I' for Inactive)
REMARK    1  A    between atoms: C_1  and  C_2
REMARK    2  A    between atoms: C_3  and  C_32
REMARK    3  A    between atoms: C_7  and  S_11
REMARK    4  A    between atoms: S_11  and  C_12
REMARK    5  A    between atoms: C_12  and  C_13
REMARK    6  A    between atoms: N_15  and  C_16
REMARK    7  A    between atoms: C_18  and  S_23
REMARK    8  A    between atoms: S_23  and  N_26
REMARK                            x       y       z     vdW  Elec       q    Type
REMARK                         _______ _______ _______ _____ _____    ______ ____
ROOT
ATOM      1  C   UNL     1       7.003   0.986  -1.967  0.00  0.00    +0.227 C 
ATOM      2  O   UNL     1       7.023   0.894  -0.757  0.00  0.00    -0.275 OA
ATOM      3  N   UNL     1       6.175   0.206  -2.688  0.00  0.00    -0.284 N 
ATOM      4  H   UNL     1       6.218   0.220  -3.658  0.00  0.00    +0.155 HD
ENDROOT
BRANCH   3   5
ATOM      5  C   UNL     1       5.254  -0.625  -2.040  0.00  0.00    +0.054 A 
ATOM      6  C   UNL     1       4.815  -0.312  -0.760  0.00  0.00    +0.053 A 
ATOM      7  C   UNL     1       3.906  -1.134  -0.123  0.00  0.00    +0.107 A 
ATOM      8  C   UNL     1       3.437  -2.271  -0.756  0.00  0.00    +0.030 A 
ATOM      9  C   UNL     1       3.867  -2.583  -2.032  0.00  0.00    +0.024 A 
ATOM     10  C   UNL     1       4.777  -1.765  -2.675  0.00  0.00    +0.062 A 
ATOM     11 CL   UNL     1       5.322  -2.162  -4.275  0.00  0.00    -0.082 Cl
BRANCH   7  12
ATOM     12  S   UNL     1       3.349  -0.737   1.500  0.00  0.00    +0.061 S 
ATOM     13  O   UNL     1       4.354   0.079   2.087  0.00  0.00    -0.153 OA
ATOM     14  O   UNL     1       2.916  -1.955   2.090  0.00  0.00    -0.153 OA
BRANCH  12  15
ATOM     15  N   UNL     1       2.003   0.215   1.337  0.00  0.00    -0.177 NA
ATOM     16  C   UNL     1       0.665  -0.388   1.265  0.00  0.00    +0.109 C 
ATOM     17  C   UNL     1      -0.040   0.125   0.005  0.00  0.00    +0.017 C 
ATOM     18  C   UNL     1      -0.039   1.656   0.012  0.00  0.00    +0.003 C 
ATOM     19  C   UNL     1       1.404   2.167   0.001  0.00  0.00    +0.017 C 
ATOM     20  C   UNL     1       2.124   1.677   1.261  0.00  0.00    +0.109 C 
ENDBRANCH  12  15
ENDBRANCH   7  12
ENDBRANCH   3   5
BRANCH   1  21
ATOM     21  C   UNL     1       7.905   1.974  -2.662  0.00  0.00    +0.171 C 
BRANCH  21  22
ATOM     22  S   UNL     1       8.887   2.865  -1.430  0.00  0.00    -0.096 S 
BRANCH  22  29
ATOM     23  C   UNL     1      10.470   4.301   0.551  0.00  0.00    +0.045 C 
ATOM     24  C   UNL     1      11.130   5.078  -0.559  0.00  0.00    -0.029 A 
ATOM     25  C   UNL     1      12.060   6.003  -0.280  0.00  0.00    -0.008 A 
ATOM     26  S   UNL     1      12.523   6.625  -1.885  0.00  0.00    -0.074 S 
ATOM     27  C   UNL     1      11.455   5.626  -2.888  0.00  0.00    +0.113 A 
ATOM     28  C   UNL     1      10.761   4.838  -1.943  0.00  0.00    +0.043 A 
ATOM     29  C   UNL     1       9.822   3.919  -2.489  0.00  0.00    +0.109 A 
ATOM     30  N   UNL     1       9.655   3.870  -3.801  0.00  0.00    -0.229 NA
ATOM     31  C   UNL     1      10.336   4.643  -4.626  0.00  0.00    +0.223 A 
ATOM     32  N   UNL     1      11.225   5.511  -4.181  0.00  0.00    -0.228 NA
ATOM     33  C   UNL     1      12.588   6.417   1.069  0.00  0.00    +0.052 C 
ENDBRANCH  22  29
ENDBRANCH  21  22
ENDBRANCH   1  21
TORSDOF 6
