REMARK  Name = ZINC40219506
REMARK  16 active torsions:
REMARK  status: ('A' for Active; 'I' for Inactive)
REMARK    1  A    between atoms: C_1  and  C_2
REMARK    2  A    between atoms: C_3  and  C_4
REMARK    3  A    between atoms: N_6  and  C_7
REMARK    4  A    between atoms: C_7  and  C_8
REMARK    5  A    between atoms: C_8  and  C_9
REMARK    6  A    between atoms: C_9  and  C_10
REMARK    7  A    between atoms: C_10  and  C_11
REMARK    8  A    between atoms: C_11  and  C_12
REMARK    9  A    between atoms: N_20  and  C_21
REMARK   10  A    between atoms: C_21  and  C_22
REMARK   11  A    between atoms: C_22  and  C_23
REMARK   12  A    between atoms: C_23  and  C_24
REMARK   13  A    between atoms: C_24  and  O_25
REMARK   14  A    between atoms: O_25  and  C_26
REMARK   15  A    between atoms: C_31  and  C_32
REMARK   16  A    between atoms: C_32  and  C_33
REMARK                            x       y       z     vdW  Elec       q    Type
REMARK                         _______ _______ _______ _____ _____    ______ ____
ROOT
ATOM      1  C   UNL     1      -6.502  -8.950   0.016  0.00  0.00    +0.111 A 
ATOM      2  N   UNL     1      -7.193  -9.209   1.088  0.00  0.00    -0.232 NA
ATOM      3  C   UNL     1      -8.424  -9.662   0.739  0.00  0.00    +0.089 A 
ATOM      4  C   UNL     1      -9.541 -10.077   1.469  0.00  0.00    +0.030 A 
ATOM      5  C   UNL     1     -10.667 -10.491   0.815  0.00  0.00    +0.002 A 
ATOM      6  C   UNL     1     -10.715 -10.504  -0.572  0.00  0.00    +0.002 A 
ATOM      7  C   UNL     1      -9.625 -10.099  -1.313  0.00  0.00    +0.028 A 
ATOM      8  C   UNL     1      -8.472  -9.675  -0.665  0.00  0.00    +0.069 A 
ATOM      9  N   UNL     1      -7.243  -9.214  -1.093  0.00  0.00    -0.328 N 
ENDROOT
BRANCH   1  10
ATOM     10  C   UNL     1      -5.088  -8.429   0.005  0.00  0.00    +0.074 C 
BRANCH  10  11
ATOM     11  C   UNL     1      -5.109  -6.899   0.014  0.00  0.00    +0.008 C 
BRANCH  11  12
ATOM     12  C   UNL     1      -3.673  -6.370   0.003  0.00  0.00    +0.002 C 
BRANCH  12  13
ATOM     13  C   UNL     1      -3.694  -4.840   0.011  0.00  0.00    +0.019 C 
BRANCH  13  14
ATOM     14  C   UNL     1      -2.259  -4.310   0.001  0.00  0.00    +0.104 C 
BRANCH  14  17
ATOM     15  C   UNL     1      -1.121  -2.155   0.001  0.00  0.00    +0.237 C 
ATOM     16  O   UNL     1      -0.059  -2.749  -0.012  0.00  0.00    -0.271 OA
ATOM     17  N   UNL     1      -2.279  -2.845   0.009  0.00  0.00    -0.312 N 
ATOM     18  H   UNL     1      -3.125  -2.372   0.019  0.00  0.00    +0.149 HD
BRANCH  15  21
ATOM     19  C   UNL     1      -0.018   1.503   0.010  0.00  0.00    +0.035 C 
ATOM     20  C   UNL     1       0.002  -0.004   0.002  0.00  0.00    -0.025 C 
ATOM     21  C   UNL     1      -1.141  -0.685   0.009  0.00  0.00    +0.063 C 
ENDBRANCH  15  21
ENDBRANCH  14  17
ENDBRANCH  13  14
ENDBRANCH  12  13
ENDBRANCH  11  12
ENDBRANCH  10  11
ENDBRANCH   1  10
BRANCH   9  22
ATOM     22  C   UNL     1      -6.816  -9.044  -2.484  0.00  0.00    +0.123 C 
BRANCH  22  23
ATOM     23  C   UNL     1      -6.168 -10.338  -2.981  0.00  0.00    +0.025 C 
BRANCH  23  24
ATOM     24  C   UNL     1      -5.722 -10.160  -4.433  0.00  0.00    +0.043 C 
BRANCH  24  25
ATOM     25  C   UNL     1      -5.073 -11.453  -4.930  0.00  0.00    +0.229 C 
BRANCH  25  26
ATOM     26  O   UNL     1      -4.656 -11.287  -6.287  0.00  0.00    -0.492 OA
BRANCH  26  27
ATOM     27  C   UNL     1      -4.057 -12.351  -6.883  0.00  0.00    +0.124 A 
ATOM     28  C   UNL     1      -3.879 -13.533  -6.178  0.00  0.00    +0.046 A 
ATOM     29  C   UNL     1      -3.270 -14.613  -6.787  0.00  0.00    +0.004 A 
ATOM     30  C   UNL     1      -2.838 -14.518  -8.097  0.00  0.00    +0.001 A 
ATOM     31  C   UNL     1      -3.014 -13.341  -8.801  0.00  0.00    +0.007 A 
ATOM     32  C   UNL     1      -3.627 -12.259  -8.199  0.00  0.00    -0.002 A 
BRANCH  32  33
ATOM     33  C   UNL     1      -3.825 -10.979  -8.969  0.00  0.00    +0.065 C 
BRANCH  33  34
ATOM     34  C   UNL     1      -2.682 -10.040  -8.682  0.00  0.00    -0.030 C 
ATOM     35  C   UNL     1      -1.976  -9.546  -9.669  0.00  0.00    +0.004 C 
ENDBRANCH  33  34
ENDBRANCH  32  33
ENDBRANCH  26  27
ENDBRANCH  25  26
ENDBRANCH  24  25
ENDBRANCH  23  24
ENDBRANCH  22  23
ENDBRANCH   9  22
TORSDOF 15
