REMARK  Name = ZINC15946326
REMARK  6 active torsions:
REMARK  status: ('A' for Active; 'I' for Inactive)
REMARK    1  A    between atoms: C_1  and  C_2
REMARK    2  A    between atoms: C_2  and  C_3
REMARK    3  A    between atoms: C_2  and  N_4
REMARK    4  A    between atoms: C_12  and  O_26
REMARK    5  A    between atoms: C_14  and  C_17
REMARK    6  A    between atoms: C_22  and  O_23
REMARK                            x       y       z     vdW  Elec       q    Type
REMARK                         _______ _______ _______ _____ _____    ______ ____
ROOT
ATOM      1  N   UNL     1      -1.442  -0.249   0.106  0.00  0.00    +0.384 N 
ATOM      2  C   UNL     1      -1.680  -1.680   0.337  0.00  0.00    -0.073 C 
ATOM      3  C   UNL     1      -3.135  -1.914   0.758  0.00  0.00    +0.018 C 
ATOM      4  C   UNL     1      -4.034  -1.237  -0.268  0.00  0.00    -0.027 A 
ATOM      5  C   UNL     1      -3.522  -0.305  -1.107  0.00  0.00    -0.021 A 
ATOM      6  S   UNL     1      -4.892   0.201  -2.107  0.00  0.00    -0.080 S 
ATOM      7  C   UNL     1      -6.077  -0.757  -1.454  0.00  0.00    +0.080 A 
ATOM      8  C   UNL     1      -5.446  -1.502  -0.449  0.00  0.00    +0.067 A 
ATOM      9  C   UNL     1      -6.279  -2.473   0.307  0.00  0.00    +0.220 C 
ATOM     10  N   UNL     1      -7.575  -2.398   0.169  0.00  0.00    -0.223 NA
ATOM     11  C   UNL     1      -8.264  -1.388  -0.625  0.00  0.00    +0.227 C 
ATOM     12  N   UNL     1      -7.419  -0.895  -1.728  0.00  0.00    -0.313 N 
ATOM     13  C   UNL     1      -2.103   0.167  -1.145  0.00  0.00    -0.035 C 
ATOM     14  H   UNL     1      -7.788  -0.679  -2.599  0.00  0.00    +0.149 HD
ATOM     15  H   UNL     1      -1.819   0.281   0.878  0.00  0.00    -0.081 HD
ENDROOT
BRANCH  11  16
ATOM     16  C   UNL     1      -8.633  -0.230   0.265  0.00  0.00    +0.038 A 
ATOM     17  C   UNL     1      -8.614   1.058  -0.233  0.00  0.00    +0.026 A 
ATOM     18  C   UNL     1      -8.954   2.122   0.584  0.00  0.00    +0.020 A 
ATOM     19  C   UNL     1      -9.313   1.899   1.901  0.00  0.00    +0.034 A 
ATOM     20  C   UNL     1      -9.332   0.611   2.404  0.00  0.00    +0.061 A 
ATOM     21  C   UNL     1      -8.998  -0.458   1.583  0.00  0.00    +0.138 A 
ATOM     22 BR   UNL     1      -9.822   0.306   4.204  0.00  0.00    -0.046 Br
ATOM     23 BR   UNL     1      -8.926   3.885  -0.101  0.00  0.00    -0.050 Br
BRANCH  21  24
ATOM     24  O   UNL     1      -9.024  -1.725   2.074  0.00  0.00    -0.505 OA
ATOM     25  H   UNL     1      -8.186  -2.013   2.463  0.00  0.00    +0.292 HD
ENDBRANCH  21  24
ENDBRANCH  11  16
BRANCH   1  27
ATOM     26  C   UNL     1       0.246   1.468  -0.337  0.00  0.00    -0.014 C 
ATOM     27  C   UNL     1       0.002  -0.004   0.002  0.00  0.00    -0.074 C 
ATOM     28  C   UNL     1       0.674  -0.339   1.335  0.00  0.00    -0.014 C 
ENDBRANCH   1  27
BRANCH   9  29
ATOM     29  O   UNL     1      -5.713  -3.403   1.111  0.00  0.00    -0.492 OA
ATOM     30  H   UNL     1      -6.351  -3.981   1.553  0.00  0.00    +0.294 HD
ENDBRANCH   9  29
TORSDOF 4
