REMARK  Name = ZINC02244661
REMARK  3 active torsions:
REMARK  status: ('A' for Active; 'I' for Inactive)
REMARK    1  A    between atoms: C_1  and  C_2
REMARK    2  A    between atoms: C_26  and  C_28
REMARK    3  A    between atoms: C_26  and  C_29
REMARK                            x       y       z     vdW  Elec       q    Type
REMARK                         _______ _______ _______ _____ _____    ______ ____
ROOT
ATOM      1  C   UNL     1      -2.733   6.156   2.103  0.00  0.00    +0.028 C 
ATOM      2  C   UNL     1      -2.727   6.707   0.676  0.00  0.00    +0.072 C 
ATOM      3  C   UNL     1      -2.614   8.232   0.718  0.00  0.00    +0.022 C 
ATOM      4  C   UNL     1      -2.588   8.777  -0.712  0.00  0.00    +0.003 C 
ATOM      5  C   UNL     1      -1.418   8.145  -1.470  0.00  0.00    +0.019 C 
ATOM      6  C   UNL     1      -1.566   6.622  -1.449  0.00  0.00    +0.107 C 
ATOM      7  N   UNL     1      -1.584   6.150  -0.059  0.00  0.00    -0.311 N 
ATOM      8  C   UNL     1      -1.586   4.765  -0.004  0.00  0.00    +0.139 A 
ATOM      9  C   UNL     1      -0.398   4.055   0.101  0.00  0.00    +0.080 A 
ATOM     10  C   UNL     1      -0.398   2.656   0.162  0.00  0.00    +0.093 A 
ATOM     11  C   UNL     1       0.926   2.016   0.269  0.00  0.00    +0.035 A 
ATOM     12  C   UNL     1       1.213   0.630   0.343  0.00  0.00    -0.024 A 
ATOM     13  C   UNL     1       2.504   0.216   0.440  0.00  0.00    +0.020 A 
ATOM     14  C   UNL     1       3.538   1.159   0.472  0.00  0.00    +0.105 A 
ATOM     15  C   UNL     1       2.029   2.887   0.306  0.00  0.00    +0.089 A 
ATOM     16  S   UNL     1       1.312   4.508   0.195  0.00  0.00    -0.066 S 
ATOM     17  N   UNL     1       4.855   0.734   0.575  0.00  0.00    -0.312 N 
ATOM     18  C   UNL     1       5.477   1.238   1.809  0.00  0.00    +0.134 C 
ATOM     19  C   UNL     1       6.906   0.698   1.911  0.00  0.00    +0.178 C 
ATOM     20  O   UNL     1       7.638   1.076   0.743  0.00  0.00    -0.377 OA
ATOM     21  C   UNL     1       7.061   0.601  -0.477  0.00  0.00    +0.178 C 
ATOM     22  C   UNL     1       5.634   1.140  -0.604  0.00  0.00    +0.134 C 
ATOM     23  C   UNL     1       2.859  -1.247   0.508  0.00  0.00    +0.199 C 
ATOM     24  O   UNL     1       1.705  -2.019   0.839  0.00  0.00    -0.369 OA
ATOM     25  C   UNL     1       0.582  -1.745  -0.006  0.00  0.00    +0.068 C 
ATOM     26  C   UNL     1       0.064  -0.342   0.318  0.00  0.00    +0.070 C 
ATOM     27  C   UNL     1       1.013  -1.808  -1.473  0.00  0.00    +0.041 C 
ATOM     28  C   UNL     1      -0.521  -2.774   0.252  0.00  0.00    +0.041 C 
ATOM     29  N   UNL     1      -1.610   2.059   0.101  0.00  0.00    -0.234 NA
ATOM     30  C   UNL     1      -2.711   2.761   0.002  0.00  0.00    +0.224 A 
ATOM     31  N   UNL     1      -2.728   4.080  -0.051  0.00  0.00    -0.220 NA
ATOM     32  N   UNL     1       3.325   2.503   0.406  0.00  0.00    -0.337 N 
ATOM     33  H   UNL     1       4.096   3.181   0.431  0.00  0.00    +0.168 HD
ENDROOT
TORSDOF 0
