REMARK  Name = ZINC35449995
REMARK  8 active torsions:
REMARK  status: ('A' for Active; 'I' for Inactive)
REMARK    1  A    between atoms: C_1  and  C_2
REMARK    2  A    between atoms: C_2  and  C_3
REMARK    3  A    between atoms: C_3  and  C_5
REMARK    4  A    between atoms: C_3  and  S_6
REMARK    5  A    between atoms: S_6  and  C_7
REMARK    6  A    between atoms: C_17  and  C_19
REMARK    7  A    between atoms: C_22  and  O_28
REMARK    8  A    between atoms: C_23  and  N_25
REMARK                            x       y       z     vdW  Elec       q    Type
REMARK                         _______ _______ _______ _____ _____    ______ ____
ROOT
ATOM      1  C   UNL     1      -3.926  -0.602  -1.300  0.00  0.00    +0.194 A 
ATOM      2  N   UNL     1      -4.253  -1.199  -0.163  0.00  0.00    -0.183 NA
ATOM      3  C   UNL     1      -5.498  -1.626   0.047  0.00  0.00    +0.280 A 
ATOM      4  O   UNL     1      -5.833  -2.237   1.210  0.00  0.00    -0.265 OA
ATOM      5  C   UNL     1      -6.439  -1.433  -0.944  0.00  0.00    +0.075 A 
ATOM      6  C   UNL     1      -6.072  -0.800  -2.136  0.00  0.00    +0.165 A 
ATOM      7  N   UNL     1      -4.803  -0.395  -2.270  0.00  0.00    -0.202 NA
ATOM      8  N   UNL     1      -6.972  -0.596  -3.125  0.00  0.00    -0.232 NA
ATOM      9  C   UNL     1      -8.229  -0.949  -3.090  0.00  0.00    +0.051 C 
ATOM     10  C   UNL     1      -8.783  -1.601  -1.969  0.00  0.00    +0.028 C 
ATOM     11  C   UNL     1      -7.871  -1.887  -0.788  0.00  0.00    +0.093 C 
ATOM     12  C   UNL     1     -10.071  -1.968  -1.919  0.00  0.00    +0.162 C 
ATOM     13  O   UNL     1     -10.539  -2.588  -0.817  0.00  0.00    -0.292 OA
ATOM     14  C   UNL     1     -11.006  -1.701  -3.069  0.00  0.00    +0.080 C 
ATOM     15  C   UNL     1     -10.547  -0.443  -3.812  0.00  0.00    +0.014 C 
ATOM     16  C   UNL     1      -9.105  -0.647  -4.284  0.00  0.00    +0.056 C 
ENDROOT
BRANCH  11  17
ATOM     17  C   UNL     1      -7.871  -3.373  -0.541  0.00  0.00    -0.033 A 
ATOM     18  C   UNL     1      -7.325  -4.229  -1.480  0.00  0.00    +0.008 A 
ATOM     19  C   UNL     1      -7.324  -5.592  -1.256  0.00  0.00    +0.048 A 
ATOM     20  C   UNL     1      -7.871  -6.102  -0.088  0.00  0.00    +0.147 A 
ATOM     21  C   UNL     1      -8.417  -5.242   0.853  0.00  0.00    +0.168 A 
ATOM     22  C   UNL     1      -8.412  -3.879   0.626  0.00  0.00    +0.041 A 
BRANCH  21  23
ATOM     23  N   UNL     1      -9.002  -5.783   2.100  0.00  0.00    +0.060 N 
ATOM     24  O   UNL     1      -9.478  -5.032   2.920  0.00  0.00    -0.126 OA
ATOM     25  O   UNL     1      -9.003  -6.975   2.300  0.00  0.00    -0.126 OA
ENDBRANCH  21  23
BRANCH  20  26
ATOM     26  O   UNL     1      -7.871  -7.443   0.135  0.00  0.00    -0.504 OA
ATOM     27  H   UNL     1      -7.085  -7.765   0.596  0.00  0.00    +0.292 HD
ENDBRANCH  20  26
ENDBRANCH  11  17
BRANCH   1  28
ATOM     28  S   UNL     1      -2.265  -0.057  -1.527  0.00  0.00    -0.083 S 
BRANCH  28  29
ATOM     29  C   UNL     1      -1.433  -0.534   0.013  0.00  0.00    +0.051 C 
ATOM     30  C   UNL     1      -1.413  -2.059   0.130  0.00  0.00    +0.019 C 
BRANCH  29  32
ATOM     31  C   UNL     1      -0.019   1.526   0.010  0.00  0.00    +0.005 C 
ATOM     32  C   UNL     1       0.002  -0.004   0.002  0.00  0.00    +0.011 C 
ENDBRANCH  29  32
ENDBRANCH  28  29
ENDBRANCH   1  28
TORSDOF 6
