REMARK  Name = ZINC63882664
REMARK  7 active torsions:
REMARK  status: ('A' for Active; 'I' for Inactive)
REMARK    1  A    between atoms: C_1  and  N_2
REMARK    2  A    between atoms: C_6  and  C_7
REMARK    3  A    between atoms: C_7  and  N_8
REMARK    4  A    between atoms: N_8  and  C_9
REMARK    5  A    between atoms: N_8  and  C_22
REMARK    6  A    between atoms: C_9  and  C_10
REMARK    7  A    between atoms: C_10  and  O_21
REMARK                            x       y       z     vdW  Elec       q    Type
REMARK                         _______ _______ _______ _____ _____    ______ ____
ROOT
ATOM      1  C   UNL     1       0.646   0.307   4.561  0.00  0.00    +0.118 C 
ENDROOT
BRANCH   1   2
ATOM      2  C   UNL     1       2.084   0.534   5.030  0.00  0.00    +0.067 C 
ATOM      3  C   UNL     1       3.009  -0.473   4.345  0.00  0.00    +0.032 C 
ATOM      4  C   UNL     1       2.598  -1.886   4.773  0.00  0.00    -0.016 C 
ATOM      5  C   UNL     1       2.679  -1.983   6.296  0.00  0.00    -0.078 C 
ATOM      6  N   UNL     1       1.766  -1.010   6.915  0.00  0.00    +0.383 N 
ATOM      7  C   UNL     1       2.158   0.355   6.550  0.00  0.00    -0.035 C 
ATOM      8  C   UNL     1       1.205   1.365   7.197  0.00  0.00    -0.013 C 
ATOM      9  C   UNL     1       1.233   1.204   8.718  0.00  0.00    -0.003 C 
ATOM     10  C   UNL     1       0.855  -0.239   9.065  0.00  0.00    -0.019 C 
ATOM     11  C   UNL     1       1.835  -1.186   8.373  0.00  0.00    -0.078 C 
ATOM     12  H   UNL     1       0.824  -1.185   6.599  0.00  0.00    -0.081 HD
BRANCH   2  13
ATOM     13  O   UNL     1       2.491   1.861   4.688  0.00  0.00    -0.389 OA
ATOM     14  H   UNL     1       2.581   2.011   3.737  0.00  0.00    +0.210 HD
ENDBRANCH   2  13
ENDBRANCH   1   2
BRANCH   1  15
ATOM     15  N   UNL     1       0.593   0.376   3.094  0.00  0.00    -0.290 NA
BRANCH  15  16
ATOM     16  C   UNL     1       0.660   1.768   2.630  0.00  0.00    +0.057 C 
ATOM     17  C   UNL     1       0.595   2.870   3.690  0.00  0.00    +0.020 C 
ATOM     18  C   UNL     1      -0.602   2.621   2.770  0.00  0.00    +0.020 C 
ENDBRANCH  15  16
BRANCH  15  19
ATOM     19  C   UNL     1      -0.608  -0.293   2.578  0.00  0.00    +0.157 C 
BRANCH  19  25
ATOM     20  C   UNL     1       0.890  -2.599   1.150  0.00  0.00    +0.150 C 
ATOM     21  N   UNL     1       0.183  -1.501   0.485  0.00  0.00    -0.338 N 
ATOM     22  C   UNL     1       0.062  -1.313  -0.865  0.00  0.00    +0.104 A 
ATOM     23  C   UNL     1      -0.662  -0.190  -1.039  0.00  0.00    +0.101 A 
ATOM     24  N   UNL     1      -0.974   0.294   0.172  0.00  0.00    -0.349 N 
ATOM     25  C   UNL     1      -0.475  -0.489   1.090  0.00  0.00    +0.101 A 
ATOM     26  H   UNL     1      -1.491   1.097   0.340  0.00  0.00    +0.166 HD
ENDBRANCH  19  25
ENDBRANCH  15  19
ENDBRANCH   1  15
TORSDOF 6
