REMARK  Name = ZINC40386804
REMARK  4 active torsions:
REMARK  status: ('A' for Active; 'I' for Inactive)
REMARK    1  A    between atoms: C_1  and  C_2
REMARK    2  A    between atoms: C_10  and  C_25
REMARK    3  A    between atoms: C_12  and  N_24
REMARK    4  A    between atoms: N_13  and  C_17
REMARK                            x       y       z     vdW  Elec       q    Type
REMARK                         _______ _______ _______ _____ _____    ______ ____
ROOT
ATOM      1  C   UNL     1       0.533   0.963  -0.665  0.00  0.00    +0.007 C 
ATOM      2  C   UNL     1       0.365  -0.550  -0.518  0.00  0.00    -0.011 C 
ATOM      3  C   UNL     1      -1.122  -0.888  -0.386  0.00  0.00    +0.022 C 
ATOM      4  C   UNL     1      -1.288  -2.407  -0.274  0.00  0.00    +0.108 C 
ATOM      5  N   UNL     1      -0.459  -2.892   0.837  0.00  0.00    -0.300 N 
ATOM      6  C   UNL     1       0.969  -2.547   0.856  0.00  0.00    +0.108 C 
ATOM      7  C   UNL     1       1.111  -1.027   0.731  0.00  0.00    +0.022 C 
ATOM      8  C   UNL     1      -1.012  -3.660   1.847  0.00  0.00    +0.220 A 
ATOM      9  N   UNL     1      -0.218  -4.069   2.830  0.00  0.00    -0.210 NA
ATOM     10  C   UNL     1      -0.668  -4.810   3.840  0.00  0.00    +0.124 A 
ATOM     11  C   UNL     1      -2.039  -5.166   3.850  0.00  0.00    +0.089 A 
ATOM     12  C   UNL     1      -2.870  -5.897   4.687  0.00  0.00    +0.131 A 
ATOM     13  N   UNL     1      -4.106  -5.878   4.150  0.00  0.00    -0.216 N 
ATOM     14  N   UNL     1      -4.097  -5.138   2.962  0.00  0.00    -0.144 NA
ATOM     15  C   UNL     1      -2.881  -4.690   2.738  0.00  0.00    +0.189 A 
ATOM     16  N   UNL     1      -2.298  -3.941   1.781  0.00  0.00    -0.193 NA
ENDROOT
BRANCH  13  17
ATOM     17  C   UNL     1      -5.231  -6.506   4.698  0.00  0.00    +0.070 A 
ATOM     18  C   UNL     1      -5.096  -7.714   5.370  0.00  0.00    +0.028 A 
ATOM     19  C   UNL     1      -6.207  -8.331   5.910  0.00  0.00    +0.005 A 
ATOM     20  C   UNL     1      -7.455  -7.749   5.782  0.00  0.00    +0.038 A 
ATOM     21  C   UNL     1      -7.594  -6.545   5.112  0.00  0.00    +0.125 A 
ATOM     22  C   UNL     1      -6.484  -5.918   4.575  0.00  0.00    +0.066 A 
ATOM     23  F   UNL     1      -8.815  -5.978   4.989  0.00  0.00    -0.205 F 
ENDBRANCH  13  17
BRANCH  10  24
ATOM     24  C   UNL     1       0.234  -5.249   4.915  0.00  0.00    +0.154 A 
ATOM     25  C   UNL     1       1.171  -4.479   5.538  0.00  0.00    +0.051 A 
ATOM     26  C   UNL     1       1.798  -5.299   6.493  0.00  0.00    +0.042 A 
ATOM     27  C   UNL     1       1.221  -6.516   6.410  0.00  0.00    +0.196 A 
ATOM     28  O   UNL     1       0.275  -6.481   5.462  0.00  0.00    -0.461 OA
ENDBRANCH  10  24
BRANCH  12  29
ATOM     29  N   UNL     1      -2.497  -6.531   5.858  0.00  0.00    -0.342 N 
ATOM     30  H   UNL     1      -1.601  -6.413   6.209  0.00  0.00    +0.144 HD
ATOM     31  H   UNL     1      -3.133  -7.092   6.329  0.00  0.00    +0.144 HD
ENDBRANCH  12  29
TORSDOF 3
