REMARK  Name = ZINC50242494
REMARK  4 active torsions:
REMARK  status: ('A' for Active; 'I' for Inactive)
REMARK    1  A    between atoms: C_1  and  O_2
REMARK    2  A    between atoms: O_2  and  C_3
REMARK    3  A    between atoms: C_6  and  C_9
REMARK    4  A    between atoms: C_27  and  C_29
REMARK                            x       y       z     vdW  Elec       q    Type
REMARK                         _______ _______ _______ _____ _____    ______ ____
ROOT
ATOM      1  C   UNL     1      -4.643  -2.649  -0.098  0.00  0.00    +0.215 C 
ATOM      2  C   UNL     1      -5.181  -2.980  -1.490  0.00  0.00    +0.113 C 
ATOM      3  C   UNL     1      -4.066  -3.750  -2.181  0.00  0.00    +0.065 C 
ATOM      4  C   UNL     1      -3.413  -4.807  -1.401  0.00  0.00    +0.041 A 
ATOM      5  C   UNL     1      -2.637  -5.791  -2.013  0.00  0.00    +0.051 A 
ATOM      6  C   UNL     1      -2.034  -6.763  -1.238  0.00  0.00    +0.124 A 
ATOM      7  C   UNL     1      -2.199  -6.757   0.139  0.00  0.00    +0.042 A 
ATOM      8  C   UNL     1      -2.968  -5.788   0.753  0.00  0.00    +0.049 A 
ATOM      9  C   UNL     1      -3.586  -4.805  -0.005  0.00  0.00    +0.130 A 
ATOM     10  O   UNL     1      -4.352  -3.863   0.598  0.00  0.00    -0.483 OA
ATOM     11  F   UNL     1      -1.282  -7.721  -1.823  0.00  0.00    -0.205 F 
ATOM     12  N   UNL     1      -3.694  -3.417  -3.372  0.00  0.00    -0.215 NA
ATOM     13  C   UNL     1      -4.157  -2.337  -4.049  0.00  0.00    +0.249 A 
ATOM     14  N   UNL     1      -3.877  -1.913  -5.277  0.00  0.00    -0.198 NA
ATOM     15  C   UNL     1      -4.532  -0.784  -5.528  0.00  0.00    +0.247 A 
ATOM     16  N   UNL     1      -5.251  -0.458  -4.484  0.00  0.00    -0.156 NA
ATOM     17  N   UNL     1      -5.043  -1.455  -3.523  0.00  0.00    -0.221 N 
ATOM     18  C   UNL     1      -5.605  -1.671  -2.181  0.00  0.00    +0.155 C 
ENDROOT
BRANCH  18  19
ATOM     19  C   UNL     1      -5.191  -0.518  -1.303  0.00  0.00    -0.004 A 
ATOM     20  C   UNL     1      -5.822  -0.312  -0.090  0.00  0.00    +0.008 A 
ATOM     21  C   UNL     1      -5.443   0.745   0.715  0.00  0.00    +0.020 A 
ATOM     22  C   UNL     1      -4.432   1.598   0.308  0.00  0.00    +0.042 A 
ATOM     23  C   UNL     1      -3.801   1.392  -0.906  0.00  0.00    +0.040 A 
ATOM     24  C   UNL     1      -4.177   0.331  -1.709  0.00  0.00    +0.048 A 
ATOM     25 CL   UNL     1      -3.381   0.068  -3.229  0.00  0.00    -0.083 Cl
ATOM     26 CL   UNL     1      -3.957   2.927   1.319  0.00  0.00    -0.083 Cl
ENDBRANCH  18  19
BRANCH   1  30
ATOM     27  C   UNL     1      -1.078  -0.321  -0.463  0.00  0.00    +0.120 A 
ATOM     28  C   UNL     1      -1.637  -0.917  -1.585  0.00  0.00    +0.046 A 
ATOM     29  C   UNL     1      -2.789  -1.669  -1.464  0.00  0.00    +0.011 A 
ATOM     30  C   UNL     1      -3.386  -1.828  -0.227  0.00  0.00    -0.006 A 
ATOM     31  C   UNL     1      -2.831  -1.235   0.892  0.00  0.00    +0.011 A 
ATOM     32  C   UNL     1      -1.676  -0.487   0.778  0.00  0.00    +0.046 A 
BRANCH  27  34
ATOM     33  C   UNL     1       0.616   0.546  -1.887  0.00  0.00    +0.277 C 
ATOM     34  O   UNL     1       0.056   0.419  -0.579  0.00  0.00    -0.495 OA
ENDBRANCH  27  34
ENDBRANCH   1  30
TORSDOF 3
