REMARK  Name = ZINC06034165
REMARK  5 active torsions:
REMARK  status: ('A' for Active; 'I' for Inactive)
REMARK    1  A    between atoms: C_4  and  C_7
REMARK    2  A    between atoms: C_7  and  N_8
REMARK    3  A    between atoms: C_9  and  N_10
REMARK    4  A    between atoms: C_11  and  S_24
REMARK    5  A    between atoms: S_24  and  C_27
REMARK                            x       y       z     vdW  Elec       q    Type
REMARK                         _______ _______ _______ _____ _____    ______ ____
ROOT
ATOM      1  N   UNL     1      -3.043   4.868  -1.766  0.00  0.00    -0.308 N 
ATOM      2  C   UNL     1      -3.875   3.810  -2.067  0.00  0.00    +0.124 A 
ATOM      3  C   UNL     1      -4.502   3.726  -3.334  0.00  0.00    +0.132 A 
ATOM      4  C   UNL     1      -4.289   4.689  -4.264  0.00  0.00    +0.047 A 
ATOM      5  C   UNL     1      -3.438   5.775  -3.961  0.00  0.00    +0.084 A 
ATOM      6  C   UNL     1      -2.821   5.855  -2.696  0.00  0.00    +0.150 A 
ATOM      7  N   UNL     1      -2.018   6.876  -2.425  0.00  0.00    -0.211 NA
ATOM      8  C   UNL     1      -1.789   7.837  -3.319  0.00  0.00    +0.143 A 
ATOM      9  C   UNL     1      -0.934   8.901  -2.974  0.00  0.00    +0.047 A 
ATOM     10  C   UNL     1      -0.692   9.889  -3.881  0.00  0.00    +0.005 A 
ATOM     11  C   UNL     1      -1.298   9.833  -5.144  0.00  0.00    +0.018 A 
ATOM     12  C   UNL     1      -2.117   8.805  -5.458  0.00  0.00    +0.096 A 
ATOM     13  N   UNL     1      -2.366   7.811  -4.559  0.00  0.00    -0.268 N 
ATOM     14  C   UNL     1      -3.191   6.797  -4.905  0.00  0.00    +0.268 A 
ATOM     15  O   UNL     1      -3.709   6.765  -6.008  0.00  0.00    -0.267 OA
ENDROOT
BRANCH   2  16
ATOM     16  N   UNL     1      -4.087   2.873  -1.172  0.00  0.00    -0.343 N 
ATOM     17  H   UNL     1      -4.750   2.028  -1.407  0.00  0.00    +0.144 HD
ATOM     18  H   UNL     1      -3.602   2.934  -0.187  0.00  0.00    +0.144 HD
ENDBRANCH   2  16
BRANCH   3  19
ATOM     19  S   UNL     1      -5.562   2.367  -3.701  0.00  0.00    +0.028 S 
ATOM     20  O   UNL     1      -6.028   2.563  -5.029  0.00  0.00    -0.164 OA
ATOM     21  O   UNL     1      -4.870   1.193  -3.302  0.00  0.00    -0.164 OA
BRANCH  19  22
ATOM     22  C   UNL     1      -6.969   2.505  -2.649  0.00  0.00    +0.094 A 
ATOM     23  C   UNL     1      -7.026   1.780  -1.473  0.00  0.00    +0.029 A 
ATOM     24  C   UNL     1      -8.127   1.892  -0.645  0.00  0.00    +0.022 A 
ATOM     25  C   UNL     1      -9.177   2.721  -0.999  0.00  0.00    +0.041 A 
ATOM     26  C   UNL     1      -9.122   3.442  -2.178  0.00  0.00    +0.022 A 
ATOM     27  C   UNL     1      -8.018   3.333  -3.003  0.00  0.00    +0.029 A 
ATOM     28 CL   UNL     1     -10.563   2.857   0.038  0.00  0.00    -0.084 Cl
ENDBRANCH  19  22
ENDBRANCH   3  19
BRANCH   1  29
ATOM     29  C   UNL     1      -2.400   4.942  -0.452  0.00  0.00    +0.160 C 
BRANCH  29  33
ATOM     30  C   UNL     1       1.372   2.942  -0.598  0.00  0.00    +0.000 A 
ATOM     31  C   UNL     1       0.231   2.241  -0.257  0.00  0.00    +0.000 A 
ATOM     32  C   UNL     1      -0.991   2.887  -0.215  0.00  0.00    +0.005 A 
ATOM     33  C   UNL     1      -1.069   4.236  -0.503  0.00  0.00    -0.028 A 
ATOM     34  C   UNL     1       0.072   4.938  -0.844  0.00  0.00    +0.005 A 
ATOM     35  C   UNL     1       1.292   4.291  -0.891  0.00  0.00    +0.000 A 
ENDBRANCH  29  33
ENDBRANCH   1  29
TORSDOF 5
