REMARK  Name = ZINC08797820
REMARK  8 active torsions:
REMARK  status: ('A' for Active; 'I' for Inactive)
REMARK    1  A    between atoms: C_1  and  C_2
REMARK    2  A    between atoms: N_8  and  C_33
REMARK    3  A    between atoms: N_10  and  C_11
REMARK    4  A    between atoms: C_11  and  C_13
REMARK    5  A    between atoms: C_16  and  S_19
REMARK    6  A    between atoms: S_19  and  N_22
REMARK    7  A    between atoms: C_24  and  C_31
REMARK    8  A    between atoms: C_27  and  C_30
REMARK                            x       y       z     vdW  Elec       q    Type
REMARK                         _______ _______ _______ _____ _____    ______ ____
ROOT
ATOM      1  C   UNL     1      -0.051   4.525   0.101  0.00  0.00    +0.039 A 
ATOM      2  C   UNL     1       1.163   3.845  -0.007  0.00  0.00    +0.015 A 
ATOM      3  C   UNL     1       1.174   2.468  -0.089  0.00  0.00    +0.029 A 
ATOM      4  C   UNL     1      -0.015   1.761  -0.064  0.00  0.00    +0.106 A 
ATOM      5  C   UNL     1      -1.222   2.429   0.038  0.00  0.00    +0.029 A 
ATOM      6  C   UNL     1      -1.246   3.806   0.125  0.00  0.00    +0.015 A 
ENDROOT
BRANCH   4   7
ATOM      7  S   UNL     1       0.008   0.002  -0.168  0.00  0.00    +0.061 S 
ATOM      8  O   UNL     1      -1.261  -0.391  -0.673  0.00  0.00    -0.153 OA
ATOM      9  O   UNL     1       1.226  -0.350  -0.810  0.00  0.00    -0.153 OA
BRANCH   7  10
ATOM     10  N   UNL     1       0.103  -0.579   1.379  0.00  0.00    -0.172 NA
ATOM     11  C   UNL     1       1.406  -0.831   2.015  0.00  0.00    +0.140 C 
ATOM     12  C   UNL     1       1.409  -0.141   3.389  0.00  0.00    +0.131 C 
ATOM     13  O   UNL     1       0.254  -0.554   4.124  0.00  0.00    -0.371 OA
ATOM     14  C   UNL     1      -0.987  -0.180   3.522  0.00  0.00    +0.131 C 
ATOM     15  C   UNL     1      -1.113  -0.866   2.157  0.00  0.00    +0.140 C 
ATOM     16  C   UNL     1      -2.145  -0.616   4.422  0.00  0.00    +0.039 C 
ATOM     17  C   UNL     1       1.381   1.378   3.204  0.00  0.00    +0.039 C 
ENDBRANCH   7  10
ENDBRANCH   4   7
BRANCH   1  18
ATOM     18  C   UNL     1      -0.070   6.003   0.188  0.00  0.00    +0.269 C 
ATOM     19  O   UNL     1       0.976   6.629   0.166  0.00  0.00    -0.268 OA
BRANCH  18  29
ATOM     20  C   UNL     1      -4.581  10.791   0.722  0.00  0.00    +0.046 C 
ATOM     21  C   UNL     1      -3.124  11.174   0.662  0.00  0.00    -0.026 A 
ATOM     22  C   UNL     1      -2.768  12.500   0.720  0.00  0.00    +0.007 A 
ATOM     23  C   UNL     1      -1.440  12.890   0.668  0.00  0.00    +0.021 A 
ATOM     24  C   UNL     1      -0.455  11.922   0.556  0.00  0.00    +0.057 A 
ATOM     25  C   UNL     1      -0.812  10.595   0.498  0.00  0.00    +0.057 A 
ATOM     26  C   UNL     1      -2.148  10.172   0.549  0.00  0.00    +0.062 A 
ATOM     27  N   UNL     1      -2.328   8.803   0.473  0.00  0.00    -0.324 N 
ATOM     28  C   UNL     1      -1.252   7.978   0.370  0.00  0.00    +0.167 A 
ATOM     29  N   UNL     1      -1.234   6.652   0.291  0.00  0.00    -0.152 NA
ATOM     30  S   UNL     1       0.092   9.074   0.358  0.00  0.00    -0.051 S 
ATOM     31  C   UNL     1      -3.681   8.240   0.508  0.00  0.00    +0.151 C 
ATOM     32 CL   UNL     1       1.218  12.381   0.489  0.00  0.00    -0.082 Cl
ENDBRANCH  18  29
ENDBRANCH   1  18
TORSDOF 4
