REMARK  Name = ZINC01390435
REMARK  5 active torsions:
REMARK  status: ('A' for Active; 'I' for Inactive)
REMARK    1  A    between atoms: C_1  and  C_2
REMARK    2  A    between atoms: C_5  and  S_8
REMARK    3  A    between atoms: S_8  and  C_11
REMARK    4  A    between atoms: C_15  and  C_21
REMARK    5  A    between atoms: C_19  and  N_20
REMARK                            x       y       z     vdW  Elec       q    Type
REMARK                         _______ _______ _______ _____ _____    ______ ____
ROOT
ATOM      1  C   UNL     1       2.290  -0.272   0.173  0.00  0.00    +0.151 A 
ATOM      2  C   UNL     1       1.219  -1.163   0.232  0.00  0.00    +0.144 A 
ATOM      3  N   UNL     1      -0.015  -0.714   0.321  0.00  0.00    -0.234 NA
ATOM      4  C   UNL     1      -0.273   0.598   0.358  0.00  0.00    +0.165 A 
ATOM      5  C   UNL     1      -1.467   1.324   0.442  0.00  0.00    +0.046 A 
ATOM      6  C   UNL     1      -1.127   2.682   0.445  0.00  0.00    +0.145 A 
ATOM      7  N   UNL     1       0.176   2.792   0.360  0.00  0.00    -0.171 NA
ATOM      8  N   UNL     1       0.744   1.515   0.303  0.00  0.00    -0.198 N 
ATOM      9  C   UNL     1       2.041   1.084   0.210  0.00  0.00    +0.147 A 
ENDROOT
BRANCH   5  10
ATOM     10  C   UNL     1      -2.835   0.760   0.517  0.00  0.00    -0.013 A 
ATOM     11  C   UNL     1      -3.246  -0.204  -0.403  0.00  0.00    +0.010 A 
ATOM     12  C   UNL     1      -4.519  -0.730  -0.325  0.00  0.00    +0.020 A 
ATOM     13  C   UNL     1      -5.392  -0.293   0.657  0.00  0.00    +0.041 A 
ATOM     14  C   UNL     1      -4.992   0.668   1.569  0.00  0.00    +0.020 A 
ATOM     15  C   UNL     1      -3.719   1.197   1.504  0.00  0.00    +0.010 A 
ATOM     16 CL   UNL     1      -6.996  -0.953   0.745  0.00  0.00    -0.084 Cl
ENDBRANCH   5  10
BRANCH   1  17
ATOM     17  S   UNL     1       3.943  -0.872   0.054  0.00  0.00    +0.030 S 
ATOM     18  O   UNL     1       3.863  -2.290   0.081  0.00  0.00    -0.164 OA
ATOM     19  O   UNL     1       4.556  -0.163  -1.014  0.00  0.00    -0.164 OA
BRANCH  17  24
ATOM     20  C   UNL     1       6.811   0.789   5.096  0.00  0.00    +0.044 C 
ATOM     21  C   UNL     1       6.095   0.374   3.837  0.00  0.00    -0.050 A 
ATOM     22  C   UNL     1       5.322  -0.772   3.827  0.00  0.00    +0.005 A 
ATOM     23  C   UNL     1       4.665  -1.152   2.672  0.00  0.00    +0.027 A 
ATOM     24  C   UNL     1       4.780  -0.387   1.527  0.00  0.00    +0.094 A 
ATOM     25  C   UNL     1       5.558   0.756   1.535  0.00  0.00    +0.027 A 
ATOM     26  C   UNL     1       6.211   1.139   2.692  0.00  0.00    +0.005 A 
ENDBRANCH  17  24
ENDBRANCH   1  17
BRANCH   9  27
ATOM     27  N   UNL     1       3.078   1.989   0.153  0.00  0.00    -0.341 N 
ATOM     28  H   UNL     1       3.982   1.681  -0.017  0.00  0.00    +0.144 HD
ATOM     29  H   UNL     1       2.904   2.935   0.283  0.00  0.00    +0.144 HD
ENDBRANCH   9  27
TORSDOF 4
