REMARK  Name = ZINC08741531
REMARK  7 active torsions:
REMARK  status: ('A' for Active; 'I' for Inactive)
REMARK    1  A    between atoms: C_1  and  C_2
REMARK    2  A    between atoms: C_2  and  C_3
REMARK    3  A    between atoms: C_2  and  C_4
REMARK    4  A    between atoms: N_7  and  S_8
REMARK    5  A    between atoms: S_8  and  C_11
REMARK    6  A    between atoms: C_15  and  N_17
REMARK    7  A    between atoms: C_20  and  C_26
REMARK                            x       y       z     vdW  Elec       q    Type
REMARK                         _______ _______ _______ _____ _____    ______ ____
ROOT
ATOM      1  C   UNL     1       1.606  -6.471  -1.130  0.00  0.00    +0.001 C 
ATOM      2  C   UNL     1       1.262  -5.198  -0.838  0.00  0.00    +0.033 C 
ATOM      3  C   UNL     1       1.238  -4.181  -1.903  0.00  0.00    +0.081 C 
ATOM      4  N   UNL     1       1.223  -2.921  -1.609  0.00  0.00    -0.132 NA
ATOM      5  C   UNL     1       1.224  -4.635  -3.346  0.00  0.00    +0.086 C 
ATOM      6  C   UNL     1       2.277  -5.748  -3.499  0.00  0.00    +0.149 C 
ATOM      7  C   UNL     1       1.947  -6.841  -2.507  0.00  0.00    +0.175 C 
ATOM      8  O   UNL     1       1.964  -8.006  -2.845  0.00  0.00    -0.291 OA
ATOM      9 BR   UNL     1       4.069  -5.031  -3.125  0.00  0.00    -0.078 Br
ATOM     10  C   UNL     1       1.575  -3.459  -4.261  0.00  0.00    +0.031 C 
ATOM     11 BR   UNL     1      -0.557  -5.329  -3.807  0.00  0.00    -0.076 Br
ENDROOT
BRANCH   1  13
ATOM     12  C   UNL     1       0.655  -8.634  -0.377  0.00  0.00    +0.012 C 
ATOM     13  C   UNL     1       1.639  -7.512  -0.041  0.00  0.00    +0.016 C 
ATOM     14  C   UNL     1       3.052  -8.089   0.071  0.00  0.00    +0.012 C 
ENDBRANCH   1  13
BRANCH   4  15
ATOM     15  S   UNL     1       1.232  -2.441  -0.024  0.00  0.00    +0.099 S 
ATOM     16  O   UNL     1       2.488  -2.833   0.512  0.00  0.00    -0.146 OA
ATOM     17  O   UNL     1      -0.002  -2.867   0.537  0.00  0.00    -0.146 OA
BRANCH  15  18
ATOM     18  C   UNL     1       1.208  -0.679  -0.014  0.00  0.00    +0.115 A 
ATOM     19  C   UNL     1       2.396   0.029  -0.022  0.00  0.00    +0.029 A 
ATOM     20  C   UNL     1       2.377   1.411  -0.014  0.00  0.00    +0.004 A 
ATOM     21  C   UNL     1       1.171   2.086   0.002  0.00  0.00    +0.033 A 
ATOM     22  C   UNL     1      -0.017   1.378   0.010  0.00  0.00    +0.128 A 
ATOM     23  C   UNL     1       0.002  -0.004   0.002  0.00  0.00    +0.061 A 
BRANCH  22  24
ATOM     24  N   UNL     1      -1.308   2.101   0.020  0.00  0.00    +0.056 N 
ATOM     25  O   UNL     1      -2.355   1.478   0.021  0.00  0.00    -0.126 OA
ATOM     26  O   UNL     1      -1.325   3.319   0.026  0.00  0.00    -0.126 OA
ENDBRANCH  22  24
ENDBRANCH  15  18
ENDBRANCH   4  15
TORSDOF 4
