REMARK  Name = ZINC33435755
REMARK  3 active torsions:
REMARK  status: ('A' for Active; 'I' for Inactive)
REMARK    1  A    between atoms: N_19  and  C_20
REMARK    2  A    between atoms: C_21  and  C_25
REMARK    3  A    between atoms: C_30  and  N_33
REMARK                            x       y       z     vdW  Elec       q    Type
REMARK                         _______ _______ _______ _____ _____    ______ ____
ROOT
ATOM      1  C   UNL     1      -3.819   5.915  -1.256  0.00  0.00    +0.126 A 
ATOM      2  C   UNL     1      -4.168   6.751  -2.320  0.00  0.00    +0.178 A 
ATOM      3  N   UNL     1      -4.889   7.819  -2.014  0.00  0.00    -0.135 NA
ATOM      4  N   UNL     1      -5.238   8.053  -0.794  0.00  0.00    -0.108 NA
ATOM      5  S   UNL     1      -4.566   6.742   0.074  0.00  0.00    +0.052 S 
ENDROOT
BRANCH   1  22
ATOM      6  C   UNL     1       0.963   5.626   2.368  0.00  0.00    +0.007 A 
ATOM      7  C   UNL     1       0.517   4.300   2.350  0.00  0.00    +0.022 A 
ATOM      8  C   UNL     1       0.360   3.639   1.172  0.00  0.00    +0.027 A 
ATOM      9  N   UNL     1       0.693   4.233   0.004  0.00  0.00    -0.312 N 
ATOM     10  C   UNL     1       1.039   5.544  -0.014  0.00  0.00    +0.251 A 
ATOM     11  O   UNL     1       1.200   6.113  -1.082  0.00  0.00    -0.268 OA
ATOM     12  C   UNL     1       1.214   6.253   1.183  0.00  0.00    +0.070 A 
ATOM     13  C   UNL     1       0.760   3.514  -1.269  0.00  0.00    +0.130 C 
ATOM     14  C   UNL     1      -0.048   2.208  -1.246  0.00  0.00    +0.027 C 
ATOM     15  C   UNL     1       0.301   1.432   0.025  0.00  0.00    +0.018 C 
ATOM     16  C   UNL     1      -0.194   2.235   1.232  0.00  0.00    +0.054 C 
ATOM     17  C   UNL     1      -1.729   2.315   1.162  0.00  0.00    +0.119 C 
ATOM     18  N   UNL     1      -2.075   2.985  -0.103  0.00  0.00    -0.284 N 
ATOM     19  C   UNL     1      -1.550   2.430  -1.356  0.00  0.00    +0.114 C 
ATOM     20  C   UNL     1      -2.858   4.082  -0.109  0.00  0.00    +0.307 C 
ATOM     21  O   UNL     1      -3.362   4.475   0.925  0.00  0.00    -0.252 OA
ATOM     22  N   UNL     1      -3.082   4.743  -1.262  0.00  0.00    -0.261 N 
ATOM     23  H   UNL     1      -2.680   4.351  -2.208  0.00  0.00    +0.157 HD
ENDBRANCH   1  22
BRANCH   2  24
ATOM     24  C   UNL     1      -3.757   6.462  -3.700  0.00  0.00    +0.269 C 
ATOM     25  O   UNL     1      -2.994   5.542  -3.928  0.00  0.00    -0.268 OA
ATOM     26  N   UNL     1      -4.225   7.216  -4.715  0.00  0.00    -0.296 N 
ATOM     27  C   UNL     1      -5.253   8.238  -4.475  0.00  0.00    +0.106 C 
ATOM     28  C   UNL     1      -4.748   9.578  -5.030  0.00  0.00    +0.004 C 
ATOM     29  C   UNL     1      -4.367   9.403  -6.502  0.00  0.00    -0.066 C 
ATOM     30  C   UNL     1      -3.238   8.378  -6.620  0.00  0.00    +0.004 C 
ATOM     31  C   UNL     1      -3.721   7.027  -6.082  0.00  0.00    +0.106 C 
BRANCH  29  32
ATOM     32  N   UNL     1      -3.918  10.691  -7.047  0.00  0.00    +0.382 N 
ATOM     33  C   UNL     1      -2.759  11.202  -6.303  0.00  0.00    -0.078 C 
ATOM     34  C   UNL     1      -2.229  12.465  -6.986  0.00  0.00    -0.019 C 
ATOM     35  C   UNL     1      -3.339  13.520  -7.027  0.00  0.00    -0.004 C 
ATOM     36  C   UNL     1      -4.551  12.946  -7.765  0.00  0.00    -0.019 C 
ATOM     37  C   UNL     1      -5.013  11.669  -7.060  0.00  0.00    -0.078 C 
ATOM     38  H   UNL     1      -3.602  10.528  -8.088  0.00  0.00    -0.081 HD
ENDBRANCH  29  32
ENDBRANCH   2  24
TORSDOF 3
