REMARK  Name = ZINC15729184
REMARK  10 active torsions:
REMARK  status: ('A' for Active; 'I' for Inactive)
REMARK    1  A    between atoms: C_1  and  C_2
REMARK    2  A    between atoms: C_5  and  N_29
REMARK    3  A    between atoms: C_6  and  C_8
REMARK    4  A    between atoms: C_12  and  S_15
REMARK    5  A    between atoms: S_15  and  C_16
REMARK    6  A    between atoms: C_16  and  C_17
REMARK    7  A    between atoms: N_19  and  C_20
REMARK    8  A    between atoms: C_23  and  C_26
REMARK    9  A    between atoms: C_26  and  C_28
REMARK   10  A    between atoms: C_30  and  C_32
REMARK                            x       y       z     vdW  Elec       q    Type
REMARK                         _______ _______ _______ _____ _____    ______ ____
ROOT
ATOM      1  C   UNL     1      -0.038  -3.010   1.830  0.00  0.00    +0.161 A 
ATOM      2  C   UNL     1       0.072  -2.368   3.077  0.00  0.00    +0.300 A 
ATOM      3  O   UNL     1       0.278  -1.031   3.151  0.00  0.00    -0.263 OA
ATOM      4  N   UNL     1      -0.029  -3.100   4.179  0.00  0.00    -0.180 NA
ATOM      5  C   UNL     1      -0.231  -4.410   4.077  0.00  0.00    +0.213 A 
ATOM      6  N   UNL     1      -0.333  -4.995   2.891  0.00  0.00    -0.122 NA
ATOM      7  N   UNL     1      -0.245  -4.322   1.798  0.00  0.00    -0.141 NA
ENDROOT
BRANCH   1  13
ATOM      8  C   UNL     1       2.340   0.366  -0.972  0.00  0.00    +0.044 C 
ATOM      9  C   UNL     1       1.208  -0.610  -0.780  0.00  0.00    -0.050 A 
ATOM     10  C   UNL     1       0.267  -0.780  -1.780  0.00  0.00    +0.005 A 
ATOM     11  C   UNL     1      -0.775  -1.672  -1.615  0.00  0.00    +0.024 A 
ATOM     12  C   UNL     1      -0.883  -2.404  -0.441  0.00  0.00    +0.043 A 
ATOM     13  C   UNL     1       0.068  -2.234   0.573  0.00  0.00    +0.029 A 
ATOM     14  C   UNL     1       1.117  -1.335   0.391  0.00  0.00    +0.015 A 
BRANCH  12  15
ATOM     15  N   UNL     1      -1.937  -3.306  -0.271  0.00  0.00    -0.285 N 
ATOM     16  C   UNL     1      -2.570  -3.813  -1.347  0.00  0.00    +0.214 C 
ATOM     17  O   UNL     1      -2.164  -3.565  -2.463  0.00  0.00    -0.276 OA
ATOM     18  C   UNL     1      -3.782  -4.689  -1.165  0.00  0.00    +0.109 C 
ATOM     19  H   UNL     1      -2.212  -3.567   0.622  0.00  0.00    +0.155 HD
ENDBRANCH  12  15
ENDBRANCH   1  13
BRANCH   5  20
ATOM     20  S   UNL     1      -0.365  -5.383   5.540  0.00  0.00    -0.075 S 
BRANCH  20  21
ATOM     21  C   UNL     1      -0.630  -7.068   4.923  0.00  0.00    +0.173 C 
BRANCH  21  22
ATOM     22  C   UNL     1      -0.763  -8.015   6.088  0.00  0.00    +0.227 C 
ATOM     23  O   UNL     1      -0.687  -7.594   7.223  0.00  0.00    -0.275 OA
ATOM     24  N   UNL     1      -0.967  -9.329   5.868  0.00  0.00    -0.285 N 
ATOM     25  H   UNL     1      -0.953  -9.677   4.963  0.00  0.00    +0.155 HD
BRANCH  24  26
ATOM     26  C   UNL     1      -1.198 -10.187   6.942  0.00  0.00    +0.033 A 
ATOM     27  C   UNL     1      -0.728 -11.497   6.896  0.00  0.00    +0.024 A 
ATOM     28  C   UNL     1      -0.952 -12.344   7.950  0.00  0.00    +0.013 A 
ATOM     29  C   UNL     1      -1.655 -11.890   9.074  0.00  0.00    +0.017 A 
ATOM     30  C   UNL     1      -2.125 -10.572   9.115  0.00  0.00    +0.013 A 
ATOM     31  C   UNL     1      -1.891  -9.730   8.059  0.00  0.00    +0.024 A 
BRANCH  29  32
ATOM     32  C   UNL     1      -1.897 -12.794  10.205  0.00  0.00    +0.160 C 
ATOM     33  O   UNL     1      -1.490 -13.936  10.168  0.00  0.00    -0.292 OA
ATOM     34  C   UNL     1      -2.653 -12.304  11.413  0.00  0.00    +0.091 C 
ENDBRANCH  29  32
ENDBRANCH  24  26
ENDBRANCH  21  22
ENDBRANCH  20  21
ENDBRANCH   5  20
TORSDOF 7
