REMARK  Name = ZINC32637356
REMARK  3 active torsions:
REMARK  status: ('A' for Active; 'I' for Inactive)
REMARK    1  A    between atoms: C_6  and  C_7
REMARK    2  A    between atoms: C_14  and  C_16
REMARK    3  A    between atoms: C_18  and  N_23
REMARK                            x       y       z     vdW  Elec       q    Type
REMARK                         _______ _______ _______ _____ _____    ______ ____
ROOT
ATOM      1  C   UNL     1      -1.021  -1.156   0.212  0.00  0.00    +0.166 C 
ATOM      2  C   UNL     1      -1.561  -1.309   1.638  0.00  0.00    +0.144 C 
ATOM      3  N   UNL     1      -2.739  -2.191   1.596  0.00  0.00    -0.293 N 
ATOM      4  C   UNL     1      -2.614  -3.479   0.897  0.00  0.00    +0.136 C 
ATOM      5  C   UNL     1      -2.022  -3.220  -0.493  0.00  0.00    +0.179 C 
ATOM      6  O   UNL     1      -0.825  -2.451  -0.360  0.00  0.00    -0.369 OA
ATOM      7  C   UNL     1      -3.898  -1.828   2.180  0.00  0.00    +0.248 C 
ATOM      8  O   UNL     1      -3.961  -0.794   2.817  0.00  0.00    -0.270 OA
ENDROOT
BRANCH   1  14
ATOM      9  C   UNL     1       0.320   0.951   0.050  0.00  0.00    +0.009 A 
ATOM     10  C   UNL     1       1.524   1.630   0.083  0.00  0.00    +0.039 A 
ATOM     11  C   UNL     1       2.701   0.939   0.314  0.00  0.00    +0.123 A 
ATOM     12  C   UNL     1       2.672  -0.431   0.511  0.00  0.00    +0.039 A 
ATOM     13  C   UNL     1       1.467  -1.108   0.478  0.00  0.00    +0.009 A 
ATOM     14  C   UNL     1       0.292  -0.417   0.247  0.00  0.00    -0.017 A 
ATOM     15  F   UNL     1       3.878   1.601   0.345  0.00  0.00    -0.205 F 
ENDBRANCH   1  14
BRANCH   7  16
ATOM     16  C   UNL     1      -5.093  -2.687   2.047  0.00  0.00    +0.052 A 
ATOM     17  C   UNL     1      -5.027  -4.039   2.392  0.00  0.00    +0.046 A 
ATOM     18  C   UNL     1      -6.146  -4.835   2.265  0.00  0.00    +0.127 A 
ATOM     19  C   UNL     1      -7.333  -4.298   1.798  0.00  0.00    +0.034 A 
ATOM     20  C   UNL     1      -7.406  -2.960   1.455  0.00  0.00    +0.017 A 
ATOM     21  C   UNL     1      -6.295  -2.150   1.583  0.00  0.00    +0.026 A 
ATOM     22  I   UNL     1      -6.411  -0.122   1.071  0.00  0.00    -0.043 I 
BRANCH  18  23
ATOM     23  N   UNL     1      -6.077  -6.268   2.630  0.00  0.00    +0.056 N 
ATOM     24  O   UNL     1      -5.041  -6.739   3.038  0.00  0.00    -0.126 OA
ATOM     25  O   UNL     1      -7.057  -6.968   2.519  0.00  0.00    -0.126 OA
ENDBRANCH  18  23
ENDBRANCH   7  16
TORSDOF 3
