REMARK  Name = ZINC02927520
REMARK  4 active torsions:
REMARK  status: ('A' for Active; 'I' for Inactive)
REMARK    1  A    between atoms: C_1  and  C_2
REMARK    2  A    between atoms: C_7  and  N_8
REMARK    3  A    between atoms: C_9  and  C_11
REMARK    4  A    between atoms: C_11  and  N_12
REMARK                            x       y       z     vdW  Elec       q    Type
REMARK                         _______ _______ _______ _____ _____    ______ ____
ROOT
ATOM      1  N   UNL     1       5.385   3.602  -1.697  0.00  0.00    -0.284 N 
ATOM      2  C   UNL     1       4.080   3.817  -1.438  0.00  0.00    +0.237 C 
ATOM      3  O   UNL     1       3.295   3.958  -2.351  0.00  0.00    -0.274 OA
ATOM      4  H   UNL     1       6.026   3.569  -0.970  0.00  0.00    +0.155 HD
ENDROOT
BRANCH   1  11
ATOM      5  C   UNL     1       8.089   4.229  -2.323  0.00  0.00    +0.046 C 
ATOM      6  C   UNL     1       7.128   3.720  -3.365  0.00  0.00    -0.028 A 
ATOM      7  C   UNL     1       7.552   3.540  -4.668  0.00  0.00    +0.020 A 
ATOM      8  C   UNL     1       6.669   3.078  -5.627  0.00  0.00    +0.018 A 
ATOM      9  C   UNL     1       5.359   2.790  -5.284  0.00  0.00    +0.017 A 
ATOM     10  C   UNL     1       4.931   2.963  -3.982  0.00  0.00    +0.024 A 
ATOM     11  C   UNL     1       5.816   3.426  -3.017  0.00  0.00    +0.036 A 
ATOM     12 BR   UNL     1       7.251   2.840  -7.410  0.00  0.00    -0.050 Br
ENDBRANCH   1  11
BRANCH   2  13
ATOM     13  C   UNL     1       3.596   3.882  -0.012  0.00  0.00    +0.224 C 
BRANCH  13  14
ATOM     14  N   UNL     1       2.151   4.123   0.003  0.00  0.00    -0.265 N 
ATOM     15  C   UNL     1       1.153   3.150  -0.001  0.00  0.00    +0.091 A 
ATOM     16  C   UNL     1       1.175   1.764  -0.019  0.00  0.00    +0.030 A 
ATOM     17  C   UNL     1      -0.012   1.058  -0.018  0.00  0.00    +0.002 A 
ATOM     18  C   UNL     1      -1.222   1.730  -0.005  0.00  0.00    +0.004 A 
ATOM     19  C   UNL     1      -1.252   3.111   0.019  0.00  0.00    +0.048 A 
ATOM     20  C   UNL     1      -0.065   3.828   0.018  0.00  0.00    +0.157 A 
ATOM     21  O   UNL     1       0.213   5.155   0.032  0.00  0.00    -0.407 OA
ATOM     22  C   UNL     1       1.544   5.326   0.023  0.00  0.00    +0.422 A 
ATOM     23  O   UNL     1       2.114   6.400   0.031  0.00  0.00    -0.223 OA
ENDBRANCH  13  14
ENDBRANCH   2  13
TORSDOF 3
