REMARK  Name = ZINC32508218
REMARK  4 active torsions:
REMARK  status: ('A' for Active; 'I' for Inactive)
REMARK    1  A    between atoms: C_5  and  C_7
REMARK    2  A    between atoms: C_7  and  C_8
REMARK    3  A    between atoms: C_8  and  N_10
REMARK    4  A    between atoms: N_12  and  C_23
REMARK                            x       y       z     vdW  Elec       q    Type
REMARK                         _______ _______ _______ _____ _____    ______ ____
ROOT
ATOM      1  N   UNL     1       1.834  -3.986   1.395  0.00  0.00    -0.159 NA
ATOM      2  C   UNL     1       1.781  -4.555   2.594  0.00  0.00    +0.154 C 
ATOM      3  N   UNL     1       1.752  -3.925   3.835  0.00  0.00    -0.276 N 
ATOM      4  C   UNL     1       1.947  -4.793   4.954  0.00  0.00    +0.116 C 
ATOM      5  C   UNL     1       1.706  -4.387   6.399  0.00  0.00    +0.190 C 
ATOM      6  S   UNL     1       1.736  -6.051   7.213  0.00  0.00    -0.028 S 
ATOM      7  O   UNL     1       0.499  -6.263   7.880  0.00  0.00    -0.174 OA
ATOM      8  O   UNL     1       2.953  -6.194   7.931  0.00  0.00    -0.174 OA
ATOM      9  C   UNL     1       1.797  -7.119   5.697  0.00  0.00    +0.182 C 
ATOM     10  C   UNL     1       1.147  -6.128   4.705  0.00  0.00    +0.097 C 
ATOM     11  S   UNL     1       1.722  -6.312   2.975  0.00  0.00    -0.086 S 
ENDROOT
BRANCH   3  12
ATOM     12  C   UNL     1       1.548  -2.546   3.976  0.00  0.00    +0.039 A 
ATOM     13  C   UNL     1       0.289  -2.005   3.753  0.00  0.00    +0.027 A 
ATOM     14  C   UNL     1       0.085  -0.645   3.892  0.00  0.00    +0.051 A 
ATOM     15  C   UNL     1       1.137   0.182   4.255  0.00  0.00    +0.166 A 
ATOM     16  C   UNL     1       2.400  -0.359   4.480  0.00  0.00    +0.168 A 
ATOM     17  C   UNL     1       2.602  -1.722   4.345  0.00  0.00    +0.073 A 
ATOM     18  O   UNL     1       3.253   0.652   4.821  0.00  0.00    -0.453 OA
ATOM     19  C   UNL     1       2.597   1.864   4.405  0.00  0.00    +0.466 C 
ATOM     20  O   UNL     1       1.198   1.531   4.456  0.00  0.00    -0.453 OA
ENDBRANCH   3  12
BRANCH   1  21
ATOM     21  C   UNL     1       2.021  -2.672   1.290  0.00  0.00    +0.243 C 
ATOM     22  O   UNL     1       3.004  -2.157   1.787  0.00  0.00    -0.273 OA
BRANCH  21  23
ATOM     23  C   UNL     1       1.015  -1.824   0.556  0.00  0.00    +0.134 C 
BRANCH  23  28
ATOM     24  C   UNL     1       1.502   1.882   1.083  0.00  0.00    +0.000 A 
ATOM     25  C   UNL     1       2.512   2.160   0.181  0.00  0.00    +0.001 A 
ATOM     26  C   UNL     1       3.038   1.149  -0.600  0.00  0.00    +0.020 A 
ATOM     27  C   UNL     1       2.554  -0.142  -0.479  0.00  0.00    +0.045 A 
ATOM     28  C   UNL     1       1.543  -0.419   0.424  0.00  0.00    -0.020 A 
ATOM     29  C   UNL     1       1.017   0.593   1.204  0.00  0.00    +0.005 A 
ATOM     30 CL   UNL     1       3.214  -1.413  -1.460  0.00  0.00    -0.083 Cl
ENDBRANCH  23  28
ENDBRANCH  21  23
ENDBRANCH   1  21
TORSDOF 4
