REMARK  Name = ZINC05095390
REMARK  7 active torsions:
REMARK  status: ('A' for Active; 'I' for Inactive)
REMARK    1  A    between atoms: C_1  and  C_2
REMARK    2  A    between atoms: C_2  and  C_3
REMARK    3  A    between atoms: C_2  and  C_4
REMARK    4  A    between atoms: C_2  and  C_5
REMARK    5  A    between atoms: C_12  and  N_26
REMARK    6  A    between atoms: C_13  and  C_24
REMARK    7  A    between atoms: C_14  and  C_16
REMARK                            x       y       z     vdW  Elec       q    Type
REMARK                         _______ _______ _______ _____ _____    ______ ____
ROOT
ATOM      1  C   UNL     1       1.398  -0.944  -1.968  0.00  0.00    +0.076 A 
ATOM      2  C   UNL     1       1.027  -2.268  -2.166  0.00  0.00    +0.050 A 
ATOM      3  C   UNL     1       1.398  -2.627  -3.432  0.00  0.00    +0.222 A 
ATOM      4  N   UNL     1       1.982  -1.561  -4.001  0.00  0.00    -0.246 N 
ATOM      5  H   UNL     1       2.346  -1.521  -4.900  0.00  0.00    +0.192 HD
ATOM      6  N   UNL     1       1.967  -0.512  -3.068  0.00  0.00    -0.175 NA
ATOM      7  O   UNL     1       1.172  -3.865  -3.937  0.00  0.00    -0.423 OA
ATOM      8  C   UNL     1       0.324  -4.669  -3.264  0.00  0.00    +0.200 C 
ATOM      9  C   UNL     1      -0.104  -4.426  -2.006  0.00  0.00    +0.098 C 
ATOM     10  C   UNL     1       0.338  -3.217  -1.220  0.00  0.00    +0.101 C 
ENDROOT
BRANCH  10  11
ATOM     11  C   UNL     1       1.296  -3.638  -0.135  0.00  0.00    -0.033 A 
ATOM     12  C   UNL     1       2.623  -3.879  -0.440  0.00  0.00    +0.007 A 
ATOM     13  C   UNL     1       3.502  -4.264   0.554  0.00  0.00    +0.040 A 
ATOM     14  C   UNL     1       3.054  -4.409   1.856  0.00  0.00    +0.137 A 
ATOM     15  C   UNL     1       1.725  -4.167   2.161  0.00  0.00    +0.053 A 
ATOM     16  C   UNL     1       0.848  -3.776   1.166  0.00  0.00    +0.022 A 
ATOM     17 BR   UNL     1       1.111  -4.363   3.939  0.00  0.00    -0.047 Br
ATOM     18  F   UNL     1       3.913  -4.786   2.829  0.00  0.00    -0.204 F 
ENDBRANCH  10  11
BRANCH   1  20
ATOM     19  C   UNL     1       1.592   1.310  -0.955  0.00  0.00    +0.017 C 
ATOM     20  C   UNL     1       1.180  -0.143  -0.711  0.00  0.00    +0.007 C 
ATOM     21  C   UNL     1       2.025  -0.729   0.422  0.00  0.00    +0.017 C 
ATOM     22  C   UNL     1      -0.299  -0.195  -0.323  0.00  0.00    +0.017 C 
ENDBRANCH   1  20
BRANCH   8  23
ATOM     23  N   UNL     1      -0.132  -5.800  -3.895  0.00  0.00    -0.328 N 
ATOM     24  H   UNL     1       0.157  -6.001  -4.799  0.00  0.00    +0.145 HD
ATOM     25  H   UNL     1      -0.743  -6.398  -3.437  0.00  0.00    +0.145 HD
ENDBRANCH   8  23
BRANCH   9  26
ATOM     26  C   UNL     1      -1.010  -5.352  -1.395  0.00  0.00    +0.101 C 
ATOM     27  N   UNL     1      -1.729  -6.086  -0.910  0.00  0.00    -0.191 NA
ENDBRANCH   9  26
TORSDOF 4
