REMARK  Name = ZINC65182589
REMARK  10 active torsions:
REMARK  status: ('A' for Active; 'I' for Inactive)
REMARK    1  A    between atoms: C_1  and  C_2
REMARK    2  A    between atoms: C_7  and  C_13
REMARK    3  A    between atoms: C_9  and  C_12
REMARK    4  A    between atoms: C_16  and  C_19
REMARK    5  A    between atoms: C_19  and  C_20
REMARK    6  A    between atoms: C_20  and  N_21
REMARK    7  A    between atoms: N_21  and  C_22
REMARK    8  A    between atoms: C_23  and  C_25
REMARK    9  A    between atoms: C_27  and  C_32
REMARK   10  A    between atoms: C_30  and  C_31
REMARK                            x       y       z     vdW  Elec       q    Type
REMARK                         _______ _______ _______ _____ _____    ______ ____
ROOT
ATOM      1  C   UNL     1      -1.405  -5.050   1.969  0.00  0.00    +0.318 C 
ATOM      2  N   UNL     1      -1.533  -6.414   1.432  0.00  0.00    -0.291 N 
ATOM      3  C   UNL     1      -2.534  -6.379   0.489  0.00  0.00    +0.139 C 
ATOM      4  N   UNL     1      -3.031  -5.201   0.374  0.00  0.00    -0.072 NA
ATOM      5  O   UNL     1      -2.396  -4.291   1.258  0.00  0.00    -0.367 OA
ATOM      6  H   UNL     1      -1.011  -7.189   1.693  0.00  0.00    +0.151 HD
ENDROOT
BRANCH   1  13
ATOM      7  C   UNL     1       1.095   1.191  -0.188  0.00  0.00    +0.044 C 
ATOM      8  C   UNL     1       0.859  -0.294  -0.085  0.00  0.00    -0.050 A 
ATOM      9  C   UNL     1       0.893  -1.073  -1.249  0.00  0.00    +0.005 A 
ATOM     10  C   UNL     1       0.691  -2.408  -1.240  0.00  0.00    +0.026 A 
ATOM     11  C   UNL     1       0.429  -3.087  -0.018  0.00  0.00    +0.043 A 
ATOM     12  N   UNL     1       0.203  -4.350   0.247  0.00  0.00    -0.373 N 
ATOM     13  C   UNL     1      -0.006  -4.495   1.692  0.00  0.00    +0.168 C 
ATOM     14  C   UNL     1       0.128  -3.104   2.272  0.00  0.00    -0.036 C 
ATOM     15  C   UNL     1       0.388  -2.286   1.227  0.00  0.00    -0.001 A 
ATOM     16  C   UNL     1       0.624  -0.841   1.130  0.00  0.00    +0.013 A 
ATOM     17  C   UNL     1      -0.002  -2.710   3.720  0.00  0.00    +0.042 C 
ATOM     18  H   UNL     1       0.179  -5.070  -0.403  0.00  0.00    +0.160 HD
ENDBRANCH   1  13
BRANCH   3  19
ATOM     19  C   UNL     1      -2.989  -7.573  -0.309  0.00  0.00    +0.094 C 
BRANCH  19  20
ATOM     20  C   UNL     1      -4.116  -7.154  -1.255  0.00  0.00    +0.115 C 
BRANCH  20  21
ATOM     21  N   UNL     1      -4.559  -8.315  -2.031  0.00  0.00    -0.300 N 
ATOM     22  C   UNL     1      -5.635  -9.169  -1.522  0.00  0.00    +0.132 C 
ATOM     23  C   UNL     1      -3.977  -8.598  -3.213  0.00  0.00    +0.247 C 
ATOM     24  O   UNL     1      -3.019  -7.950  -3.589  0.00  0.00    -0.270 OA
BRANCH  23  25
ATOM     25  C   UNL     1      -4.502  -9.695  -4.053  0.00  0.00    +0.040 A 
ATOM     26  C   UNL     1      -5.872  -9.790  -4.306  0.00  0.00    +0.016 A 
ATOM     27  C   UNL     1      -6.356 -10.816  -5.090  0.00  0.00    -0.050 A 
ATOM     28  C   UNL     1      -5.487 -11.751  -5.626  0.00  0.00    +0.003 A 
ATOM     29  C   UNL     1      -4.128 -11.662  -5.379  0.00  0.00    +0.004 A 
ATOM     30  C   UNL     1      -3.631 -10.637  -4.600  0.00  0.00    -0.038 A 
ATOM     31  C   UNL     1      -2.150 -10.540  -4.337  0.00  0.00    +0.044 C 
ATOM     32  C   UNL     1      -7.834 -10.920  -5.365  0.00  0.00    +0.044 C 
ENDBRANCH  23  25
ENDBRANCH  20  21
ENDBRANCH  19  20
ENDBRANCH   3  19
TORSDOF 5
