REMARK  Name = ZINC08759697
REMARK  6 active torsions:
REMARK  status: ('A' for Active; 'I' for Inactive)
REMARK    1  A    between atoms: C_1  and  C_2
REMARK    2  A    between atoms: C_2  and  C_4
REMARK    3  A    between atoms: C_2  and  S_11
REMARK    4  A    between atoms: N_9  and  C_10
REMARK    5  A    between atoms: S_11  and  C_12
REMARK    6  A    between atoms: N_22  and  C_23
REMARK                            x       y       z     vdW  Elec       q    Type
REMARK                         _______ _______ _______ _____ _____    ______ ____
ROOT
ATOM      1  C   UNL     1      -0.096   3.989  -1.712  0.00  0.00    +0.177 A 
ATOM      2  N   UNL     1       0.622   4.428  -0.708  0.00  0.00    -0.223 NA
ATOM      3  C   UNL     1       0.345   5.600  -0.101  0.00  0.00    +0.079 A 
ATOM      4  C   UNL     1       1.110   6.069   0.971  0.00  0.00    +0.028 A 
ATOM      5  C   UNL     1       0.794   7.262   1.557  0.00  0.00    +0.002 A 
ATOM      6  C   UNL     1      -0.279   8.019   1.103  0.00  0.00    +0.001 A 
ATOM      7  C   UNL     1      -1.046   7.588   0.057  0.00  0.00    +0.015 A 
ATOM      8  C   UNL     1      -0.746   6.373  -0.560  0.00  0.00    +0.065 A 
ATOM      9  C   UNL     1      -1.536   5.860  -1.687  0.00  0.00    +0.267 A 
ATOM     10  O   UNL     1      -2.486   6.481  -2.127  0.00  0.00    -0.267 OA
ATOM     11  N   UNL     1      -1.163   4.674  -2.222  0.00  0.00    -0.255 N 
ENDROOT
BRANCH  11  12
ATOM     12  C   UNL     1      -1.880   4.142  -3.303  0.00  0.00    +0.053 A 
ATOM     13  C   UNL     1      -2.964   3.305  -3.073  0.00  0.00    +0.029 A 
ATOM     14  C   UNL     1      -3.672   2.785  -4.139  0.00  0.00    +0.042 A 
ATOM     15  C   UNL     1      -3.296   3.090  -5.436  0.00  0.00    +0.142 A 
ATOM     16  C   UNL     1      -2.212   3.921  -5.668  0.00  0.00    +0.078 A 
ATOM     17  C   UNL     1      -1.504   4.447  -4.604  0.00  0.00    +0.049 A 
ATOM     18 CL   UNL     1      -1.742   4.301  -7.295  0.00  0.00    -0.081 Cl
ATOM     19  F   UNL     1      -3.987   2.576  -6.477  0.00  0.00    -0.204 F 
ENDBRANCH  11  12
BRANCH   1  20
ATOM     20  S   UNL     1       0.340   2.446  -2.444  0.00  0.00    -0.075 S 
BRANCH  20  22
ATOM     21  C   UNL     1       1.310   1.777   0.021  0.00  0.00    +0.029 C 
ATOM     22  C   UNL     1       1.767   2.005  -1.421  0.00  0.00    +0.137 C 
BRANCH  22  23
ATOM     23  C   UNL     1       2.397   0.744  -1.954  0.00  0.00    +0.233 C 
ATOM     24  O   UNL     1       1.758   0.003  -2.671  0.00  0.00    -0.274 OA
ATOM     25  N   UNL     1       3.670   0.439  -1.635  0.00  0.00    -0.239 N 
ATOM     26  C   UNL     1       4.233  -0.689  -2.112  0.00  0.00    +0.306 C 
ATOM     27  O   UNL     1       3.592  -1.431  -2.830  0.00  0.00    -0.252 OA
ATOM     28  N   UNL     1       5.506  -0.994  -1.792  0.00  0.00    -0.302 N 
ATOM     29  C   UNL     1       6.118  -2.220  -2.310  0.00  0.00    +0.129 C 
ATOM     30  H   UNL     1       4.181   1.031  -1.062  0.00  0.00    +0.159 HD
ATOM     31  H   UNL     1       6.017  -0.401  -1.219  0.00  0.00    +0.150 HD
ENDBRANCH  22  23
ENDBRANCH  20  22
ENDBRANCH   1  20
TORSDOF 4
