REMARK  Name = ZINC39884118
REMARK  6 active torsions:
REMARK  status: ('A' for Active; 'I' for Inactive)
REMARK    1  A    between atoms: C_1  and  C_2
REMARK    2  A    between atoms: C_5  and  N_8
REMARK    3  A    between atoms: C_9  and  C_11
REMARK    4  A    between atoms: C_11  and  N_12
REMARK    5  A    between atoms: C_18  and  C_30
REMARK    6  A    between atoms: C_33  and  O_36
REMARK                            x       y       z     vdW  Elec       q    Type
REMARK                         _______ _______ _______ _____ _____    ______ ____
ROOT
ATOM      1  N   UNL     1       0.500  -6.887   2.418  0.00  0.00    -0.288 N 
ATOM      2  C   UNL     1       1.720  -6.989   3.047  0.00  0.00    +0.091 A 
ATOM      3  C   UNL     1       1.668  -7.442   4.313  0.00  0.00    +0.033 A 
ATOM      4  S   UNL     1      -0.064  -7.727   4.575  0.00  0.00    -0.030 S 
ATOM      5  C   UNL     1      -0.626  -7.232   3.069  0.00  0.00    +0.292 A 
ATOM      6  O   UNL     1      -1.775  -7.195   2.665  0.00  0.00    -0.259 OA
ATOM      7  C   UNL     1       2.782  -7.637   5.277  0.00  0.00    +0.072 C 
ATOM      8  C   UNL     1       4.146  -7.519   4.718  0.00  0.00    +0.112 C 
ATOM      9  C   UNL     1       4.425  -6.434   3.672  0.00  0.00    +0.153 C 
ATOM     10  S   UNL     1       3.266  -6.587   2.276  0.00  0.00    -0.093 S 
ATOM     11  C   UNL     1       5.770  -6.962   3.143  0.00  0.00    +0.253 C 
ATOM     12  O   UNL     1       6.710  -6.235   2.520  0.00  0.00    -0.272 OA
ATOM     13  N   UNL     1       5.839  -8.241   3.405  0.00  0.00    -0.145 NA
ATOM     14  C   UNL     1       4.818  -8.721   4.133  0.00  0.00    +0.245 C 
ATOM     15  O   UNL     1       4.512  -9.886   4.289  0.00  0.00    -0.273 OA
ENDROOT
BRANCH   7  16
ATOM     16  C   UNL     1       2.643  -9.009   5.885  0.00  0.00    -0.038 A 
ATOM     17  C   UNL     1       3.030  -9.226   7.194  0.00  0.00    +0.008 A 
ATOM     18  C   UNL     1       2.904 -10.483   7.754  0.00  0.00    +0.045 A 
ATOM     19  C   UNL     1       2.390 -11.528   7.000  0.00  0.00    +0.117 A 
ATOM     20  C   UNL     1       2.002 -11.308   5.686  0.00  0.00    +0.045 A 
ATOM     21  C   UNL     1       2.125 -10.048   5.133  0.00  0.00    +0.008 A 
BRANCH  19  22
ATOM     22  O   UNL     1       2.266 -12.765   7.548  0.00  0.00    -0.507 OA
ATOM     23  H   UNL     1       1.415 -12.920   7.981  0.00  0.00    +0.292 HD
ENDBRANCH  19  22
ENDBRANCH   7  16
BRANCH   1  24
ATOM     24  C   UNL     1       0.427  -6.398   1.039  0.00  0.00    +0.222 C 
BRANCH  24  26
ATOM     25  N   UNL     1       0.182  -4.225  -0.118  0.00  0.00    -0.284 N 
ATOM     26  C   UNL     1       0.271  -4.899   1.046  0.00  0.00    +0.237 C 
ATOM     27  O   UNL     1       0.226  -4.299   2.099  0.00  0.00    -0.274 OA
ATOM     28  H   UNL     1       0.143  -4.710  -0.958  0.00  0.00    +0.155 HD
BRANCH  25  33
ATOM     29  C   UNL     1       0.038   1.446  -0.111  0.00  0.00    +0.044 C 
ATOM     30  C   UNL     1       0.076  -0.061  -0.113  0.00  0.00    -0.050 A 
ATOM     31  C   UNL     1       0.808  -0.733   0.848  0.00  0.00    +0.005 A 
ATOM     32  C   UNL     1       0.845  -2.114   0.849  0.00  0.00    +0.023 A 
ATOM     33  C   UNL     1       0.146  -2.827  -0.116  0.00  0.00    +0.033 A 
ATOM     34  C   UNL     1      -0.588  -2.148  -1.080  0.00  0.00    +0.023 A 
ATOM     35  C   UNL     1      -0.625  -0.767  -1.073  0.00  0.00    +0.005 A 
ENDBRANCH  25  33
ENDBRANCH  24  26
ENDBRANCH   1  24
TORSDOF 5
