REMARK  Name = ZINC02475031
REMARK  2 active torsions:
REMARK  status: ('A' for Active; 'I' for Inactive)
REMARK    1  A    between atoms: C_1  and  C_2
REMARK    2  A    between atoms: C_15  and  C_17
REMARK                            x       y       z     vdW  Elec       q    Type
REMARK                         _______ _______ _______ _____ _____    ______ ____
ROOT
ATOM      1  C   UNL     1      -1.167  -0.956   0.008  0.00  0.00    +0.073 C 
ATOM      2  C   UNL     1       0.002  -0.004   0.002  0.00  0.00    +0.076 A 
ATOM      3  N   UNL     1       1.274  -0.285  -0.012  0.00  0.00    -0.243 NA
ATOM      4  C   UNL     1       2.231   0.667  -0.016  0.00  0.00    +0.094 A 
ATOM      5  C   UNL     1       1.734   1.991  -0.004  0.00  0.00    +0.040 A 
ATOM      6  S   UNL     1      -0.021   1.732   0.012  0.00  0.00    -0.072 S 
ATOM      7  C   UNL     1       2.572   3.083  -0.006  0.00  0.00    +0.019 A 
ATOM      8  C   UNL     1       3.924   2.934  -0.020  0.00  0.00    +0.030 A 
ATOM      9  C   UNL     1       4.505   1.637  -0.033  0.00  0.00    +0.082 A 
ATOM     10  C   UNL     1       3.628   0.541  -0.029  0.00  0.00    +0.067 A 
ATOM     11  S   UNL     1       4.740  -0.844  -0.049  0.00  0.00    -0.050 S 
ATOM     12  C   UNL     1       6.261   0.094  -0.059  0.00  0.00    +0.166 A 
ATOM     13  N   UNL     1       5.824   1.331  -0.048  0.00  0.00    -0.224 NA
ATOM     14  N   UNL     1       7.567  -0.367  -0.075  0.00  0.00    -0.260 N 
ATOM     15  C   UNL     1       8.591   0.509  -0.081  0.00  0.00    +0.256 C 
ATOM     16  O   UNL     1       8.369   1.705  -0.071  0.00  0.00    -0.269 OA
ATOM     17  H   UNL     1       7.745  -1.321  -0.082  0.00  0.00    +0.157 HD
ENDROOT
BRANCH  15  18
ATOM     18  C   UNL     1       9.972   0.021  -0.098  0.00  0.00    +0.075 A 
ATOM     19  C   UNL     1      11.155   0.746  -0.106  0.00  0.00    +0.022 A 
ATOM     20  C   UNL     1      12.325   0.030  -0.122  0.00  0.00    +0.024 A 
ATOM     21  C   UNL     1      12.273  -1.329  -0.129  0.00  0.00    +0.056 A 
ATOM     22  S   UNL     1      10.571  -1.659  -0.106  0.00  0.00    -0.077 S 
ATOM     23 BR   UNL     1      13.708  -2.560  -0.151  0.00  0.00    -0.043 Br
ENDBRANCH  15  18
TORSDOF 1
