REMARK  Name = ZINC02641084
REMARK  5 active torsions:
REMARK  status: ('A' for Active; 'I' for Inactive)
REMARK    1  A    between atoms: C_1  and  C_2
REMARK    2  A    between atoms: C_4  and  C_14
REMARK    3  A    between atoms: C_5  and  C_13
REMARK    4  A    between atoms: C_9  and  C_12
REMARK    5  A    between atoms: C_14  and  C_16
REMARK                            x       y       z     vdW  Elec       q    Type
REMARK                         _______ _______ _______ _____ _____    ______ ____
ROOT
ATOM      1  C   UNL     1      -0.138   1.498   0.023  0.00  0.00    +0.064 C 
ATOM      2  C   UNL     1      -0.051  -0.006   0.008  0.00  0.00    +0.023 A 
ATOM      3  C   UNL     1      -0.123  -0.779  -1.088  0.00  0.00    +0.034 A 
ATOM      4  C   UNL     1       0.009  -2.168  -0.627  0.00  0.00    +0.040 A 
ATOM      5  C   UNL     1       0.152  -2.100   0.746  0.00  0.00    +0.033 A 
ATOM      6  N   UNL     1       0.121  -0.801   1.107  0.00  0.00    -0.299 N 
ATOM      7  C   UNL     1       0.242  -0.335   2.420  0.00  0.00    +0.181 A 
ATOM      8  C   UNL     1       1.222  -0.732   3.356  0.00  0.00    +0.094 A 
ATOM      9  C   UNL     1       1.004  -0.059   4.500  0.00  0.00    +0.136 A 
ATOM     10  O   UNL     1      -0.062   0.737   4.320  0.00  0.00    -0.358 OA
ATOM     11  N   UNL     1      -0.528   0.552   2.996  0.00  0.00    -0.060 NA
ATOM     12  C   UNL     1       1.815  -0.178   5.764  0.00  0.00    +0.089 C 
ATOM     13  C   UNL     1       0.321  -3.273   1.676  0.00  0.00    +0.064 C 
ENDROOT
BRANCH   4  14
ATOM     14  C   UNL     1      -0.010  -3.377  -1.453  0.00  0.00    +0.179 C 
ATOM     15  O   UNL     1       0.110  -4.468  -0.934  0.00  0.00    -0.291 OA
BRANCH  14  16
ATOM     16  C   UNL     1      -0.177  -3.267  -2.946  0.00  0.00    +0.188 C 
ATOM     17 CL   UNL     1      -0.160  -4.915  -3.676  0.00  0.00    -0.117 Cl
ENDBRANCH  14  16
ENDBRANCH   4  14
TORSDOF 2
