REMARK  Name = ZINC37006658
REMARK  7 active torsions:
REMARK  status: ('A' for Active; 'I' for Inactive)
REMARK    1  A    between atoms: C_1  and  C_2
REMARK    2  A    between atoms: C_5  and  N_9
REMARK    3  A    between atoms: C_10  and  C_12
REMARK    4  A    between atoms: N_17  and  S_19
REMARK    5  A    between atoms: S_19  and  C_22
REMARK    6  A    between atoms: C_29  and  C_37
REMARK    7  A    between atoms: C_32  and  C_34
REMARK                            x       y       z     vdW  Elec       q    Type
REMARK                         _______ _______ _______ _____ _____    ______ ____
ROOT
ATOM      1  C   UNL     1       0.153  -6.402   1.140  0.00  0.00    +0.091 C 
ATOM      2  C   UNL     1       1.415  -6.755   0.349  0.00  0.00    +0.015 C 
ATOM      3  C   UNL     1       1.577  -8.276   0.297  0.00  0.00    +0.018 C 
ATOM      4  C   UNL     1       1.731  -8.819   1.721  0.00  0.00    +0.109 C 
ATOM      5  N   UNL     1       0.592  -8.361   2.527  0.00  0.00    -0.176 NA
ATOM      6  C   UNL     1       0.290  -6.923   2.574  0.00  0.00    +0.122 C 
ENDROOT
BRANCH   1   8
ATOM      7  N   UNL     1      -0.163  -4.224   0.009  0.00  0.00    -0.285 N 
ATOM      8  C   UNL     1      -0.023  -4.905   1.164  0.00  0.00    +0.222 C 
ATOM      9  O   UNL     1      -0.038  -4.313   2.223  0.00  0.00    -0.275 OA
ATOM     10  H   UNL     1      -0.225  -4.704  -0.832  0.00  0.00    +0.155 HD
BRANCH   7  15
ATOM     11  C   UNL     1      -0.386   1.446   0.070  0.00  0.00    +0.047 C 
ATOM     12  C   UNL     1      -0.328  -0.060   0.053  0.00  0.00    -0.015 A 
ATOM     13  C   UNL     1       0.454  -0.731   0.976  0.00  0.00    +0.008 A 
ATOM     14  C   UNL     1       0.511  -2.110   0.964  0.00  0.00    +0.024 A 
ATOM     15  C   UNL     1      -0.219  -2.826   0.024  0.00  0.00    +0.036 A 
ATOM     16  C   UNL     1      -1.004  -2.153  -0.902  0.00  0.00    +0.062 A 
ATOM     17  C   UNL     1      -1.061  -0.770  -0.882  0.00  0.00    +0.128 A 
ATOM     18  F   UNL     1      -1.829  -0.113  -1.778  0.00  0.00    -0.205 F 
ENDBRANCH   7  15
ENDBRANCH   1   8
BRANCH   5  19
ATOM     19  S   UNL     1      -0.337  -9.444   3.368  0.00  0.00    +0.061 S 
ATOM     20  O   UNL     1      -1.605  -8.831   3.558  0.00  0.00    -0.153 OA
ATOM     21  O   UNL     1      -0.187 -10.698   2.717  0.00  0.00    -0.153 OA
BRANCH  19  22
ATOM     22  C   UNL     1       0.384  -9.617   4.967  0.00  0.00    +0.106 A 
ATOM     23  C   UNL     1       1.352 -10.578   5.191  0.00  0.00    +0.030 A 
ATOM     24  C   UNL     1       1.917 -10.716   6.441  0.00  0.00    +0.026 A 
ATOM     25  C   UNL     1       1.516  -9.887   7.490  0.00  0.00    +0.040 A 
ATOM     26  C   UNL     1       0.545  -8.927   7.255  0.00  0.00    -0.022 A 
ATOM     27  C   UNL     1      -0.014  -8.788   5.999  0.00  0.00    +0.034 A 
ATOM     28  C   UNL     1       0.295  -8.171   8.541  0.00  0.00    +0.059 C 
ATOM     29  C   UNL     1       1.249  -8.815   9.560  0.00  0.00    +0.083 C 
ATOM     30  N   UNL     1       1.956  -9.861   8.817  0.00  0.00    -0.268 N 
ATOM     31  C   UNL     1       2.894 -10.678   9.336  0.00  0.00    +0.223 C 
ATOM     32  O   UNL     1       3.491 -11.451   8.616  0.00  0.00    -0.275 OA
ATOM     33  C   UNL     1       2.239  -7.777  10.092  0.00  0.00    +0.029 C 
BRANCH  31  34
ATOM     34  C   UNL     1       3.200 -10.633  10.811  0.00  0.00    +0.076 C 
ATOM     35  C   UNL     1       4.619 -10.239  11.226  0.00  0.00    +0.013 C 
ATOM     36  C   UNL     1       4.156 -11.690  11.367  0.00  0.00    +0.013 C 
ENDBRANCH  31  34
ENDBRANCH  19  22
ENDBRANCH   5  19
TORSDOF 5
