REMARK  Name = ZINC18183281
REMARK  7 active torsions:
REMARK  status: ('A' for Active; 'I' for Inactive)
REMARK    1  A    between atoms: C_1  and  C_2
REMARK    2  A    between atoms: C_3  and  S_8
REMARK    3  A    between atoms: C_4  and  C_7
REMARK    4  A    between atoms: S_8  and  N_11
REMARK    5  A    between atoms: C_15  and  C_18
REMARK    6  A    between atoms: C_18  and  N_20
REMARK    7  A    between atoms: N_22  and  C_30
REMARK                            x       y       z     vdW  Elec       q    Type
REMARK                         _______ _______ _______ _____ _____    ______ ____
ROOT
ATOM      1  N   UNL     1       2.147  -2.445  -1.613  0.00  0.00    -0.176 NA
ATOM      2  C   UNL     1       1.057  -3.132  -2.319  0.00  0.00    +0.109 C 
ATOM      3  C   UNL     1       0.743  -2.356  -3.606  0.00  0.00    +0.018 C 
ATOM      4  C   UNL     1       2.025  -2.202  -4.428  0.00  0.00    +0.015 C 
ATOM      5  C   UNL     1       3.055  -1.405  -3.624  0.00  0.00    +0.093 C 
ATOM      6  C   UNL     1       3.393  -2.166  -2.338  0.00  0.00    +0.122 C 
ENDROOT
BRANCH   1   7
ATOM      7  S   UNL     1       1.976  -2.000  -0.027  0.00  0.00    +0.066 S 
ATOM      8  O   UNL     1       3.287  -1.905   0.512  0.00  0.00    -0.153 OA
ATOM      9  O   UNL     1       0.984  -2.851   0.530  0.00  0.00    -0.153 OA
BRANCH   7  12
ATOM     10  C   UNL     1       3.501   1.046  -0.025  0.00  0.00    +0.071 C 
ATOM     11  C   UNL     1       2.006   0.859  -0.013  0.00  0.00    +0.107 A 
ATOM     12  C   UNL     1       1.306  -0.370  -0.012  0.00  0.00    +0.170 A 
ATOM     13  C   UNL     1       0.002  -0.004   0.002  0.00  0.00    +0.161 A 
ATOM     14  O   UNL     1      -0.016   1.336   0.009  0.00  0.00    -0.358 OA
ATOM     15  N   UNL     1       1.102   1.796   0.001  0.00  0.00    -0.081 NA
ATOM     16  C   UNL     1      -1.193  -0.923   0.008  0.00  0.00    +0.091 C 
ENDBRANCH   7  12
ENDBRANCH   1   7
BRANCH   5  17
ATOM     17  C   UNL     1       4.305  -1.226  -4.446  0.00  0.00    +0.243 C 
ATOM     18  O   UNL     1       5.366  -1.663  -4.043  0.00  0.00    -0.273 OA
BRANCH  17  19
ATOM     19  N   UNL     1       4.249  -0.589  -5.611  0.00  0.00    -0.156 NA
ATOM     20  C   UNL     1       5.354  -0.430  -6.337  0.00  0.00    +0.166 A 
ATOM     21  N   UNL     1       5.489   0.182  -7.543  0.00  0.00    -0.324 N 
ATOM     22  C   UNL     1       6.729   0.254  -8.149  0.00  0.00    +0.057 A 
ATOM     23  C   UNL     1       7.066   0.843  -9.378  0.00  0.00    +0.027 A 
ATOM     24  C   UNL     1       8.361   0.818  -9.838  0.00  0.00    +0.002 A 
ATOM     25  C   UNL     1       9.371   0.215  -9.108  0.00  0.00    +0.001 A 
ATOM     26  C   UNL     1       9.068  -0.374  -7.893  0.00  0.00    +0.017 A 
ATOM     27  C   UNL     1       7.773  -0.349  -7.432  0.00  0.00    +0.039 A 
ATOM     28  S   UNL     1       6.964  -0.962  -5.975  0.00  0.00    -0.052 S 
ATOM     29  C   UNL     1       4.319   0.770  -8.200  0.00  0.00    +0.151 C 
ENDBRANCH  17  19
ENDBRANCH   5  17
TORSDOF 4
