REMARK  Name = ZINC02340212
REMARK  6 active torsions:
REMARK  status: ('A' for Active; 'I' for Inactive)
REMARK    1  A    between atoms: C_1  and  C_2
REMARK    2  A    between atoms: N_8  and  C_9
REMARK    3  A    between atoms: C_9  and  C_10
REMARK    4  A    between atoms: C_17  and  C_25
REMARK    5  A    between atoms: C_19  and  C_23
REMARK    6  A    between atoms: C_20  and  N_22
REMARK                            x       y       z     vdW  Elec       q    Type
REMARK                         _______ _______ _______ _____ _____    ______ ____
ROOT
ATOM      1  C   UNL     1       0.002   1.237  -0.013  0.00  0.00    +0.064 C 
ATOM      2  C   UNL     1      -0.711   1.646   1.250  0.00  0.00    +0.023 A 
ATOM      3  C   UNL     1      -2.024   1.956   1.203  0.00  0.00    +0.068 A 
ATOM      4  C   UNL     1      -2.697   2.334   2.383  0.00  0.00    +0.141 A 
ATOM      5  C   UNL     1      -1.991   2.389   3.566  0.00  0.00    +0.075 A 
ATOM      6  C   UNL     1      -0.628   2.064   3.566  0.00  0.00    +0.260 A 
ATOM      7  O   UNL     1       0.009   2.109   4.606  0.00  0.00    -0.267 OA
ATOM      8  N   UNL     1      -0.022   1.703   2.420  0.00  0.00    -0.308 N 
ATOM      9  C   UNL     1      -2.668   2.794   4.847  0.00  0.00    +0.139 C 
ATOM     10  C   UNL     1      -4.161   2.705   4.694  0.00  0.00    +0.101 C 
ATOM     11  C   UNL     1      -4.738   2.635   3.471  0.00  0.00    +0.199 C 
ATOM     12  O   UNL     1      -4.012   2.639   2.340  0.00  0.00    -0.441 OA
ENDROOT
BRANCH   9  13
ATOM     13  C   UNL     1      -2.283   4.210   5.189  0.00  0.00    +0.118 A 
ATOM     14  C   UNL     1      -1.651   4.605   6.309  0.00  0.00    +0.045 A 
ATOM     15  C   UNL     1      -1.492   6.006   6.217  0.00  0.00    +0.041 A 
ATOM     16  C   UNL     1      -2.036   6.385   5.047  0.00  0.00    +0.195 A 
ATOM     17  O   UNL     1      -2.509   5.292   4.426  0.00  0.00    -0.467 OA
ENDBRANCH   9  13
BRANCH  11  18
ATOM     18  N   UNL     1      -6.106   2.556   3.384  0.00  0.00    -0.328 N 
ATOM     19  H   UNL     1      -6.534   2.505   2.516  0.00  0.00    +0.145 HD
ATOM     20  H   UNL     1      -6.644   2.552   4.191  0.00  0.00    +0.145 HD
ENDBRANCH  11  18
BRANCH  10  21
ATOM     21  C   UNL     1      -4.987   2.696   5.863  0.00  0.00    +0.101 C 
ATOM     22  N   UNL     1      -5.643   2.688   6.790  0.00  0.00    -0.191 NA
ENDBRANCH  10  21
BRANCH   8  23
ATOM     23  C   UNL     1       1.404   1.365   2.434  0.00  0.00    +0.160 C 
BRANCH  23  24
ATOM     24  C   UNL     1       1.567  -0.115   2.664  0.00  0.00    -0.028 A 
ATOM     25  C   UNL     1       1.566  -0.618   3.952  0.00  0.00    +0.007 A 
ATOM     26  C   UNL     1       1.710  -1.976   4.164  0.00  0.00    +0.020 A 
ATOM     27  C   UNL     1       1.867  -2.831   3.087  0.00  0.00    +0.041 A 
ATOM     28  C   UNL     1       1.874  -2.326   1.799  0.00  0.00    +0.020 A 
ATOM     29  C   UNL     1       1.724  -0.968   1.588  0.00  0.00    +0.007 A 
ATOM     30 CL   UNL     1       2.054  -4.536   3.353  0.00  0.00    -0.084 Cl
ENDBRANCH  23  24
ENDBRANCH   8  23
TORSDOF 5
