REMARK  Name = ZINC05182320
REMARK  3 active torsions:
REMARK  status: ('A' for Active; 'I' for Inactive)
REMARK    1  A    between atoms: C_1  and  C_2
REMARK    2  A    between atoms: C_4  and  C_29
REMARK    3  A    between atoms: C_17  and  C_19
REMARK                            x       y       z     vdW  Elec       q    Type
REMARK                         _______ _______ _______ _____ _____    ______ ____
ROOT
ATOM      1  C   UNL     1       4.107 -10.881  -5.455  0.00  0.00    +0.044 C 
ATOM      2  C   UNL     1       3.767  -9.802  -4.459  0.00  0.00    -0.049 A 
ATOM      3  C   UNL     1       2.576  -9.854  -3.749  0.00  0.00    +0.009 A 
ATOM      4  C   UNL     1       2.244  -8.886  -2.837  0.00  0.00    -0.024 A 
ATOM      5  C   UNL     1       3.111  -7.797  -2.591  0.00  0.00    +0.083 A 
ATOM      6  C   UNL     1       4.314  -7.777  -3.333  0.00  0.00    +0.041 A 
ATOM      7  C   UNL     1       4.639  -8.751  -4.244  0.00  0.00    +0.020 A 
ATOM      8  S   UNL     1       5.095  -6.293  -2.746  0.00  0.00    -0.052 S 
ATOM      9  C   UNL     1       3.820  -5.808  -1.592  0.00  0.00    +0.162 A 
ATOM     10  N   UNL     1       2.937  -6.771  -1.730  0.00  0.00    -0.224 NA
ATOM     11  N   UNL     1       3.776  -4.705  -0.763  0.00  0.00    -0.307 N 
ATOM     12  C   UNL     1       4.981  -3.881  -0.921  0.00  0.00    +0.126 C 
ATOM     13  C   UNL     1       4.981  -2.773   0.138  0.00  0.00    +0.127 C 
ATOM     14  N   UNL     1       3.709  -2.040   0.046  0.00  0.00    -0.295 N 
ATOM     15  C   UNL     1       2.457  -2.813   0.065  0.00  0.00    +0.127 C 
ATOM     16  C   UNL     1       2.558  -3.919  -0.997  0.00  0.00    +0.126 C 
ATOM     17  C   UNL     1       3.690  -0.696  -0.047  0.00  0.00    +0.247 C 
ATOM     18  O   UNL     1       4.732  -0.080  -0.162  0.00  0.00    -0.270 OA
ATOM     19  C   UNL     1       0.939  -8.984  -2.089  0.00  0.00    +0.046 C 
ENDROOT
BRANCH  17  20
ATOM     20  C   UNL     1       2.405   0.029  -0.009  0.00  0.00    +0.041 A 
ATOM     21  C   UNL     1       2.193   1.124  -0.850  0.00  0.00    +0.017 A 
ATOM     22  C   UNL     1       0.993   1.799  -0.812  0.00  0.00    +0.050 A 
ATOM     23  C   UNL     1      -0.010   1.396   0.061  0.00  0.00    +0.162 A 
ATOM     24  C   UNL     1       0.194   0.303   0.901  0.00  0.00    +0.163 A 
ATOM     25  C   UNL     1       1.397  -0.378   0.868  0.00  0.00    +0.062 A 
ATOM     26  O   UNL     1      -0.782  -0.109   1.756  0.00  0.00    -0.485 OA
ATOM     27  C   UNL     1      -1.835   0.822   2.029  0.00  0.00    +0.270 C 
ATOM     28  C   UNL     1      -2.300   1.424   0.696  0.00  0.00    +0.270 C 
ATOM     29  O   UNL     1      -1.183   2.082   0.088  0.00  0.00    -0.485 OA
ENDBRANCH  17  20
TORSDOF 1
