REMARK  Name = ZINC05783909
REMARK  2 active torsions:
REMARK  status: ('A' for Active; 'I' for Inactive)
REMARK    1  A    between atoms: C_2  and  N_10
REMARK    2  A    between atoms: C_5  and  O_8
REMARK                            x       y       z     vdW  Elec       q    Type
REMARK                         _______ _______ _______ _____ _____    ______ ____
ROOT
ATOM      1  C   UNL     1       0.827   1.377   1.187  0.00  0.00    +0.046 A 
ATOM      2  C   UNL     1       1.180   2.077   0.016  0.00  0.00    +0.067 A 
ATOM      3  C   UNL     1       1.526   1.360  -1.147  0.00  0.00    +0.046 A 
ATOM      4  C   UNL     1       1.516  -0.003  -1.132  0.00  0.00    +0.062 A 
ATOM      5  C   UNL     1       1.165  -0.689   0.031  0.00  0.00    +0.145 A 
ATOM      6  C   UNL     1       0.822   0.013   1.187  0.00  0.00    +0.062 A 
ATOM      7 BR   UNL     1       0.348  -0.929   2.757  0.00  0.00    -0.046 Br
ATOM      8 BR   UNL     1       1.980  -0.967  -2.691  0.00  0.00    -0.046 Br
ENDROOT
BRANCH   2   9
ATOM      9  N   UNL     1       1.187   3.417   0.009  0.00  0.00    -0.248 NA
ATOM     10  C   UNL     1       1.928   4.081   0.884  0.00  0.00    +0.065 C 
ATOM     11  C   UNL     1       2.841   3.366   1.782  0.00  0.00    +0.031 C 
ATOM     12  C   UNL     1       3.590   4.069   2.660  0.00  0.00    +0.053 C 
ATOM     13  C   UNL     1       3.488   5.478   2.727  0.00  0.00    +0.179 C 
ATOM     14  O   UNL     1       4.171   6.090   3.534  0.00  0.00    -0.288 OA
ATOM     15  C   UNL     1       2.612   6.193   1.878  0.00  0.00    +0.053 C 
ATOM     16  C   UNL     1       1.845   5.542   0.976  0.00  0.00    +0.031 C 
ENDBRANCH   2   9
BRANCH   5  17
ATOM     17  O   UNL     1       1.158  -2.044   0.039  0.00  0.00    -0.505 OA
ATOM     18  H   UNL     1       0.310  -2.435  -0.212  0.00  0.00    +0.292 HD
ENDBRANCH   5  17
TORSDOF 2
