REMARK  Name = ZINC20436959
REMARK  7 active torsions:
REMARK  status: ('A' for Active; 'I' for Inactive)
REMARK    1  A    between atoms: C_1  and  C_2
REMARK    2  A    between atoms: C_4  and  C_35
REMARK    3  A    between atoms: C_6  and  N_8
REMARK    4  A    between atoms: N_8  and  C_9
REMARK    5  A    between atoms: C_9  and  C_10
REMARK    6  A    between atoms: N_12  and  C_13
REMARK    7  A    between atoms: C_18  and  C_19
REMARK                            x       y       z     vdW  Elec       q    Type
REMARK                         _______ _______ _______ _____ _____    ______ ____
ROOT
ATOM      1  N   UNL     1       2.367   1.009  -0.021  0.00  0.00    -0.273 N 
ATOM      2  C   UNL     1       2.892   0.552   1.168  0.00  0.00    +0.136 C 
ATOM      3  N   UNL     1       2.446   0.790   2.360  0.00  0.00    -0.362 N 
ATOM      4  C   UNL     1       3.102   0.270   3.545  0.00  0.00    +0.117 C 
ATOM      5  C   UNL     1       3.461   1.449   4.480  0.00  0.00    +0.191 C 
ATOM      6  S   UNL     1       5.033   0.868   5.244  0.00  0.00    -0.028 S 
ATOM      7  O   UNL     1       4.759  -0.022   6.318  0.00  0.00    -0.174 OA
ATOM      8  O   UNL     1       5.882   1.988   5.455  0.00  0.00    -0.174 OA
ATOM      9  C   UNL     1       5.641  -0.095   3.791  0.00  0.00    +0.182 C 
ATOM     10  C   UNL     1       4.312  -0.613   3.207  0.00  0.00    +0.099 C 
ATOM     11  S   UNL     1       4.321  -0.492   1.379  0.00  0.00    -0.085 S 
ATOM     12  H   UNL     1       1.543   1.403   2.498  0.00  0.00    +0.162 HD
ENDROOT
BRANCH   1  18
ATOM     13  C   UNL     1       4.760   2.028  -4.192  0.00  0.00    +0.044 C 
ATOM     14  C   UNL     1       4.072   1.047  -3.278  0.00  0.00    -0.048 A 
ATOM     15  C   UNL     1       3.974  -0.284  -3.640  0.00  0.00    +0.006 A 
ATOM     16  C   UNL     1       3.343  -1.186  -2.804  0.00  0.00    -0.048 A 
ATOM     17  C   UNL     1       2.809  -0.761  -1.603  0.00  0.00    +0.027 A 
ATOM     18  C   UNL     1       2.906   0.575  -1.236  0.00  0.00    +0.037 A 
ATOM     19  C   UNL     1       3.535   1.480  -2.081  0.00  0.00    +0.027 A 
ATOM     20  C   UNL     1       3.238  -2.636  -3.203  0.00  0.00    +0.044 C 
ENDBRANCH   1  18
BRANCH   1  21
ATOM     21  C   UNL     1       1.243   1.949  -0.012  0.00  0.00    +0.208 C 
BRANCH  21  22
ATOM     22  C   UNL     1      -0.054   1.181  -0.024  0.00  0.00    +0.235 C 
ATOM     23  O   UNL     1      -0.041  -0.032  -0.039  0.00  0.00    -0.274 OA
ATOM     24  N   UNL     1      -1.228   1.842  -0.025  0.00  0.00    -0.284 N 
ATOM     25  H   UNL     1      -1.242   2.939   0.055  0.00  0.00    +0.155 HD
BRANCH  24  26
ATOM     26  C   UNL     1      -2.430   1.133  -0.126  0.00  0.00    +0.045 A 
ATOM     27  C   UNL     1      -2.496  -0.189   0.294  0.00  0.00    +0.024 A 
ATOM     28  C   UNL     1      -3.685  -0.884   0.196  0.00  0.00    +0.002 A 
ATOM     29  C   UNL     1      -4.807  -0.269  -0.329  0.00  0.00    +0.001 A 
ATOM     30  C   UNL     1      -4.743   1.046  -0.752  0.00  0.00    +0.014 A 
ATOM     31  C   UNL     1      -3.558   1.749  -0.653  0.00  0.00    +0.076 A 
BRANCH  31  32
ATOM     32  C   UNL     1      -3.490   3.181  -1.115  0.00  0.00    +0.419 C 
ATOM     33  F   UNL     1      -4.741   3.574  -1.602  0.00  0.00    -0.166 F 
ATOM     34  F   UNL     1      -3.128   4.001  -0.041  0.00  0.00    -0.166 F 
ATOM     35  F   UNL     1      -2.536   3.297  -2.133  0.00  0.00    -0.166 F 
ENDBRANCH  31  32
ENDBRANCH  24  26
ENDBRANCH  21  22
ENDBRANCH   1  21
TORSDOF 5
