REMARK  Name = ZINC39729695
REMARK  3 active torsions:
REMARK  status: ('A' for Active; 'I' for Inactive)
REMARK    1  A    between atoms: C_6  and  C_7
REMARK    2  A    between atoms: N_12  and  C_13
REMARK    3  A    between atoms: C_13  and  C_14
REMARK                            x       y       z     vdW  Elec       q    Type
REMARK                         _______ _______ _______ _____ _____    ______ ____
ROOT
ATOM      1  C   UNL     1      -1.173  -0.584  -0.039  0.00  0.00    -0.037 C 
ATOM      2  C   UNL     1      -1.758  -0.670   1.393  0.00  0.00    -0.013 C 
ATOM      3  C   UNL     1      -3.231  -1.065   1.106  0.00  0.00    -0.020 C 
ATOM      4  C   UNL     1      -3.548  -0.300  -0.196  0.00  0.00    -0.077 C 
ATOM      5  N   UNL     1      -2.261  -0.014  -0.860  0.00  0.00    +0.390 N 
ATOM      6  H   UNL     1      -2.137   0.984  -0.944  0.00  0.00    -0.080 HD
ENDROOT
BRANCH   1  12
ATOM      7  C   UNL     1      -0.138   1.694  -0.034  0.00  0.00    +0.006 A 
ATOM      8  C   UNL     1       0.963   2.529  -0.055  0.00  0.00    +0.049 A 
ATOM      9  C   UNL     1       2.241   1.992  -0.101  0.00  0.00    +0.162 A 
ATOM     10  C   UNL     1       2.411   0.613  -0.124  0.00  0.00    +0.162 A 
ATOM     11  C   UNL     1       1.302  -0.219  -0.105  0.00  0.00    +0.051 A 
ATOM     12  C   UNL     1       0.031   0.322  -0.060  0.00  0.00    -0.057 A 
ATOM     13  O   UNL     1       3.656   0.065  -0.162  0.00  0.00    -0.485 OA
ATOM     14  C   UNL     1       4.728   0.929  -0.557  0.00  0.00    +0.270 C 
ATOM     15  C   UNL     1       4.584   2.253   0.207  0.00  0.00    +0.270 C 
ATOM     16  O   UNL     1       3.316   2.827  -0.125  0.00  0.00    -0.485 OA
ENDBRANCH   1  12
BRANCH   5  17
ATOM     17  C   UNL     1      -2.245  -0.626  -2.196  0.00  0.00    +0.020 C 
BRANCH  17  18
ATOM     18  C   UNL     1      -3.275   0.044  -3.068  0.00  0.00    +0.201 C 
ATOM     19  O   UNL     1      -3.956   0.943  -2.621  0.00  0.00    -0.278 OA
ATOM     20  N   UNL     1      -3.440  -0.355  -4.345  0.00  0.00    -0.286 N 
ATOM     21  C   UNL     1      -3.334   0.518  -5.328  0.00  0.00    +0.050 C 
ATOM     22  C   UNL     1      -2.901   1.902  -5.043  0.00  0.00    +0.054 C 
ATOM     23  C   UNL     1      -2.794   2.792  -6.062  0.00  0.00    +0.097 C 
ATOM     24  N   UNL     1      -2.435   4.106  -6.154  0.00  0.00    -0.190 NA
ATOM     25  C   UNL     1      -2.514   4.464  -7.415  0.00  0.00    +0.369 C 
ATOM     26  O   UNL     1      -2.228   5.705  -7.873  0.00  0.00    -0.243 OA
ATOM     27  N   UNL     1      -2.915   3.444  -8.192  0.00  0.00    -0.190 NA
ATOM     28  C   UNL     1      -3.111   2.376  -7.443  0.00  0.00    +0.096 C 
ATOM     29  C   UNL     1      -3.541   1.001  -7.715  0.00  0.00    +0.047 C 
ATOM     30  C   UNL     1      -3.641   0.113  -6.707  0.00  0.00    +0.041 C 
ATOM     31 BR   UNL     1      -4.188  -1.661  -7.067  0.00  0.00    -0.048 Br
ATOM     32  H   UNL     1      -3.637  -1.284  -4.541  0.00  0.00    +0.155 HD
ENDBRANCH  17  18
ENDBRANCH   5  17
TORSDOF 3
