REMARK  Name = ZINC17576836
REMARK  7 active torsions:
REMARK  status: ('A' for Active; 'I' for Inactive)
REMARK    1  A    between atoms: C_4  and  N_22
REMARK    2  A    between atoms: C_5  and  C_7
REMARK    3  A    between atoms: N_9  and  N_10
REMARK    4  A    between atoms: C_11  and  C_13
REMARK    5  A    between atoms: C_18  and  N_19
REMARK    6  A    between atoms: N_22  and  S_23
REMARK    7  A    between atoms: S_23  and  C_26
REMARK                            x       y       z     vdW  Elec       q    Type
REMARK                         _______ _______ _______ _____ _____    ______ ____
ROOT
ATOM      1  C   UNL     1       0.189  -1.934  -1.040  0.00  0.00    +0.262 C 
ATOM      2  O   UNL     1       1.294  -2.363  -1.311  0.00  0.00    -0.269 OA
ATOM      3  N   UNL     1      -0.788  -2.781  -0.661  0.00  0.00    -0.230 N 
ATOM      4  H   UNL     1      -1.670  -2.439  -0.445  0.00  0.00    +0.173 HD
ENDROOT
BRANCH   1   9
ATOM      5  C   UNL     1      -1.598   1.362  -0.899  0.00  0.00    +0.001 A 
ATOM      6  C   UNL     1      -0.594   2.235  -1.288  0.00  0.00    +0.002 A 
ATOM      7  C   UNL     1       0.664   1.760  -1.597  0.00  0.00    +0.027 A 
ATOM      8  C   UNL     1       0.932   0.399  -1.519  0.00  0.00    +0.086 A 
ATOM      9  C   UNL     1      -0.082  -0.487  -1.125  0.00  0.00    +0.063 A 
ATOM     10  C   UNL     1      -1.351   0.010  -0.816  0.00  0.00    +0.015 A 
BRANCH   8  11
ATOM     11  N   UNL     1       2.197  -0.082  -1.831  0.00  0.00    -0.097 NA
BRANCH  11  12
ATOM     12  S   UNL     1       3.391   0.968  -2.295  0.00  0.00    +0.098 S 
ATOM     13  O   UNL     1       2.989   1.512  -3.545  0.00  0.00    -0.148 OA
ATOM     14  O   UNL     1       3.677   1.782  -1.167  0.00  0.00    -0.148 OA
BRANCH  12  15
ATOM     15  C   UNL     1       4.836   0.009  -2.604  0.00  0.00    +0.148 A 
ATOM     16  C   UNL     1       5.248  -0.565  -3.761  0.00  0.00    +0.037 A 
ATOM     17  C   UNL     1       6.431  -1.280  -3.770  0.00  0.00    +0.010 A 
ATOM     18  C   UNL     1       7.144  -1.386  -2.622  0.00  0.00    +0.047 A 
ATOM     19  S   UNL     1       6.142  -0.452  -1.478  0.00  0.00    -0.077 S 
ENDBRANCH  12  15
ENDBRANCH  11  12
ENDBRANCH   8  11
ENDBRANCH   1   9
BRANCH   3  20
ATOM     20  N   UNL     1      -0.531  -4.156  -0.579  0.00  0.00    -0.230 N 
ATOM     21  C   UNL     1      -1.508  -5.003  -0.201  0.00  0.00    +0.262 C 
ATOM     22  O   UNL     1      -2.613  -4.575   0.070  0.00  0.00    -0.269 OA
ATOM     23  H   UNL     1       0.351  -4.498  -0.795  0.00  0.00    +0.173 HD
BRANCH  21  24
ATOM     24  C   UNL     1      -1.236  -6.454  -0.115  0.00  0.00    +0.068 A 
ATOM     25  C   UNL     1      -0.723  -7.138  -1.218  0.00  0.00    +0.015 A 
ATOM     26  C   UNL     1      -0.471  -8.491  -1.131  0.00  0.00    +0.001 A 
ATOM     27  C   UNL     1      -0.727  -9.171   0.047  0.00  0.00    +0.002 A 
ATOM     28  C   UNL     1      -1.236  -8.500   1.144  0.00  0.00    +0.033 A 
ATOM     29  C   UNL     1      -1.487  -7.145   1.072  0.00  0.00    +0.138 A 
BRANCH  29  30
ATOM     30  N   UNL     1      -2.025  -6.427   2.249  0.00  0.00    +0.057 N 
ATOM     31  O   UNL     1      -2.357  -7.044   3.234  0.00  0.00    -0.126 OA
ATOM     32  O   UNL     1      -2.134  -5.223   2.225  0.00  0.00    -0.126 OA
ENDBRANCH  29  30
ENDBRANCH  21  24
ENDBRANCH   3  20
TORSDOF 7
