REMARK  Name = ZINC02316394
REMARK  6 active torsions:
REMARK  status: ('A' for Active; 'I' for Inactive)
REMARK    1  A    between atoms: C_3  and  S_21
REMARK    2  A    between atoms: C_6  and  N_7
REMARK    3  A    between atoms: N_7  and  C_8
REMARK    4  A    between atoms: C_8  and  N_10
REMARK    5  A    between atoms: C_11  and  C_13
REMARK    6  A    between atoms: S_21  and  N_24
REMARK                            x       y       z     vdW  Elec       q    Type
REMARK                         _______ _______ _______ _____ _____    ______ ____
ROOT
ATOM      1  C   UNL     1      -2.237   0.189   0.135  0.00  0.00    +0.025 A 
ATOM      2  C   UNL     1      -3.376  -0.591   0.192  0.00  0.00    +0.030 A 
ATOM      3  C   UNL     1      -4.624   0.002   0.175  0.00  0.00    +0.109 A 
ATOM      4  C   UNL     1      -4.738   1.379   0.107  0.00  0.00    +0.030 A 
ATOM      5  C   UNL     1      -3.604   2.165   0.056  0.00  0.00    +0.025 A 
ATOM      6  C   UNL     1      -2.348   1.572   0.072  0.00  0.00    +0.033 A 
ENDROOT
BRANCH   3   7
ATOM      7  S   UNL     1      -6.074  -0.997   0.240  0.00  0.00    +0.074 S 
ATOM      8  O   UNL     1      -5.694  -2.224   0.849  0.00  0.00    -0.150 OA
ATOM      9  O   UNL     1      -7.110  -0.176   0.761  0.00  0.00    -0.150 OA
BRANCH   7  10
ATOM     10  N   UNL     1      -6.493  -1.354  -1.322  0.00  0.00    -0.194 N 
ATOM     11  C   UNL     1      -5.652  -2.130  -2.104  0.00  0.00    +0.177 A 
ATOM     12  N   UNL     1      -4.488  -2.666  -1.791  0.00  0.00    -0.232 NA
ATOM     13  C   UNL     1      -3.812  -3.389  -2.664  0.00  0.00    +0.120 A 
ATOM     14  C   UNL     1      -4.336  -3.563  -3.901  0.00  0.00    +0.068 A 
ATOM     15  S   UNL     1      -5.859  -2.641  -3.751  0.00  0.00    -0.059 S 
ATOM     16  H   UNL     1      -7.326  -1.020  -1.689  0.00  0.00    +0.176 HD
ENDBRANCH   7  10
ENDBRANCH   3   7
BRANCH   6  17
ATOM     17  N   UNL     1      -1.197   2.366   0.021  0.00  0.00    -0.297 N 
ATOM     18  H   UNL     1      -0.470   2.127  -0.575  0.00  0.00    +0.154 HD
BRANCH  17  19
ATOM     19  C   UNL     1      -1.099   3.462   0.798  0.00  0.00    +0.141 C 
ATOM     20  S   UNL     1      -2.425   3.945   1.768  0.00  0.00    -0.018 S 
BRANCH  19  21
ATOM     21  N   UNL     1       0.044   4.176   0.816  0.00  0.00    -0.264 N 
ATOM     22  C   UNL     1       0.144   5.270   1.597  0.00  0.00    +0.251 C 
ATOM     23  O   UNL     1      -0.797   5.612   2.285  0.00  0.00    -0.270 OA
ATOM     24  H   UNL     1       0.795   3.902   0.266  0.00  0.00    +0.157 HD
BRANCH  22  25
ATOM     25  C   UNL     1       1.396   6.051   1.616  0.00  0.00    +0.055 A 
ATOM     26  C   UNL     1       2.479   5.660   0.826  0.00  0.00    +0.016 A 
ATOM     27  C   UNL     1       3.646   6.393   0.849  0.00  0.00    +0.021 A 
ATOM     28  C   UNL     1       3.747   7.518   1.653  0.00  0.00    +0.042 A 
ATOM     29  C   UNL     1       2.677   7.912   2.439  0.00  0.00    +0.040 A 
ATOM     30  C   UNL     1       1.501   7.189   2.421  0.00  0.00    +0.054 A 
ATOM     31 CL   UNL     1       0.158   7.689   3.401  0.00  0.00    -0.083 Cl
ATOM     32 CL   UNL     1       5.220   8.435   1.675  0.00  0.00    -0.083 Cl
ENDBRANCH  22  25
ENDBRANCH  19  21
ENDBRANCH  17  19
ENDBRANCH   6  17
TORSDOF 6
