REMARK  Name = ZINC12986356
REMARK  7 active torsions:
REMARK  status: ('A' for Active; 'I' for Inactive)
REMARK    1  A    between atoms: C_1  and  N_2
REMARK    2  A    between atoms: N_2  and  C_3
REMARK    3  A    between atoms: N_2  and  C_14
REMARK    4  A    between atoms: C_3  and  C_4
REMARK    5  A    between atoms: N_6  and  C_7
REMARK    6  A    between atoms: C_14  and  C_15
REMARK    7  A    between atoms: C_20  and  C_23
REMARK                            x       y       z     vdW  Elec       q    Type
REMARK                         _______ _______ _______ _____ _____    ______ ____
ROOT
ATOM      1  C   UNL     1       2.171  -0.104   1.099  0.00  0.00    +0.202 C 
ATOM      2  O   UNL     1       2.568   0.541   0.152  0.00  0.00    -0.277 OA
ATOM      3  N   UNL     1       3.023  -0.450   2.084  0.00  0.00    -0.266 N 
ATOM      4  C   UNL     1       4.357  -0.068   2.015  0.00  0.00    +0.165 A 
ATOM      5  N   UNL     1       5.340  -0.308   2.862  0.00  0.00    -0.225 NA
ATOM      6  C   UNL     1       6.567   0.137   2.636  0.00  0.00    +0.080 A 
ATOM      7  C   UNL     1       6.821   0.859   1.504  0.00  0.00    +0.076 A 
ATOM      8  S   UNL     1       5.199   0.873   0.750  0.00  0.00    -0.060 S 
ATOM      9  H   UNL     1       2.705  -0.966   2.842  0.00  0.00    +0.157 HD
ENDROOT
BRANCH   6  10
ATOM     10  C   UNL     1       7.655  -0.145   3.604  0.00  0.00    +0.004 A 
ATOM     11  C   UNL     1       8.944   0.331   3.365  0.00  0.00    +0.013 A 
ATOM     12  C   UNL     1       9.954   0.067   4.267  0.00  0.00    +0.042 A 
ATOM     13  C   UNL     1       9.691  -0.670   5.410  0.00  0.00    +0.158 A 
ATOM     14  C   UNL     1       8.410  -1.146   5.653  0.00  0.00    +0.159 A 
ATOM     15  C   UNL     1       7.392  -0.882   4.757  0.00  0.00    +0.051 A 
ATOM     16  F   UNL     1       8.158  -1.865   6.768  0.00  0.00    -0.202 F 
ATOM     17  F   UNL     1      10.683  -0.926   6.290  0.00  0.00    -0.202 F 
ENDBRANCH   6  10
BRANCH   1  18
ATOM     18  C   UNL     1       0.724  -0.519   1.175  0.00  0.00    +0.019 C 
BRANCH  18  20
ATOM     19  C   UNL     1      -0.006   1.446   0.008  0.00  0.00    -0.095 C 
ATOM     20  N   UNL     1       0.010  -0.023  -0.009  0.00  0.00    +0.389 N 
ATOM     21  H   UNL     1       0.477  -0.345  -0.843  0.00  0.00    -0.081 HD
BRANCH  20  22
ATOM     22  C   UNL     1      -1.370  -0.527   0.004  0.00  0.00    +0.019 C 
BRANCH  22  23
ATOM     23  C   UNL     1      -2.066  -0.121  -1.270  0.00  0.00    +0.201 C 
ATOM     24  O   UNL     1      -1.470   0.525  -2.106  0.00  0.00    -0.278 OA
ATOM     25  N   UNL     1      -3.349  -0.476  -1.480  0.00  0.00    -0.286 N 
ATOM     26  H   UNL     1      -3.805  -1.047  -0.842  0.00  0.00    +0.155 HD
BRANCH  25  27
ATOM     27  C   UNL     1      -4.024  -0.020  -2.618  0.00  0.00    +0.052 A 
ATOM     28  C   UNL     1      -3.339   0.140  -3.815  0.00  0.00    +0.025 A 
ATOM     29  C   UNL     1      -4.008   0.589  -4.937  0.00  0.00    +0.002 A 
ATOM     30  C   UNL     1      -5.358   0.880  -4.869  0.00  0.00    +0.002 A 
ATOM     31  C   UNL     1      -6.044   0.722  -3.679  0.00  0.00    +0.022 A 
ATOM     32  C   UNL     1      -5.382   0.267  -2.554  0.00  0.00    +0.062 A 
ATOM     33 CL   UNL     1      -6.244   0.062  -1.062  0.00  0.00    -0.082 Cl
ENDBRANCH  25  27
ENDBRANCH  22  23
ENDBRANCH  20  22
ENDBRANCH  18  20
ENDBRANCH   1  18
TORSDOF 6
