REMARK  Name = ZINC39007441
REMARK  10 active torsions:
REMARK  status: ('A' for Active; 'I' for Inactive)
REMARK    1  A    between atoms: C_1  and  C_2
REMARK    2  A    between atoms: C_5  and  C_8
REMARK    3  A    between atoms: C_10  and  C_14
REMARK    4  A    between atoms: C_18  and  S_22
REMARK    5  A    between atoms: N_20  and  N_21
REMARK    6  A    between atoms: S_22  and  C_23
REMARK    7  A    between atoms: C_23  and  C_24
REMARK    8  A    between atoms: N_26  and  C_27
REMARK    9  A    between atoms: C_30  and  C_34
REMARK   10  A    between atoms: C_32  and  C_33
REMARK                            x       y       z     vdW  Elec       q    Type
REMARK                         _______ _______ _______ _____ _____    ______ ____
ROOT
ATOM      1  C   UNL     1      -1.176  -7.204   1.015  0.00  0.00    +0.185 C 
ATOM      2  N   UNL     1      -1.256  -7.271   2.497  0.00  0.00    -0.234 NA
ATOM      3  N   UNL     1      -2.071  -8.459   2.768  0.00  0.00    -0.228 NA
ATOM      4  C   UNL     1      -1.956  -9.335   1.584  0.00  0.00    +0.214 C 
ATOM      5  N   UNL     1      -1.073  -8.634   0.621  0.00  0.00    -0.197 NA
ATOM      6  H   UNL     1      -1.691  -6.442   2.874  0.00  0.00    +0.143 HD
ATOM      7  H   UNL     1      -1.754  -8.933   3.600  0.00  0.00    +0.143 HD
ENDROOT
BRANCH   1  10
ATOM      8  C   UNL     1       0.029  -4.236   0.037  0.00  0.00    +0.091 C 
ATOM      9  C   UNL     1       0.045  -5.018   1.133  0.00  0.00    +0.034 C 
ATOM     10  C   UNL     1       0.067  -6.429   0.573  0.00  0.00    +0.187 C 
ATOM     11  N   UNL     1       0.059  -6.212  -0.883  0.00  0.00    -0.176 NA
ATOM     12  N   UNL     1       0.032  -4.997  -1.089  0.00  0.00    -0.154 NA
BRANCH   8  17
ATOM     13  C   UNL     1      -0.066   1.522   0.109  0.00  0.00    +0.044 C 
ATOM     14  C   UNL     1      -0.041   0.015   0.090  0.00  0.00    -0.050 A 
ATOM     15  C   UNL     1      -0.039  -0.658  -1.118  0.00  0.00    +0.004 A 
ATOM     16  C   UNL     1      -0.016  -2.038  -1.141  0.00  0.00    +0.010 A 
ATOM     17  C   UNL     1       0.005  -2.752   0.056  0.00  0.00    +0.002 A 
ATOM     18  C   UNL     1       0.003  -2.068   1.270  0.00  0.00    +0.010 A 
ATOM     19  C   UNL     1      -0.015  -0.688   1.281  0.00  0.00    +0.004 A 
ENDBRANCH   8  17
ENDBRANCH   1  10
BRANCH   5  20
ATOM     20  N   UNL     1      -1.525  -8.832  -0.747  0.00  0.00    -0.264 NA
ATOM     21  H   UNL     1      -1.455  -9.803  -1.014  0.00  0.00    +0.137 HD
ATOM     22  H   UNL     1      -2.467  -8.491  -0.869  0.00  0.00    +0.137 HD
ENDBRANCH   5  20
BRANCH   4  23
ATOM     23  S   UNL     1      -1.226 -10.927   2.058  0.00  0.00    -0.115 S 
BRANCH  23  24
ATOM     24  C   UNL     1       0.380 -10.479   2.771  0.00  0.00    +0.168 C 
BRANCH  24  25
ATOM     25  C   UNL     1       1.100 -11.728   3.211  0.00  0.00    +0.227 C 
ATOM     26  O   UNL     1       0.580 -12.813   3.059  0.00  0.00    -0.275 OA
ATOM     27  N   UNL     1       2.321 -11.639   3.774  0.00  0.00    -0.285 N 
ATOM     28  H   UNL     1       2.771 -10.780   3.823  0.00  0.00    +0.155 HD
BRANCH  27  29
ATOM     29  C   UNL     1       2.941 -12.783   4.288  0.00  0.00    +0.036 A 
ATOM     30  C   UNL     1       2.172 -13.865   4.698  0.00  0.00    +0.024 A 
ATOM     31  C   UNL     1       2.786 -14.994   5.204  0.00  0.00    +0.005 A 
ATOM     32  C   UNL     1       4.165 -15.047   5.304  0.00  0.00    -0.050 A 
ATOM     33  C   UNL     1       4.932 -13.972   4.897  0.00  0.00    +0.008 A 
ATOM     34  C   UNL     1       4.324 -12.842   4.383  0.00  0.00    -0.029 A 
ATOM     35  C   UNL     1       5.162 -11.673   3.933  0.00  0.00    +0.045 C 
ATOM     36  C   UNL     1       4.831 -16.280   5.858  0.00  0.00    +0.044 C 
ENDBRANCH  27  29
ENDBRANCH  24  25
ENDBRANCH  23  24
ENDBRANCH   4  23
TORSDOF 7
