REMARK  Name = ZINC04959597
REMARK  3 active torsions:
REMARK  status: ('A' for Active; 'I' for Inactive)
REMARK    1  A    between atoms: C_1  and  O_2
REMARK    2  A    between atoms: O_2  and  C_3
REMARK    3  A    between atoms: C_16  and  C_19
REMARK                            x       y       z     vdW  Elec       q    Type
REMARK                         _______ _______ _______ _____ _____    ______ ____
ROOT
ATOM      1  C   UNL     1      -1.201  -0.638   0.010  0.00  0.00    +0.120 A 
ATOM      2  C   UNL     1      -2.375   0.102   0.019  0.00  0.00    +0.047 A 
ATOM      3  C   UNL     1      -3.592  -0.546   0.034  0.00  0.00    +0.027 A 
ATOM      4  C   UNL     1      -3.646  -1.937   0.037  0.00  0.00    +0.032 A 
ATOM      5  C   UNL     1      -2.478  -2.677   0.016  0.00  0.00    -0.016 A 
ATOM      6  C   UNL     1      -1.255  -2.021   0.003  0.00  0.00    +0.051 A 
ATOM      7  C   UNL     1      -2.479  -4.180  -0.018  0.00  0.00    +0.049 C 
ATOM      8  C   UNL     1      -1.577  -4.620  -1.160  0.00  0.00    -0.023 C 
ATOM      9  C   UNL     1      -2.288  -4.974  -2.199  0.00  0.00    -0.030 C 
ATOM     10  C   UNL     1      -3.769  -4.839  -1.913  0.00  0.00    +0.033 C 
ATOM     11  C   UNL     1      -3.845  -4.771  -0.355  0.00  0.00    +0.029 C 
ATOM     12  C   UNL     1      -5.035  -4.006   0.141  0.00  0.00    +0.106 C 
ATOM     13  N   UNL     1      -4.889  -2.566   0.067  0.00  0.00    -0.336 N 
ATOM     14  H   UNL     1      -5.688  -2.016   0.062  0.00  0.00    +0.147 HD
ENDROOT
BRANCH  12  15
ATOM     15  C   UNL     1      -6.229  -4.385  -0.697  0.00  0.00    -0.009 A 
ATOM     16  C   UNL     1      -6.580  -3.611  -1.787  0.00  0.00    +0.056 A 
ATOM     17  C   UNL     1      -7.677  -3.956  -2.559  0.00  0.00    +0.167 A 
ATOM     18  C   UNL     1      -8.425  -5.085  -2.234  0.00  0.00    +0.167 A 
ATOM     19  C   UNL     1      -8.069  -5.857  -1.140  0.00  0.00    +0.065 A 
ATOM     20  C   UNL     1      -6.969  -5.509  -0.377  0.00  0.00    +0.027 A 
ATOM     21 BR   UNL     1      -6.479  -6.568   1.111  0.00  0.00    -0.050 Br
ATOM     22  O   UNL     1      -9.442  -5.209  -3.136  0.00  0.00    -0.453 OA
ATOM     23  C   UNL     1      -9.553  -3.921  -3.770  0.00  0.00    +0.466 C 
ATOM     24  O   UNL     1      -8.225  -3.373  -3.665  0.00  0.00    -0.453 OA
ENDBRANCH  12  15
BRANCH   1  26
ATOM     25  C   UNL     1      -0.017   1.425   0.010  0.00  0.00    +0.277 C 
ATOM     26  O   UNL     1       0.002  -0.004   0.002  0.00  0.00    -0.495 OA
ENDBRANCH   1  26
TORSDOF 2
