REMARK  Name = ZINC17076687
REMARK  6 active torsions:
REMARK  status: ('A' for Active; 'I' for Inactive)
REMARK    1  A    between atoms: C_1  and  C_2
REMARK    2  A    between atoms: C_2  and  N_3
REMARK    3  A    between atoms: C_4  and  C_27
REMARK    4  A    between atoms: C_5  and  N_9
REMARK    5  A    between atoms: C_6  and  C_8
REMARK    6  A    between atoms: C_22  and  C_26
REMARK                            x       y       z     vdW  Elec       q    Type
REMARK                         _______ _______ _______ _____ _____    ______ ____
ROOT
ATOM      1  N   UNL     1      -1.369   3.824   3.868  0.00  0.00    -0.253 N 
ATOM      2  C   UNL     1      -0.605   3.762   4.973  0.00  0.00    +0.268 A 
ATOM      3  O   UNL     1       0.139   2.815   5.156  0.00  0.00    -0.267 OA
ATOM      4  C   UNL     1      -0.679   4.858   5.964  0.00  0.00    +0.074 A 
ATOM      5  C   UNL     1       0.052   4.998   7.224  0.00  0.00    -0.023 A 
ATOM      6  C   UNL     1      -0.213   6.111   7.938  0.00  0.00    -0.004 A 
ATOM      7  S   UNL     1      -1.417   6.988   6.980  0.00  0.00    -0.075 S 
ATOM      8  C   UNL     1      -1.562   5.893   5.657  0.00  0.00    +0.092 A 
ATOM      9  N   UNL     1      -2.304   5.878   4.508  0.00  0.00    -0.329 N 
ATOM     10  H   UNL     1      -2.998   6.704   4.290  0.00  0.00    +0.168 HD
ATOM     11  C   UNL     1      -2.195   4.857   3.635  0.00  0.00    +0.166 A 
ATOM     12  S   UNL     1      -3.134   4.873   2.204  0.00  0.00    -0.012 S 
ATOM     13  C   UNL     1       0.387   6.506   9.253  0.00  0.00    +0.046 C 
ATOM     14  C   UNL     1       1.630   5.639   9.497  0.00  0.00    -0.009 C 
ATOM     15  C   UNL     1       1.272   4.175   9.223  0.00  0.00    +0.008 C 
ATOM     16  C   UNL     1       1.055   3.965   7.723  0.00  0.00    +0.037 C 
ATOM     17  C   UNL     1       2.088   5.791  10.949  0.00  0.00    +0.008 C 
ENDROOT
BRANCH   1  20
ATOM     18  N   UNL     1      -0.698   1.558   1.213  0.00  0.00    -0.267 N 
ATOM     19  C   UNL     1      -0.447   2.714   1.869  0.00  0.00    +0.060 A 
ATOM     20  C   UNL     1      -1.296   2.780   2.927  0.00  0.00    +0.095 A 
ATOM     21  C   UNL     1      -2.084   1.619   2.917  0.00  0.00    +0.084 A 
ATOM     22  N   UNL     1      -1.725   0.890   1.892  0.00  0.00    -0.174 NA
ATOM     23  C   UNL     1      -3.158   1.272   3.916  0.00  0.00    +0.070 C 
ATOM     24  C   UNL     1       0.586   3.744   1.492  0.00  0.00    +0.067 C 
BRANCH  18  26
ATOM     25  C   UNL     1      -0.753   1.593  -1.232  0.00  0.00    +0.029 C 
ATOM     26  C   UNL     1      -0.013   1.086   0.008  0.00  0.00    +0.140 C 
ENDBRANCH  18  26
ENDBRANCH   1  20
TORSDOF 2
