REMARK  Name = ZINC42029028
REMARK  5 active torsions:
REMARK  status: ('A' for Active; 'I' for Inactive)
REMARK    1  A    between atoms: C_1  and  C_2
REMARK    2  A    between atoms: C_7  and  N_8
REMARK    3  A    between atoms: C_9  and  C_13
REMARK    4  A    between atoms: C_16  and  N_20
REMARK    5  A    between atoms: C_17  and  C_19
REMARK                            x       y       z     vdW  Elec       q    Type
REMARK                         _______ _______ _______ _____ _____    ______ ____
ROOT
ATOM      1  N   UNL     1       0.554   0.176   2.353  0.00  0.00    -0.192 N 
ATOM      2  C   UNL     1       0.378  -0.338   3.604  0.00  0.00    +0.187 A 
ATOM      3  N   UNL     1      -0.002   0.658   4.378  0.00  0.00    -0.108 NA
ATOM      4  N   UNL     1      -0.073   1.749   3.704  0.00  0.00    -0.022 NA
ATOM      5  N   UNL     1       0.252   1.544   2.474  0.00  0.00    -0.039 NA
ENDROOT
BRANCH   1  12
ATOM      6  C   UNL     1      -1.036   0.446   0.008  0.00  0.00    +0.046 C 
ATOM      7  C   UNL     1       0.208  -0.405   0.033  0.00  0.00    -0.025 A 
ATOM      8  C   UNL     1       0.608  -1.077  -1.106  0.00  0.00    +0.006 A 
ATOM      9  C   UNL     1       1.749  -1.858  -1.084  0.00  0.00    +0.015 A 
ATOM     10  C   UNL     1       2.493  -1.968   0.077  0.00  0.00    +0.020 A 
ATOM     11  C   UNL     1       2.098  -1.298   1.219  0.00  0.00    +0.043 A 
ATOM     12  C   UNL     1       0.955  -0.509   1.198  0.00  0.00    +0.073 A 
ATOM     13 BR   UNL     1       4.053  -3.038   0.102  0.00  0.00    -0.050 Br
ENDBRANCH   1  12
BRANCH   2  14
ATOM     14  C   UNL     1       0.573  -1.746   4.013  0.00  0.00    +0.021 A 
ATOM     15  C   UNL     1       0.354  -2.777   3.099  0.00  0.00    +0.013 A 
ATOM     16  C   UNL     1       0.537  -4.087   3.483  0.00  0.00    +0.023 A 
ATOM     17  C   UNL     1       0.940  -4.383   4.781  0.00  0.00    +0.028 A 
ATOM     18  C   UNL     1       1.159  -3.358   5.694  0.00  0.00    -0.029 A 
ATOM     19  C   UNL     1       0.984  -2.045   5.314  0.00  0.00    +0.016 A 
ATOM     20  C   UNL     1       1.594  -3.682   7.100  0.00  0.00    +0.045 C 
BRANCH  17  21
ATOM     21  N   UNL     1       1.124  -5.710   5.167  0.00  0.00    -0.358 N 
ATOM     22  H   UNL     1       0.971  -6.426   4.530  0.00  0.00    +0.142 HD
ATOM     23  H   UNL     1       1.405  -5.917   6.072  0.00  0.00    +0.142 HD
ENDBRANCH  17  21
ENDBRANCH   2  14
TORSDOF 3
