REMARK  Name = ZINC66093268
REMARK  6 active torsions:
REMARK  status: ('A' for Active; 'I' for Inactive)
REMARK    1  A    between atoms: C_4  and  O_7
REMARK    2  A    between atoms: O_7  and  C_8
REMARK    3  A    between atoms: C_11  and  N_14
REMARK    4  A    between atoms: C_15  and  C_17
REMARK    5  A    between atoms: C_17  and  N_18
REMARK    6  A    between atoms: N_18  and  C_19
REMARK                            x       y       z     vdW  Elec       q    Type
REMARK                         _______ _______ _______ _____ _____    ______ ____
ROOT
ATOM      1  N   UNL     1       3.057  -6.135   0.022  0.00  0.00    -0.284 N 
ATOM      2  C   UNL     1       4.145  -6.915   0.178  0.00  0.00    +0.234 C 
ATOM      3  O   UNL     1       5.250  -6.415   0.214  0.00  0.00    -0.274 OA
ATOM      4  H   UNL     1       2.180  -6.539  -0.071  0.00  0.00    +0.155 HD
ENDROOT
BRANCH   1   8
ATOM      5  C   UNL     1       3.460  -1.986  -0.064  0.00  0.00    +0.129 A 
ATOM      6  C   UNL     1       4.447  -2.790  -0.616  0.00  0.00    +0.048 A 
ATOM      7  C   UNL     1       4.314  -4.164  -0.588  0.00  0.00    +0.027 A 
ATOM      8  C   UNL     1       3.192  -4.741  -0.007  0.00  0.00    +0.034 A 
ATOM      9  C   UNL     1       2.205  -3.936   0.546  0.00  0.00    +0.027 A 
ATOM     10  C   UNL     1       2.341  -2.562   0.522  0.00  0.00    +0.048 A 
BRANCH   5  11
ATOM     11  O   UNL     1       3.591  -0.633  -0.092  0.00  0.00    -0.456 OA
BRANCH  11  15
ATOM     12  C   UNL     1       2.902   1.306  -3.667  0.00  0.00    +0.000 A 
ATOM     13  C   UNL     1       3.156   2.039  -2.522  0.00  0.00    +0.004 A 
ATOM     14  C   UNL     1       3.387   1.392  -1.324  0.00  0.00    +0.046 A 
ATOM     15  C   UNL     1       3.364   0.006  -1.269  0.00  0.00    +0.128 A 
ATOM     16  C   UNL     1       3.107  -0.727  -2.420  0.00  0.00    +0.046 A 
ATOM     17  C   UNL     1       2.878  -0.075  -3.615  0.00  0.00    +0.004 A 
ENDBRANCH  11  15
ENDBRANCH   5  11
ENDBRANCH   1   8
BRANCH   2  18
ATOM     18  C   UNL     1       3.990  -8.408   0.307  0.00  0.00    +0.198 C 
BRANCH  18  19
ATOM     19  N   UNL     1       5.309  -9.025   0.465  0.00  0.00    -0.335 N 
ATOM     20  H   UNL     1       6.105  -8.471   0.473  0.00  0.00    +0.147 HD
BRANCH  19  21
ATOM     21  C   UNL     1       5.420 -10.410   0.605  0.00  0.00    +0.028 A 
ATOM     22  C   UNL     1       4.267 -11.203   0.587  0.00  0.00    +0.023 A 
ATOM     23  C   UNL     1       4.346 -12.553   0.720  0.00  0.00    +0.010 A 
ATOM     24  C   UNL     1       5.599 -13.170   0.879  0.00  0.00    -0.018 A 
ATOM     25  C   UNL     1       5.711 -14.564   1.018  0.00  0.00    +0.008 A 
ATOM     26  C   UNL     1       6.939 -15.130   1.169  0.00  0.00    +0.001 A 
ATOM     27  C   UNL     1       8.093 -14.348   1.188  0.00  0.00    +0.001 A 
ATOM     28  C   UNL     1       8.024 -12.995   1.056  0.00  0.00    +0.008 A 
ATOM     29  C   UNL     1       6.772 -12.375   0.897  0.00  0.00    -0.016 A 
ATOM     30  C   UNL     1       6.665 -10.982   0.753  0.00  0.00    +0.031 A 
ENDBRANCH  19  21
ENDBRANCH  18  19
ENDBRANCH   2  18
TORSDOF 6
