REMARK  Name = ZINC09580045
REMARK  8 active torsions:
REMARK  status: ('A' for Active; 'I' for Inactive)
REMARK    1  A    between atoms: C_1  and  C_2
REMARK    2  A    between atoms: C_4  and  C_7
REMARK    3  A    between atoms: C_11  and  N_13
REMARK    4  A    between atoms: C_14  and  C_16
REMARK    5  A    between atoms: C_16  and  C_17
REMARK    6  A    between atoms: C_17  and  C_18
REMARK    7  A    between atoms: C_21  and  S_24
REMARK    8  A    between atoms: S_24  and  N_27
REMARK                            x       y       z     vdW  Elec       q    Type
REMARK                         _______ _______ _______ _____ _____    ______ ____
ROOT
ATOM      1  N   UNL     1      -2.655   2.816   8.614  0.00  0.00    -0.285 N 
ATOM      2  C   UNL     1      -3.141   3.078   7.384  0.00  0.00    +0.218 C 
ATOM      3  O   UNL     1      -4.202   3.653   7.261  0.00  0.00    -0.275 OA
ATOM      4  H   UNL     1      -1.841   2.297   8.713  0.00  0.00    +0.155 HD
ENDROOT
BRANCH   1   9
ATOM      5  C   UNL     1      -5.372   3.833  10.886  0.00  0.00    +0.003 A 
ATOM      6  C   UNL     1      -4.639   4.236  12.001  0.00  0.00    +0.010 A 
ATOM      7  C   UNL     1      -3.260   4.164  11.984  0.00  0.00    +0.002 A 
ATOM      8  C   UNL     1      -2.603   3.690  10.865  0.00  0.00    +0.023 A 
ATOM      9  C   UNL     1      -3.325   3.291   9.747  0.00  0.00    +0.034 A 
ATOM     10  C   UNL     1      -4.710   3.359   9.756  0.00  0.00    +0.033 A 
BRANCH   5  14
ATOM     11  C   UNL     1      -9.846   3.214   8.770  0.00  0.00    +0.073 C 
ATOM     12  C   UNL     1      -8.878   3.595   9.860  0.00  0.00    +0.076 A 
ATOM     13  N   UNL     1      -7.569   3.532   9.854  0.00  0.00    -0.244 NA
ATOM     14  C   UNL     1      -6.854   3.909  10.903  0.00  0.00    +0.078 A 
ATOM     15  C   UNL     1      -7.525   4.366  12.005  0.00  0.00    +0.075 A 
ATOM     16  S   UNL     1      -9.215   4.230  11.441  0.00  0.00    -0.080 S 
ENDBRANCH   5  14
ENDBRANCH   1   9
BRANCH   2  17
ATOM     17  C   UNL     1      -2.367   2.656   6.162  0.00  0.00    +0.101 C 
BRANCH  17  18
ATOM     18  C   UNL     1      -3.133   3.070   4.905  0.00  0.00    +0.044 C 
BRANCH  18  19
ATOM     19  C   UNL     1      -2.358   2.648   3.683  0.00  0.00    -0.047 A 
ATOM     20  C   UNL     1      -2.574   1.403   3.124  0.00  0.00    +0.005 A 
ATOM     21  C   UNL     1      -1.864   1.016   2.002  0.00  0.00    +0.029 A 
ATOM     22  C   UNL     1      -0.939   1.876   1.440  0.00  0.00    +0.105 A 
ATOM     23  C   UNL     1      -0.720   3.119   2.002  0.00  0.00    +0.029 A 
ATOM     24  C   UNL     1      -1.433   3.508   3.121  0.00  0.00    +0.005 A 
BRANCH  22  25
ATOM     25  S   UNL     1      -0.034   1.383   0.010  0.00  0.00    +0.061 S 
ATOM     26  O   UNL     1      -0.025  -0.038   0.005  0.00  0.00    -0.153 OA
ATOM     27  O   UNL     1       1.161   2.152   0.001  0.00  0.00    -0.153 OA
BRANCH  25  28
ATOM     28  N   UNL     1      -0.912   1.857  -1.312  0.00  0.00    -0.177 NA
ATOM     29  C   UNL     1      -1.930   1.048  -1.998  0.00  0.00    +0.109 C 
ATOM     30  C   UNL     1      -2.459   1.886  -3.181  0.00  0.00    +0.018 C 
ATOM     31  C   UNL     1      -1.303   2.888  -3.439  0.00  0.00    +0.018 C 
ATOM     32  C   UNL     1      -0.796   3.155  -2.000  0.00  0.00    +0.109 C 
ENDBRANCH  25  28
ENDBRANCH  22  25
ENDBRANCH  18  19
ENDBRANCH  17  18
ENDBRANCH   2  17
TORSDOF 7
