REMARK  Name = ZINC37325527
REMARK  5 active torsions:
REMARK  status: ('A' for Active; 'I' for Inactive)
REMARK    1  A    between atoms: C_3  and  O_8
REMARK    2  A    between atoms: O_8  and  C_9
REMARK    3  A    between atoms: C_9  and  C_10
REMARK    4  A    between atoms: N_12  and  C_13
REMARK    5  A    between atoms: C_18  and  N_19
REMARK                            x       y       z     vdW  Elec       q    Type
REMARK                         _______ _______ _______ _____ _____    ______ ____
ROOT
ATOM      1  C   UNL     1       5.940   2.275  -0.047  0.00  0.00    +0.255 C 
ATOM      2  O   UNL     1       5.765   3.475  -0.033  0.00  0.00    -0.272 OA
ATOM      3  N   UNL     1       7.192   1.776  -0.058  0.00  0.00    -0.281 N 
ATOM      4  H   UNL     1       7.333   0.819   0.012  0.00  0.00    +0.155 HD
ENDROOT
BRANCH   3   5
ATOM      5  C   UNL     1       8.290   2.641  -0.170  0.00  0.00    +0.054 A 
ATOM      6  C   UNL     1       8.138   3.883  -0.767  0.00  0.00    +0.026 A 
ATOM      7  C   UNL     1       9.221   4.735  -0.877  0.00  0.00    +0.022 A 
ATOM      8  C   UNL     1      10.460   4.351  -0.393  0.00  0.00    +0.043 A 
ATOM      9  C   UNL     1      10.620   3.114   0.204  0.00  0.00    +0.044 A 
ATOM     10  C   UNL     1       9.536   2.256   0.324  0.00  0.00    +0.047 A 
ATOM     11 CL   UNL     1      11.816   5.426  -0.536  0.00  0.00    -0.083 Cl
BRANCH  10  12
ATOM     12  N   UNL     1       9.694   1.007   0.933  0.00  0.00    -0.356 N 
ATOM     13  H   UNL     1       8.936   0.407   1.012  0.00  0.00    +0.142 HD
ATOM     14  H   UNL     1      10.561   0.741   1.276  0.00  0.00    +0.142 HD
ENDBRANCH  10  12
ENDBRANCH   3   5
BRANCH   1  15
ATOM     15  C   UNL     1       4.757   1.341  -0.052  0.00  0.00    +0.324 C 
BRANCH  15  16
ATOM     16  O   UNL     1       3.548   2.104  -0.038  0.00  0.00    -0.483 OA
BRANCH  16  19
ATOM     17  C   UNL     1      -0.017   1.377  -0.031  0.00  0.00    +0.005 A 
ATOM     18  C   UNL     1       1.169   2.085  -0.028  0.00  0.00    +0.046 A 
ATOM     19  C   UNL     1       2.380   1.409  -0.041  0.00  0.00    +0.122 A 
ATOM     20  C   UNL     1       2.397   0.022  -0.057  0.00  0.00    +0.060 A 
ATOM     21  C   UNL     1       1.208  -0.683  -0.059  0.00  0.00    +0.017 A 
ATOM     22  C   UNL     1       0.002  -0.005  -0.047  0.00  0.00    +0.014 A 
ATOM     23  I   UNL     1       1.233  -2.777  -0.084  0.00  0.00    -0.044 I 
ENDBRANCH  16  19
ENDBRANCH  15  16
ENDBRANCH   1  15
TORSDOF 5
