REMARK  Name = ZINC58951925
REMARK  9 active torsions:
REMARK  status: ('A' for Active; 'I' for Inactive)
REMARK    1  A    between atoms: C_1  and  O_2
REMARK    2  A    between atoms: O_2  and  C_3
REMARK    3  A    between atoms: C_8  and  N_9
REMARK    4  A    between atoms: C_11  and  C_16
REMARK    5  A    between atoms: N_18  and  C_19
REMARK    6  A    between atoms: C_19  and  C_20
REMARK    7  A    between atoms: C_24  and  O_26
REMARK    8  A    between atoms: O_26  and  C_27
REMARK    9  A    between atoms: C_27  and  C_28
REMARK                            x       y       z     vdW  Elec       q    Type
REMARK                         _______ _______ _______ _____ _____    ______ ____
ROOT
ATOM      1  C   UNL     1       2.890  -4.311   1.466  0.00  0.00    +0.218 C 
ATOM      2  O   UNL     1       3.069  -3.471   2.321  0.00  0.00    -0.275 OA
ATOM      3  N   UNL     1       3.857  -5.209   1.191  0.00  0.00    -0.311 N 
ATOM      4  H   UNL     1       3.714  -5.882   0.507  0.00  0.00    +0.149 HD
ENDROOT
BRANCH   1   7
ATOM      5  N   UNL     1      -0.073  -2.780  -0.012  0.00  0.00    -0.267 N 
ATOM      6  C   UNL     1       0.634  -3.235   1.190  0.00  0.00    +0.127 C 
ATOM      7  C   UNL     1       1.587  -4.352   0.710  0.00  0.00    +0.101 C 
ATOM      8  C   UNL     1       1.795  -3.973  -0.774  0.00  0.00    +0.110 C 
ATOM      9  C   UNL     1       0.556  -3.180  -1.130  0.00  0.00    +0.221 C 
ATOM     10  O   UNL     1       0.186  -2.939  -2.260  0.00  0.00    -0.275 OA
BRANCH   5  16
ATOM     11  C   UNL     1      -1.201  -0.638   0.010  0.00  0.00    +0.141 A 
ATOM     12  C   UNL     1      -2.374   0.099   0.019  0.00  0.00    +0.049 A 
ATOM     13  C   UNL     1      -3.597  -0.546   0.027  0.00  0.00    +0.024 A 
ATOM     14  C   UNL     1      -3.653  -1.929   0.026  0.00  0.00    +0.043 A 
ATOM     15  C   UNL     1      -2.487  -2.671   0.017  0.00  0.00    +0.047 A 
ATOM     16  C   UNL     1      -1.257  -2.030   0.003  0.00  0.00    +0.080 A 
ATOM     17 CL   UNL     1      -5.192  -2.732   0.035  0.00  0.00    -0.083 Cl
BRANCH  11  19
ATOM     18  C   UNL     1      -0.017   1.425   0.010  0.00  0.00    +0.277 C 
ATOM     19  O   UNL     1       0.002  -0.004   0.002  0.00  0.00    -0.493 OA
ENDBRANCH  11  19
ENDBRANCH   5  16
ENDBRANCH   1   7
BRANCH   3  20
ATOM     20  C   UNL     1       5.124  -5.170   1.925  0.00  0.00    +0.139 C 
BRANCH  20  21
ATOM     21  C   UNL     1       6.025  -6.272   1.431  0.00  0.00    -0.027 A 
ATOM     22  C   UNL     1       5.980  -7.520   2.025  0.00  0.00    +0.005 A 
ATOM     23  C   UNL     1       6.806  -8.533   1.574  0.00  0.00    +0.004 A 
ATOM     24  C   UNL     1       7.679  -8.300   0.529  0.00  0.00    +0.045 A 
ATOM     25  C   UNL     1       7.726  -7.049  -0.068  0.00  0.00    +0.121 A 
ATOM     26  C   UNL     1       6.892  -6.035   0.382  0.00  0.00    +0.050 A 
BRANCH  25  27
ATOM     27  O   UNL     1       8.585  -6.817  -1.097  0.00  0.00    -0.483 OA
BRANCH  27  28
ATOM     28  C   UNL     1       9.409  -7.908  -1.512  0.00  0.00    +0.342 C 
BRANCH  28  29
ATOM     29  C   UNL     1      10.302  -7.460  -2.671  0.00  0.00    +0.424 C 
ATOM     30  F   UNL     1      11.110  -6.397  -2.254  0.00  0.00    -0.167 F 
ATOM     31  F   UNL     1      11.109  -8.528  -3.077  0.00  0.00    -0.167 F 
ATOM     32  F   UNL     1       9.502  -7.046  -3.742  0.00  0.00    -0.167 F 
ENDBRANCH  28  29
ENDBRANCH  27  28
ENDBRANCH  25  27
ENDBRANCH  20  21
ENDBRANCH   3  20
TORSDOF 8
