REMARK  Name = ZINC13577195
REMARK  6 active torsions:
REMARK  status: ('A' for Active; 'I' for Inactive)
REMARK    1  A    between atoms: C_7  and  C_17
REMARK    2  A    between atoms: C_7  and  O_26
REMARK    3  A    between atoms: N_10  and  C_11
REMARK    4  A    between atoms: C_11  and  N_48
REMARK    5  A    between atoms: C_17  and  C_18
REMARK    6  A    between atoms: C_18  and  C_20
REMARK                            x       y       z     vdW  Elec       q    Type
REMARK                         _______ _______ _______ _____ _____    ______ ____
ROOT
ATOM      1  C   UNL     1      -0.749   3.783   0.030  0.00  0.00    +0.000 A 
ATOM      2  C   UNL     1       0.569   4.202   0.021  0.00  0.00    +0.002 A 
ATOM      3  C   UNL     1       1.595   3.280   0.005  0.00  0.00    +0.024 A 
ATOM      4  C   UNL     1       1.309   1.916  -0.000  0.00  0.00    +0.041 A 
ATOM      5  C   UNL     1      -0.018   1.507   0.010  0.00  0.00    +0.014 A 
ATOM      6  C   UNL     1      -1.040   2.430   0.030  0.00  0.00    +0.009 A 
ATOM      7  C   UNL     1       0.002  -0.004   0.002  0.00  0.00    +0.175 C 
ATOM      8  C   UNL     1       1.475  -0.352  -0.014  0.00  0.00    +0.255 C 
ATOM      9  O   UNL     1       1.952  -1.467  -0.024  0.00  0.00    -0.272 OA
ATOM     10  N   UNL     1       2.155   0.807  -0.014  0.00  0.00    -0.285 N 
ENDROOT
BRANCH   7  11
ATOM     11  O   UNL     1      -0.624  -0.520   1.178  0.00  0.00    -0.374 OA
ATOM     12  H   UNL     1      -0.639  -1.486   1.225  0.00  0.00    +0.211 HD
ENDBRANCH   7  11
BRANCH  10  13
ATOM     13  C   UNL     1       3.618   0.896  -0.027  0.00  0.00    +0.038 C 
BRANCH  13  19
ATOM     14  C   UNL     1       4.139  -0.416  -1.994  0.00  0.00    -0.077 C 
ATOM     15  C   UNL     1       4.497  -0.326  -3.479  0.00  0.00    -0.019 C 
ATOM     16  C   UNL     1       5.858   0.360  -3.629  0.00  0.00    -0.004 C 
ATOM     17  C   UNL     1       5.798   1.744  -2.977  0.00  0.00    -0.019 C 
ATOM     18  C   UNL     1       5.402   1.593  -1.507  0.00  0.00    -0.077 C 
ATOM     19  N   UNL     1       4.074   0.950  -1.432  0.00  0.00    +0.390 N 
ATOM     20  H   UNL     1       3.404   1.503  -1.978  0.00  0.00    -0.080 HD
ENDBRANCH  13  19
ENDBRANCH  10  13
BRANCH   7  21
ATOM     21  C   UNL     1      -0.690  -0.543  -1.252  0.00  0.00    +0.129 C 
BRANCH  21  22
ATOM     22  C   UNL     1      -0.656  -2.049  -1.236  0.00  0.00    +0.173 C 
ATOM     23  O   UNL     1      -0.130  -2.635  -0.312  0.00  0.00    -0.291 OA
BRANCH  22  24
ATOM     24  C   UNL     1      -1.236  -2.779  -2.296  0.00  0.00    +0.056 A 
ATOM     25  C   UNL     1      -1.312  -4.157  -2.473  0.00  0.00    +0.020 A 
ATOM     26  C   UNL     1      -1.938  -4.605  -3.606  0.00  0.00    +0.023 A 
ATOM     27  C   UNL     1      -2.446  -3.700  -4.488  0.00  0.00    +0.056 A 
ATOM     28  S   UNL     1      -2.069  -2.175  -3.753  0.00  0.00    -0.079 S 
ATOM     29 BR   UNL     1      -3.351  -4.027  -6.116  0.00  0.00    -0.043 Br
ENDBRANCH  22  24
ENDBRANCH  21  22
ENDBRANCH   7  21
TORSDOF 6
