REMARK  Name = ZINC50208604
REMARK  4 active torsions:
REMARK  status: ('A' for Active; 'I' for Inactive)
REMARK    1  A    between atoms: C_1  and  C_2
REMARK    2  A    between atoms: C_5  and  C_9
REMARK    3  A    between atoms: C_11  and  C_14
REMARK    4  A    between atoms: C_19  and  N_20
REMARK                            x       y       z     vdW  Elec       q    Type
REMARK                         _______ _______ _______ _____ _____    ______ ____
ROOT
ATOM      1  C   UNL     1       0.683  -4.663  -0.568  0.00  0.00    +0.202 A 
ATOM      2  N   UNL     1       0.617  -5.299   0.612  0.00  0.00    -0.187 NA
ATOM      3  C   UNL     1       0.386  -6.578   0.418  0.00  0.00    +0.261 A 
ATOM      4  O   UNL     1       0.298  -6.793  -0.907  0.00  0.00    -0.332 OA
ATOM      5  N   UNL     1       0.488  -5.532  -1.530  0.00  0.00    -0.056 NA
ENDROOT
BRANCH   1  10
ATOM      6  C   UNL     1       1.637   0.973  -1.292  0.00  0.00    +0.047 C 
ATOM      7  C   UNL     1       1.387  -0.501  -1.102  0.00  0.00    -0.015 A 
ATOM      8  C   UNL     1       1.198  -1.316  -2.204  0.00  0.00    +0.007 A 
ATOM      9  C   UNL     1       0.969  -2.666  -2.035  0.00  0.00    +0.012 A 
ATOM     10  C   UNL     1       0.929  -3.211  -0.753  0.00  0.00    +0.025 A 
ATOM     11  C   UNL     1       1.121  -2.388   0.354  0.00  0.00    +0.050 A 
ATOM     12  C   UNL     1       1.354  -1.036   0.175  0.00  0.00    +0.127 A 
ATOM     13  F   UNL     1       1.545  -0.237   1.247  0.00  0.00    -0.205 F 
ENDBRANCH   1  10
BRANCH   3  14
ATOM     14  C   UNL     1       0.248  -7.601   1.472  0.00  0.00    +0.061 A 
ATOM     15  C   UNL     1       1.169  -7.659   2.520  0.00  0.00    +0.030 A 
ATOM     16  C   UNL     1       1.034  -8.617   3.502  0.00  0.00    +0.019 A 
ATOM     17  C   UNL     1      -0.012  -9.526   3.455  0.00  0.00    +0.017 A 
ATOM     18  C   UNL     1      -0.929  -9.480   2.425  0.00  0.00    +0.024 A 
ATOM     19  C   UNL     1      -0.812  -8.518   1.430  0.00  0.00    +0.037 A 
ATOM     20 BR   UNL     1       2.283  -8.693   4.921  0.00  0.00    -0.050 Br
BRANCH  19  21
ATOM     21  N   UNL     1      -1.739  -8.468   0.394  0.00  0.00    -0.357 N 
ATOM     22  H   UNL     1      -1.708  -7.744  -0.251  0.00  0.00    +0.142 HD
ATOM     23  H   UNL     1      -2.417  -9.157   0.316  0.00  0.00    +0.142 HD
ENDBRANCH  19  21
ENDBRANCH   3  14
TORSDOF 3
