REMARK  Name = ZINC57493958
REMARK  8 active torsions:
REMARK  status: ('A' for Active; 'I' for Inactive)
REMARK    1  A    between atoms: C_1  and  S_2
REMARK    2  A    between atoms: S_2  and  C_3
REMARK    3  A    between atoms: C_7  and  N_9
REMARK    4  A    between atoms: C_10  and  C_12
REMARK    5  A    between atoms: C_12  and  N_13
REMARK    6  A    between atoms: N_21  and  C_24
REMARK    7  A    between atoms: C_24  and  C_25
REMARK    8  A    between atoms: C_25  and  C_26
REMARK                            x       y       z     vdW  Elec       q    Type
REMARK                         _______ _______ _______ _____ _____    ______ ____
ROOT
ATOM      1  N   UNL     1       3.919  -5.269   5.842  0.00  0.00    -0.284 N 
ATOM      2  C   UNL     1       5.316  -5.205   5.734  0.00  0.00    +0.066 A 
ATOM      3  C   UNL     1       6.121  -5.069   4.607  0.00  0.00    +0.034 A 
ATOM      4  C   UNL     1       7.465  -5.028   4.746  0.00  0.00    +0.048 A 
ATOM      5  S   UNL     1       7.719  -5.172   6.401  0.00  0.00    -0.090 S 
ATOM      6  C   UNL     1       6.033  -5.287   6.930  0.00  0.00    +0.100 A 
ATOM      7  C   UNL     1       5.382  -5.427   8.161  0.00  0.00    +0.271 A 
ATOM      8  O   UNL     1       6.023  -5.497   9.194  0.00  0.00    -0.266 OA
ATOM      9  N   UNL     1       4.031  -5.482   8.185  0.00  0.00    -0.260 N 
ATOM     10  C   UNL     1       3.331  -5.398   7.041  0.00  0.00    +0.333 A 
ATOM     11  O   UNL     1       2.117  -5.446   7.094  0.00  0.00    -0.246 OA
ENDROOT
BRANCH   1  12
ATOM     12  C   UNL     1       3.094  -5.189   4.634  0.00  0.00    +0.222 C 
BRANCH  12  14
ATOM     13  N   UNL     1       2.006  -3.430   3.277  0.00  0.00    -0.284 N 
ATOM     14  C   UNL     1       2.761  -3.748   4.347  0.00  0.00    +0.237 C 
ATOM     15  O   UNL     1       3.173  -2.873   5.080  0.00  0.00    -0.274 OA
ATOM     16  H   UNL     1       1.613  -4.133   2.735  0.00  0.00    +0.155 HD
BRANCH  13  21
ATOM     17  C   UNL     1       0.372  -0.365   2.056  0.00  0.00    +0.009 A 
ATOM     18  C   UNL     1       1.368   0.574   2.298  0.00  0.00    +0.015 A 
ATOM     19  C   UNL     1       2.567   0.182   2.861  0.00  0.00    +0.003 A 
ATOM     20  C   UNL     1       2.780  -1.144   3.186  0.00  0.00    +0.023 A 
ATOM     21  C   UNL     1       1.789  -2.088   2.947  0.00  0.00    +0.034 A 
ATOM     22  C   UNL     1       0.581  -1.697   2.387  0.00  0.00    +0.038 A 
BRANCH  17  24
ATOM     23  C   UNL     1      -0.961   1.922   1.089  0.00  0.00    +0.090 C 
ATOM     24  S   UNL     1      -1.157   0.135   1.338  0.00  0.00    -0.129 S 
ENDBRANCH  17  24
ENDBRANCH  13  21
ENDBRANCH  12  14
ENDBRANCH   1  12
BRANCH   9  25
ATOM     25  C   UNL     1       3.329  -5.628   9.462  0.00  0.00    +0.135 C 
BRANCH  25  26
ATOM     26  C   UNL     1       3.028  -4.244  10.040  0.00  0.00    +0.064 C 
BRANCH  26  27
ATOM     27  C   UNL     1       2.306  -4.395  11.354  0.00  0.00    -0.009 A 
ATOM     28  C   UNL     1       2.819  -4.485  12.605  0.00  0.00    +0.011 A 
ATOM     29  C   UNL     1       1.956  -4.620  13.677  0.00  0.00    +0.008 A 
ATOM     30  C   UNL     1       0.621  -4.657  13.444  0.00  0.00    +0.045 A 
ATOM     31  S   UNL     1       0.551  -4.492  11.668  0.00  0.00    -0.102 S 
ENDBRANCH  26  27
ENDBRANCH  25  26
ENDBRANCH   9  25
TORSDOF 7
