REMARK  Name = ZINC19126930
REMARK  9 active torsions:
REMARK  status: ('A' for Active; 'I' for Inactive)
REMARK    1  A    between atoms: C_1  and  C_2
REMARK    2  A    between atoms: N_13  and  C_16
REMARK    3  A    between atoms: C_16  and  C_17
REMARK    4  A    between atoms: C_17  and  C_19
REMARK    5  A    between atoms: C_17  and  N_20
REMARK    6  A    between atoms: C_21  and  C_23
REMARK    7  A    between atoms: C_26  and  N_31
REMARK    8  A    between atoms: C_28  and  O_29
REMARK    9  A    between atoms: O_29  and  C_30
REMARK                            x       y       z     vdW  Elec       q    Type
REMARK                         _______ _______ _______ _____ _____    ______ ____
ROOT
ATOM      1  C   UNL     1      -0.019   1.526   0.010  0.00  0.00    +0.092 C 
ATOM      2  C   UNL     1       0.002  -0.004   0.002  0.00  0.00    +0.030 C 
ENDROOT
BRANCH   1   3
ATOM      3  N   UNL     1       1.356   2.033   0.000  0.00  0.00    -0.307 N 
ATOM      4  C   UNL     1       2.012   2.177  -1.168  0.00  0.00    +0.248 C 
ATOM      5  O   UNL     1       1.463   1.886  -2.214  0.00  0.00    -0.270 OA
ATOM      6  H   UNL     1       1.793   2.265   0.834  0.00  0.00    +0.149 HD
BRANCH   4   7
ATOM      7  C   UNL     1       3.393   2.687  -1.179  0.00  0.00    +0.080 A 
ATOM      8  C   UNL     1       4.027   3.022   0.023  0.00  0.00    +0.038 A 
ATOM      9  C   UNL     1       5.308   3.494   0.013  0.00  0.00    +0.062 A 
ATOM     10  C   UNL     1       5.993   3.645  -1.192  0.00  0.00    +0.047 A 
ATOM     11  C   UNL     1       5.377   3.316  -2.393  0.00  0.00    +0.070 A 
ATOM     12  C   UNL     1       4.081   2.832  -2.393  0.00  0.00    +0.134 A 
ATOM     13 CL   UNL     1       6.088   3.908   1.508  0.00  0.00    -0.082 Cl
BRANCH  10  14
ATOM     14  N   UNL     1       7.298   4.128  -1.192  0.00  0.00    -0.357 N 
ATOM     15  H   UNL     1       7.730   4.358  -0.354  0.00  0.00    +0.142 HD
ATOM     16  H   UNL     1       7.777   4.233  -2.029  0.00  0.00    +0.142 HD
ENDBRANCH  10  14
BRANCH  12  17
ATOM     17  O   UNL     1       3.476   2.504  -3.563  0.00  0.00    -0.494 OA
ATOM     18  C   UNL     1       4.238   2.678  -4.759  0.00  0.00    +0.277 C 
ENDBRANCH  12  17
ENDBRANCH   4   7
ENDBRANCH   1   3
BRANCH   1  19
ATOM     19  C   UNL     1      -0.735   2.019   1.269  0.00  0.00    +0.171 C 
BRANCH  19  32
ATOM     20  C   UNL     1       2.077   6.579   3.022  0.00  0.00    +0.047 C 
ATOM     21  C   UNL     1       0.791   6.700   2.247  0.00  0.00    -0.005 A 
ATOM     22  C   UNL     1       0.287   7.918   1.959  0.00  0.00    +0.017 A 
ATOM     23  C   UNL     1      -0.968   8.016   1.204  0.00  0.00    -0.001 A 
ATOM     24  C   UNL     1      -1.510   9.268   0.893  0.00  0.00    +0.010 A 
ATOM     25  C   UNL     1      -2.688   9.345   0.184  0.00  0.00    +0.001 A 
ATOM     26  C   UNL     1      -3.338   8.190  -0.223  0.00  0.00    +0.002 A 
ATOM     27  C   UNL     1      -2.815   6.949   0.076  0.00  0.00    +0.027 A 
ATOM     28  C   UNL     1      -1.628   6.849   0.791  0.00  0.00    +0.060 A 
ATOM     29  N   UNL     1      -1.097   5.600   1.095  0.00  0.00    -0.243 N 
ATOM     30  C   UNL     1       0.084   5.495   1.806  0.00  0.00    +0.165 A 
ATOM     31  N   UNL     1       0.363   4.223   1.958  0.00  0.00    -0.148 NA
ATOM     32  N   UNL     1      -0.651   3.480   1.338  0.00  0.00    -0.211 N 
ATOM     33  C   UNL     1      -1.531   4.354   0.811  0.00  0.00    +0.352 A 
ATOM     34  O   UNL     1      -2.541   4.070   0.191  0.00  0.00    -0.244 OA
ENDBRANCH  19  32
ENDBRANCH   1  19
TORSDOF 6
