REMARK  Name = ZINC59595440
REMARK  3 active torsions:
REMARK  status: ('A' for Active; 'I' for Inactive)
REMARK    1  A    between atoms: C_1  and  N_2
REMARK    2  A    between atoms: C_6  and  C_7
REMARK    3  A    between atoms: N_15  and  C_18
REMARK                            x       y       z     vdW  Elec       q    Type
REMARK                         _______ _______ _______ _____ _____    ______ ____
ROOT
ATOM      1  C   UNL     1       1.620   1.333  -0.123  0.00  0.00    +0.140 C 
ATOM      2  N   UNL     1       1.007   0.005  -0.048  0.00  0.00    -0.252 N 
ATOM      3  C   UNL     1       0.582  -0.590  -1.182  0.00  0.00    +0.257 C 
ATOM      4  O   UNL     1       0.701  -0.038  -2.260  0.00  0.00    -0.269 OA
ATOM      5  C   UNL     1      -0.032  -1.925  -1.080  0.00  0.00    +0.103 C 
ATOM      6  C   UNL     1      -0.493  -2.600  -2.205  0.00  0.00    +0.064 C 
ATOM      7  C   UNL     1      -0.134  -2.516   0.266  0.00  0.00    +0.262 C 
ATOM      8  O   UNL     1      -0.628  -3.616   0.429  0.00  0.00    -0.269 OA
ATOM      9  N   UNL     1       0.335  -1.805   1.311  0.00  0.00    -0.217 N 
ATOM     10  C   UNL     1       0.887  -0.594   1.145  0.00  0.00    +0.153 C 
ATOM     11  S   UNL     1       1.462   0.232   2.529  0.00  0.00    -0.017 S 
ENDROOT
BRANCH   9  12
ATOM     12  C   UNL     1       0.248  -2.346   2.602  0.00  0.00    +0.043 A 
ATOM     13  C   UNL     1       1.185  -3.276   3.030  0.00  0.00    +0.027 A 
ATOM     14  C   UNL     1       1.098  -3.808   4.301  0.00  0.00    +0.040 A 
ATOM     15  C   UNL     1       0.077  -3.414   5.149  0.00  0.00    +0.124 A 
ATOM     16  C   UNL     1      -0.859  -2.486   4.724  0.00  0.00    +0.040 A 
ATOM     17  C   UNL     1      -0.772  -1.948   3.455  0.00  0.00    +0.027 A 
ATOM     18  F   UNL     1      -0.007  -3.936   6.392  0.00  0.00    -0.205 F 
ENDBRANCH   9  12
BRANCH   6  19
ATOM     19  C   UNL     1      -0.591  -1.929  -3.434  0.00  0.00    +0.130 A 
ATOM     20  C   UNL     1      -0.398  -2.488  -4.689  0.00  0.00    +0.050 A 
ATOM     21  C   UNL     1      -0.596  -1.460  -5.616  0.00  0.00    +0.056 A 
ATOM     22  C   UNL     1      -0.895  -0.338  -4.916  0.00  0.00    +0.165 A 
ATOM     23  O   UNL     1      -0.897  -0.625  -3.608  0.00  0.00    -0.450 OA
ATOM     24  I   UNL     1      -1.297   1.543  -5.747  0.00  0.00    -0.001 I 
ENDBRANCH   6  19
TORSDOF 2
