REMARK  Name = ZINC59250146
REMARK  10 active torsions:
REMARK  status: ('A' for Active; 'I' for Inactive)
REMARK    1  A    between atoms: C_1  and  C_2
REMARK    2  A    between atoms: C_5  and  N_9
REMARK    3  A    between atoms: C_7  and  C_8
REMARK    4  A    between atoms: N_12  and  N_13
REMARK    5  A    between atoms: C_14  and  C_15
REMARK    6  A    between atoms: C_17  and  C_33
REMARK    7  A    between atoms: N_18  and  C_21
REMARK    8  A    between atoms: C_19  and  C_20
REMARK    9  A    between atoms: C_23  and  C_30
REMARK   10  A    between atoms: C_25  and  C_27
REMARK                            x       y       z     vdW  Elec       q    Type
REMARK                         _______ _______ _______ _____ _____    ______ ____
ROOT
ATOM      1  C   UNL     1      -0.172  -8.922   1.300  0.00  0.00    +0.016 A 
ATOM      2  C   UNL     1      -0.247 -10.375   1.474  0.00  0.00    +0.032 A 
ATOM      3  C   UNL     1      -0.199 -10.607   2.799  0.00  0.00    +0.022 A 
ATOM      4  N   UNL     1      -0.099  -9.412   3.453  0.00  0.00    -0.317 N 
ATOM      5  C   UNL     1      -0.077  -8.390   2.554  0.00  0.00    +0.030 A 
ATOM      6  C   UNL     1       0.029  -6.924   2.886  0.00  0.00    +0.064 C 
ATOM      7  C   UNL     1      -0.246 -11.963   3.454  0.00  0.00    +0.064 C 
ENDROOT
BRANCH   4   8
ATOM      8  C   UNL     1      -0.025  -9.261   4.845  0.00  0.00    +0.048 A 
ATOM      9  C   UNL     1      -1.052  -8.624   5.526  0.00  0.00    +0.041 A 
ATOM     10  C   UNL     1      -0.983  -8.471   6.913  0.00  0.00    +0.066 A 
ATOM     11  C   UNL     1       0.121  -8.959   7.612  0.00  0.00    +0.030 A 
ATOM     12  C   UNL     1       1.151  -9.598   6.923  0.00  0.00    +0.066 A 
ATOM     13  C   UNL     1       1.071  -9.752   5.537  0.00  0.00    +0.041 A 
BRANCH  12  14
ATOM     14  C   UNL     1       2.321 -10.117   7.658  0.00  0.00    +0.387 C 
ATOM     15  O   UNL     1       2.388  -9.986   8.872  0.00  0.00    -0.241 OA
ATOM     16  O   UNL     1       3.223 -10.678   7.053  0.00  0.00    -0.241 OA
ENDBRANCH  12  14
BRANCH  10  17
ATOM     17  C   UNL     1      -2.075  -7.793   7.637  0.00  0.00    +0.387 C 
ATOM     18  O   UNL     1      -3.042  -7.365   7.023  0.00  0.00    -0.241 OA
ATOM     19  O   UNL     1      -2.013  -7.659   8.851  0.00  0.00    -0.241 OA
ENDBRANCH  10  17
ENDBRANCH   4   8
BRANCH   1  21
ATOM     20  N   UNL     1      -0.108  -6.887   0.025  0.00  0.00    -0.186 NA
ATOM     21  C   UNL     1      -0.189  -8.182   0.025  0.00  0.00    +0.140 C 
BRANCH  20  25
ATOM     22  N   UNL     1       0.059  -4.170  -0.021  0.00  0.00    -0.268 N 
ATOM     23  C   UNL     1      -0.040  -4.838  -1.187  0.00  0.00    +0.323 C 
ATOM     24  O   UNL     1      -0.054  -4.228  -2.239  0.00  0.00    -0.251 OA
ATOM     25  N   UNL     1      -0.124  -6.184  -1.187  0.00  0.00    -0.191 N 
ATOM     26  H   UNL     1       0.137  -4.658   0.813  0.00  0.00    +0.156 HD
ATOM     27  H   UNL     1      -0.195  -6.665  -2.026  0.00  0.00    +0.179 HD
BRANCH  22  32
ATOM     28  C   UNL     1       0.014   1.503   0.006  0.00  0.00    +0.044 C 
ATOM     29  C   UNL     1       0.026  -0.004  -0.001  0.00  0.00    -0.047 A 
ATOM     30  C   UNL     1       0.631  -0.684  -1.042  0.00  0.00    +0.005 A 
ATOM     31  C   UNL     1       0.643  -2.065  -1.052  0.00  0.00    +0.023 A 
ATOM     32  C   UNL     1       0.048  -2.771  -0.014  0.00  0.00    +0.035 A 
ATOM     33  C   UNL     1      -0.558  -2.085   1.030  0.00  0.00    +0.027 A 
ATOM     34  C   UNL     1      -0.563  -0.703   1.036  0.00  0.00    -0.046 A 
ATOM     35  C   UNL     1      -1.215   0.042   2.172  0.00  0.00    +0.044 C 
ENDBRANCH  22  32
ENDBRANCH  20  25
ENDBRANCH   1  21
TORSDOF 6
