REMARK  Name = ZINC41896954
REMARK  5 active torsions:
REMARK  status: ('A' for Active; 'I' for Inactive)
REMARK    1  A    between atoms: C_1  and  C_2
REMARK    2  A    between atoms: C_5  and  C_11
REMARK    3  A    between atoms: C_5  and  N_14
REMARK    4  A    between atoms: C_7  and  C_9
REMARK    5  A    between atoms: C_7  and  C_10
REMARK                            x       y       z     vdW  Elec       q    Type
REMARK                         _______ _______ _______ _____ _____    ______ ____
ROOT
ATOM      1  C   UNL     1       0.155   1.091   1.731  0.00  0.00    +0.007 C 
ATOM      2  C   UNL     1       0.113  -0.282   1.058  0.00  0.00    -0.011 C 
ATOM      3  C   UNL     1       0.599  -0.156  -0.388  0.00  0.00    +0.043 C 
ATOM      4  C   UNL     1       0.557  -1.529  -1.061  0.00  0.00    +0.150 C 
ATOM      5  C   UNL     1       1.464  -2.498  -0.300  0.00  0.00    +0.046 C 
ATOM      6  C   UNL     1       0.977  -2.624   1.145  0.00  0.00    -0.032 C 
ATOM      7  C   UNL     1       1.020  -1.251   1.818  0.00  0.00    +0.010 C 
ATOM      8  C   UNL     1      -0.458  -3.154   1.155  0.00  0.00    +0.011 C 
ATOM      9  C   UNL     1       1.884  -3.594   1.905  0.00  0.00    +0.011 C 
ENDROOT
BRANCH   4  10
ATOM     10  N   UNL     1      -0.818  -2.036  -1.051  0.00  0.00    -0.297 N 
ATOM     11  C   UNL     1      -1.833  -1.216  -0.675  0.00  0.00    +0.105 A 
ATOM     12  C   UNL     1      -3.111  -1.662  -0.658  0.00  0.00    +0.034 A 
ATOM     13  C   UNL     1      -3.397  -2.984  -1.031  0.00  0.00    +0.022 A 
ATOM     14  C   UNL     1      -2.375  -3.805  -1.408  0.00  0.00    +0.071 A 
ATOM     15  C   UNL     1      -1.061  -3.308  -1.420  0.00  0.00    +0.252 A 
ATOM     16  O   UNL     1      -0.138  -4.031  -1.760  0.00  0.00    -0.268 OA
ATOM     17 BR   UNL     1      -4.511  -0.505  -0.130  0.00  0.00    -0.049 Br
ENDBRANCH   4  10
BRANCH   4  18
ATOM     18  C   UNL     1       1.036  -1.405  -2.485  0.00  0.00    +0.382 C 
ATOM     19  O   UNL     1       2.161  -0.998  -2.716  0.00  0.00    -0.244 OA
ATOM     20  O   UNL     1       0.297  -1.712  -3.405  0.00  0.00    -0.244 OA
ENDBRANCH   4  18
TORSDOF 2
