REMARK  Name = ZINC07127870
REMARK  4 active torsions:
REMARK  status: ('A' for Active; 'I' for Inactive)
REMARK    1  A    between atoms: C_2  and  C_3
REMARK    2  A    between atoms: C_3  and  O_4
REMARK    3  A    between atoms: O_4  and  C_5
REMARK    4  A    between atoms: C_10  and  C_11
REMARK                            x       y       z     vdW  Elec       q    Type
REMARK                         _______ _______ _______ _____ _____    ______ ____
ROOT
ATOM      1  C   UNL     1       3.965   2.961  -0.019  0.00  0.00    +0.212 C 
ATOM      2  N   UNL     1       5.121   3.686  -0.577  0.00  0.00    -0.294 N 
ATOM      3  C   UNL     1       5.813   4.546   0.263  0.00  0.00    +0.159 C 
ATOM      4  N   UNL     1       6.233   4.016   1.484  0.00  0.00    -0.259 N 
ATOM      5  C   UNL     1       5.375   3.076   2.047  0.00  0.00    +0.205 A 
ATOM      6  N   UNL     1       4.304   2.560   1.351  0.00  0.00    -0.288 N 
ATOM      7  C   UNL     1       3.682   1.666   2.173  0.00  0.00    +0.072 A 
ATOM      8  C   UNL     1       2.569   0.849   2.012  0.00  0.00    +0.028 A 
ATOM      9  C   UNL     1       2.212   0.049   3.085  0.00  0.00    +0.002 A 
ATOM     10  C   UNL     1       2.923   0.054   4.273  0.00  0.00    +0.002 A 
ATOM     11  C   UNL     1       4.034   0.857   4.459  0.00  0.00    +0.030 A 
ATOM     12  C   UNL     1       4.414   1.673   3.388  0.00  0.00    +0.091 A 
ATOM     13  N   UNL     1       5.425   2.553   3.242  0.00  0.00    -0.214 NA
ATOM     14  N   UNL     1       6.059   5.782  -0.070  0.00  0.00    -0.375 N 
ATOM     15  H   UNL     1       5.388   3.567  -1.502  0.00  0.00    +0.151 HD
ATOM     16  H   UNL     1       5.755   6.123  -0.926  0.00  0.00    +0.158 HD
ATOM     17  H   UNL     1       7.062   4.284   1.909  0.00  0.00    +0.158 HD
ATOM     18  H   UNL     1       6.545   6.360   0.538  0.00  0.00    +0.158 HD
ENDROOT
BRANCH   1  24
ATOM     19  C   UNL     1       2.053   4.099  -1.175  0.00  0.00    +0.129 A 
ATOM     20  C   UNL     1       0.937   4.923  -1.157  0.00  0.00    +0.047 A 
ATOM     21  C   UNL     1       0.532   5.509   0.027  0.00  0.00    +0.019 A 
ATOM     22  C   UNL     1       1.238   5.275   1.193  0.00  0.00    +0.018 A 
ATOM     23  C   UNL     1       2.352   4.454   1.177  0.00  0.00    +0.026 A 
ATOM     24  C   UNL     1       2.756   3.861  -0.004  0.00  0.00    +0.036 A 
ATOM     25 BR   UNL     1       0.682   6.078   2.812  0.00  0.00    -0.050 Br
BRANCH  19  26
ATOM     26  O   UNL     1       2.454   3.521  -2.338  0.00  0.00    -0.479 OA
BRANCH  26  27
ATOM     27  C   UNL     1       1.682   3.811  -3.506  0.00  0.00    +0.317 C 
BRANCH  27  29
ATOM     28  C   UNL     1       2.716   2.543  -5.585  0.00  0.00    +0.007 C 
ATOM     29  C   UNL     1       2.257   3.106  -4.662  0.00  0.00    -0.065 C 
ENDBRANCH  27  29
ENDBRANCH  26  27
ENDBRANCH  19  26
ENDBRANCH   1  24
TORSDOF 4
