REMARK  Name = ZINC13398923
REMARK  5 active torsions:
REMARK  status: ('A' for Active; 'I' for Inactive)
REMARK    1  A    between atoms: C_1  and  C_2
REMARK    2  A    between atoms: C_5  and  C_26
REMARK    3  A    between atoms: C_5  and  O_29
REMARK    4  A    between atoms: C_17  and  C_25
REMARK    5  A    between atoms: C_22  and  O_24
REMARK                            x       y       z     vdW  Elec       q    Type
REMARK                         _______ _______ _______ _____ _____    ______ ____
ROOT
ATOM      1  C   UNL     1      -1.958  -2.086   4.900  0.00  0.00    +0.012 C 
ATOM      2  C   UNL     1      -2.179  -2.028   3.363  0.00  0.00    -0.026 C 
ATOM      3  C   UNL     1      -3.659  -2.340   3.152  0.00  0.00    +0.011 C 
ATOM      4  C   UNL     1      -4.027  -2.780   1.750  0.00  0.00    +0.048 C 
ATOM      5  C   UNL     1      -3.112  -3.878   1.219  0.00  0.00    +0.128 C 
ATOM      6  C   UNL     1      -1.658  -3.424   1.311  0.00  0.00    +0.052 C 
ATOM      7  C   UNL     1      -1.285  -3.087   2.748  0.00  0.00    -0.001 C 
ATOM      8  C   UNL     1       0.195  -2.705   2.808  0.00  0.00    +0.004 C 
ATOM      9  C   UNL     1       0.398  -1.335   2.157  0.00  0.00    +0.004 C 
ATOM     10  C   UNL     1      -0.374  -0.302   2.977  0.00  0.00    -0.004 C 
ATOM     11  C   UNL     1      -1.865  -0.603   2.931  0.00  0.00    -0.001 C 
ATOM     12  C   UNL     1      -2.420  -0.277   1.549  0.00  0.00    +0.005 C 
ATOM     13  C   UNL     1      -2.211   1.210   1.262  0.00  0.00    +0.010 C 
ATOM     14  C   UNL     1      -0.730   1.580   1.269  0.00  0.00    -0.003 C 
ATOM     15  C   UNL     1      -0.042   1.109   2.555  0.00  0.00    +0.001 C 
ATOM     16  C   UNL     1      -0.485   2.130   3.623  0.00  0.00    +0.007 C 
ATOM     17  C   UNL     1      -0.580   3.469   2.862  0.00  0.00    +0.032 C 
ATOM     18  C   UNL     1      -0.652   3.129   1.365  0.00  0.00    +0.121 C 
ATOM     19  C   UNL     1      -0.013   1.086   0.008  0.00  0.00    +0.014 C 
ENDROOT
BRANCH   5  20
ATOM     20  C   UNL     1      -3.318  -5.124   1.969  0.00  0.00    -0.051 C 
ATOM     21  C   UNL     1      -3.483  -6.120   2.569  0.00  0.00    +0.007 C 
ATOM     22 CL   UNL     1      -3.713  -7.511   3.406  0.00  0.00    -0.023 Cl
ENDBRANCH   5  20
BRANCH  18  23
ATOM     23  O   UNL     1      -1.810   3.722   0.775  0.00  0.00    -0.391 OA
ATOM     24  H   UNL     1      -1.816   4.689   0.806  0.00  0.00    +0.210 HD
ENDBRANCH  18  23
BRANCH   5  25
ATOM     25  O   UNL     1      -3.433  -4.118  -0.160  0.00  0.00    -0.376 OA
ATOM     26  H   UNL     1      -4.346  -4.401  -0.308  0.00  0.00    +0.211 HD
ENDBRANCH   5  25
TORSDOF 3
