REMARK  Name = ZINC09019595
REMARK  3 active torsions:
REMARK  status: ('A' for Active; 'I' for Inactive)
REMARK    1  A    between atoms: C_15  and  C_17
REMARK    2  A    between atoms: C_17  and  C_19
REMARK    3  A    between atoms: N_28  and  C_31
REMARK                            x       y       z     vdW  Elec       q    Type
REMARK                         _______ _______ _______ _____ _____    ______ ____
ROOT
ATOM      1  C   UNL     1      -1.244   3.537   0.037  0.00  0.00    +0.001 A 
ATOM      2  C   UNL     1      -0.055   4.244   0.031  0.00  0.00    +0.000 A 
ATOM      3  C   UNL     1       1.156   3.573   0.014  0.00  0.00    +0.006 A 
ATOM      4  C   UNL     1       1.180   2.197   0.003  0.00  0.00    -0.021 A 
ATOM      5  C   UNL     1      -0.018   1.473   0.010  0.00  0.00    -0.019 A 
ATOM      6  C   UNL     1      -1.234   2.158   0.031  0.00  0.00    +0.008 A 
ATOM      7  C   UNL     1       0.002  -0.004   0.002  0.00  0.00    +0.022 C 
ATOM      8  C   UNL     1       1.131  -0.648  -0.352  0.00  0.00    +0.054 C 
ATOM      9  C   UNL     1       2.484   1.443  -0.021  0.00  0.00    +0.100 C 
ATOM     10  C   UNL     1       3.550   2.172  -0.840  0.00  0.00    +0.113 C 
ATOM     11  C   UNL     1       3.762   1.293  -2.107  0.00  0.00    +0.116 C 
ATOM     12  C   UNL     1       3.247  -0.091  -1.685  0.00  0.00    +0.141 C 
ATOM     13  C   UNL     1       5.275   1.252  -2.214  0.00  0.00    +0.232 C 
ATOM     14  O   UNL     1       5.906   0.937  -3.200  0.00  0.00    -0.274 OA
ATOM     15  N   UNL     1       5.797   1.623  -1.036  0.00  0.00    -0.207 N 
ATOM     16  C   UNL     1       4.894   2.067  -0.148  0.00  0.00    +0.232 C 
ATOM     17  O   UNL     1       5.116   2.339   1.012  0.00  0.00    -0.274 OA
ATOM     18  N   UNL     1       2.474   0.061  -0.424  0.00  0.00    -0.384 NA
ATOM     19  H   UNL     1       3.040  -0.418   0.286  0.00  0.00    +0.127 HD
ENDROOT
BRANCH  15  20
ATOM     20  C   UNL     1       7.170   1.552  -0.755  0.00  0.00    +0.079 A 
ATOM     21  C   UNL     1       7.707   0.401  -0.195  0.00  0.00    +0.027 A 
ATOM     22  C   UNL     1       9.059   0.332   0.076  0.00  0.00    +0.002 A 
ATOM     23  C   UNL     1       9.878   1.411  -0.200  0.00  0.00    +0.003 A 
ATOM     24  C   UNL     1       9.347   2.562  -0.752  0.00  0.00    +0.040 A 
ATOM     25  C   UNL     1       7.995   2.636  -1.031  0.00  0.00    +0.145 A 
ATOM     26  F   UNL     1       7.475   3.761  -1.570  0.00  0.00    -0.204 F 
ENDBRANCH  15  20
BRANCH  12  27
ATOM     27  C   UNL     1       4.386  -0.886  -1.101  0.00  0.00    +0.183 C 
ATOM     28  O   UNL     1       4.478  -1.020   0.101  0.00  0.00    -0.290 OA
BRANCH  27  29
ATOM     29  C   UNL     1       5.385  -1.501  -1.988  0.00  0.00    +0.019 A 
ATOM     30  C   UNL     1       5.278  -1.354  -3.375  0.00  0.00    +0.013 A 
ATOM     31  C   UNL     1       6.220  -1.928  -4.200  0.00  0.00    +0.020 A 
ATOM     32  C   UNL     1       7.266  -2.659  -3.660  0.00  0.00    +0.041 A 
ATOM     33  C   UNL     1       7.375  -2.813  -2.287  0.00  0.00    +0.020 A 
ATOM     34  C   UNL     1       6.443  -2.240  -1.449  0.00  0.00    +0.013 A 
ATOM     35 CL   UNL     1       8.446  -3.384  -4.707  0.00  0.00    -0.084 Cl
ENDBRANCH  27  29
ENDBRANCH  12  27
TORSDOF 3
