REMARK  Name = ZINC12614178
REMARK  7 active torsions:
REMARK  status: ('A' for Active; 'I' for Inactive)
REMARK    1  A    between atoms: C_4  and  C_7
REMARK    2  A    between atoms: C_12  and  N_16
REMARK    3  A    between atoms: N_16  and  C_17
REMARK    4  A    between atoms: C_17  and  C_18
REMARK    5  A    between atoms: C_18  and  C_20
REMARK    6  A    between atoms: C_18  and  O_29
REMARK    7  A    between atoms: C_23  and  N_26
REMARK                            x       y       z     vdW  Elec       q    Type
REMARK                         _______ _______ _______ _____ _____    ______ ____
ROOT
ATOM      1  C   UNL     1       3.436   2.561   0.241  0.00  0.00    +0.002 A 
ATOM      2  C   UNL     1       4.288   2.493   1.290  0.00  0.00    +0.056 A 
ATOM      3  S   UNL     1       5.670   3.491   0.769  0.00  0.00    -0.076 S 
ATOM      4  C   UNL     1       5.076   3.982  -0.828  0.00  0.00    +0.114 A 
ATOM      5  C   UNL     1       3.817   3.355  -0.923  0.00  0.00    +0.055 A 
ATOM      6  C   UNL     1       3.109   3.587  -2.132  0.00  0.00    +0.131 A 
ATOM      7  N   UNL     1       3.656   4.353  -3.064  0.00  0.00    -0.220 NA
ATOM      8  C   UNL     1       4.843   4.910  -2.908  0.00  0.00    +0.224 A 
ATOM      9  N   UNL     1       5.547   4.730  -1.807  0.00  0.00    -0.228 NA
ENDROOT
BRANCH   1  13
ATOM     10  C   UNL     1      -0.289   0.515   0.342  0.00  0.00    +0.000 A 
ATOM     11  C   UNL     1      -0.263   1.893   0.220  0.00  0.00    +0.001 A 
ATOM     12  C   UNL     1       0.943   2.562   0.187  0.00  0.00    +0.008 A 
ATOM     13  C   UNL     1       2.137   1.848   0.276  0.00  0.00    -0.017 A 
ATOM     14  C   UNL     1       2.104   0.459   0.398  0.00  0.00    +0.008 A 
ATOM     15  C   UNL     1       0.892  -0.200   0.430  0.00  0.00    +0.001 A 
ENDBRANCH   1  13
BRANCH   6  16
ATOM     16  N   UNL     1       1.863   3.021  -2.334  0.00  0.00    -0.326 N 
ATOM     17  H   UNL     1       1.509   2.386  -1.692  0.00  0.00    +0.148 HD
BRANCH  16  18
ATOM     18  C   UNL     1       1.078   3.381  -3.518  0.00  0.00    +0.139 C 
BRANCH  18  19
ATOM     19  C   UNL     1      -0.249   2.620  -3.500  0.00  0.00    +0.161 C 
BRANCH  19  20
ATOM     20  C   UNL     1      -1.057   2.990  -4.717  0.00  0.00    -0.018 A 
ATOM     21  C   UNL     1      -0.843   2.333  -5.915  0.00  0.00    +0.008 A 
ATOM     22  C   UNL     1      -1.587   2.670  -7.030  0.00  0.00    +0.033 A 
ATOM     23  C   UNL     1      -2.539   3.669  -6.950  0.00  0.00    +0.126 A 
ATOM     24  C   UNL     1      -2.749   4.329  -5.754  0.00  0.00    +0.033 A 
ATOM     25  C   UNL     1      -2.008   3.989  -4.638  0.00  0.00    +0.008 A 
BRANCH  23  26
ATOM     26  N   UNL     1      -3.332   4.033  -8.146  0.00  0.00    +0.056 N 
ATOM     27  O   UNL     1      -4.170   4.913  -8.076  0.00  0.00    -0.126 OA
ATOM     28  O   UNL     1      -3.147   3.451  -9.200  0.00  0.00    -0.126 OA
ENDBRANCH  23  26
ENDBRANCH  19  20
BRANCH  19  29
ATOM     29  O   UNL     1       0.008   1.214  -3.508  0.00  0.00    -0.386 OA
ATOM     30  H   UNL     1       0.501   0.909  -4.282  0.00  0.00    +0.210 HD
ENDBRANCH  19  29
ENDBRANCH  18  19
ENDBRANCH  16  18
ENDBRANCH   6  16
TORSDOF 7
