REMARK  Name = ZINC64930833
REMARK  4 active torsions:
REMARK  status: ('A' for Active; 'I' for Inactive)
REMARK    1  A    between atoms: C_6  and  N_7
REMARK    2  A    between atoms: C_14  and  C_16
REMARK    3  A    between atoms: C_19  and  C_21
REMARK    4  A    between atoms: N_23  and  C_24
REMARK                            x       y       z     vdW  Elec       q    Type
REMARK                         _______ _______ _______ _____ _____    ______ ____
ROOT
ATOM      1  N   UNL     1      -1.007  -0.889   0.270  0.00  0.00    -0.269 N 
ATOM      2  C   UNL     1      -2.119  -0.128   0.296  0.00  0.00    +0.307 C 
ATOM      3  O   UNL     1      -2.026   1.083   0.354  0.00  0.00    -0.252 OA
ATOM      4  N   UNL     1      -3.334  -0.710   0.258  0.00  0.00    -0.276 N 
ATOM      5  C   UNL     1      -3.591  -2.161   0.194  0.00  0.00    +0.110 C 
ATOM      6  C   UNL     1      -4.999  -2.286  -0.438  0.00  0.00    +0.021 C 
ATOM      7  C   UNL     1      -5.733  -1.073   0.192  0.00  0.00    +0.031 C 
ATOM      8  C   UNL     1      -4.623  -0.004   0.281  0.00  0.00    +0.135 C 
ATOM      9  H   UNL     1      -1.078  -1.848   0.146  0.00  0.00    +0.156 HD
ENDROOT
BRANCH   1  15
ATOM     10  C   UNL     1       0.403   0.815   1.242  0.00  0.00    +0.027 A 
ATOM     11  C   UNL     1       1.645   1.403   1.392  0.00  0.00    +0.051 A 
ATOM     12  C   UNL     1       2.743   0.889   0.723  0.00  0.00    +0.166 A 
ATOM     13  C   UNL     1       2.595  -0.224  -0.103  0.00  0.00    +0.168 A 
ATOM     14  C   UNL     1       1.351  -0.813  -0.252  0.00  0.00    +0.073 A 
ATOM     15  C   UNL     1       0.253  -0.293   0.420  0.00  0.00    +0.038 A 
ATOM     16  O   UNL     1       3.811  -0.531  -0.642  0.00  0.00    -0.453 OA
ATOM     17  C   UNL     1       4.621   0.646  -0.462  0.00  0.00    +0.466 C 
ATOM     18  O   UNL     1       4.052   1.278   0.700  0.00  0.00    -0.453 OA
ENDBRANCH   1  15
BRANCH   8  19
ATOM     19  C   UNL     1      -4.759   0.773   1.565  0.00  0.00    +0.123 A 
ATOM     20  N   UNL     1      -4.462   0.403   2.794  0.00  0.00    -0.144 NA
ATOM     21  N   UNL     1      -4.630   1.170   3.785  0.00  0.00    -0.136 NA
ATOM     22  C   UNL     1      -5.123   2.387   3.575  0.00  0.00    +0.187 A 
ATOM     23  S   UNL     1      -5.324   2.344   1.799  0.00  0.00    -0.044 S 
BRANCH  22  24
ATOM     24  C   UNL     1      -5.415   3.467   4.533  0.00  0.00    +0.275 C 
ATOM     25  O   UNL     1      -5.870   4.523   4.138  0.00  0.00    -0.268 OA
ATOM     26  N   UNL     1      -5.178   3.284   5.847  0.00  0.00    -0.280 N 
ATOM     27  H   UNL     1      -4.749   2.470   6.153  0.00  0.00    +0.155 HD
BRANCH  26  28
ATOM     28  C   UNL     1      -5.552   4.268   6.769  0.00  0.00    +0.037 A 
ATOM     29  C   UNL     1      -4.784   4.483   7.906  0.00  0.00    +0.026 A 
ATOM     30  C   UNL     1      -5.153   5.454   8.815  0.00  0.00    +0.043 A 
ATOM     31  C   UNL     1      -6.289   6.214   8.595  0.00  0.00    +0.159 A 
ATOM     32  C   UNL     1      -7.059   6.002   7.461  0.00  0.00    +0.160 A 
ATOM     33  C   UNL     1      -6.688   5.034   6.545  0.00  0.00    +0.064 A 
ATOM     34  F   UNL     1      -8.167   6.744   7.248  0.00  0.00    -0.202 F 
ATOM     35  F   UNL     1      -6.649   7.163   9.487  0.00  0.00    -0.202 F 
ENDBRANCH  26  28
ENDBRANCH  22  24
ENDBRANCH   8  19
TORSDOF 4
