REMARK  Name = ZINC39561596
REMARK  8 active torsions:
REMARK  status: ('A' for Active; 'I' for Inactive)
REMARK    1  A    between atoms: C_1  and  C_2
REMARK    2  A    between atoms: C_2  and  C_3
REMARK    3  A    between atoms: C_2  and  C_4
REMARK    4  A    between atoms: C_4  and  N_5
REMARK    5  A    between atoms: C_9  and  C_11
REMARK    6  A    between atoms: C_11  and  O_12
REMARK    7  A    between atoms: O_12  and  C_13
REMARK    8  A    between atoms: C_15  and  C_22
REMARK                            x       y       z     vdW  Elec       q    Type
REMARK                         _______ _______ _______ _____ _____    ______ ____
ROOT
ATOM      1  C   UNL     1      -0.414  -0.317   9.582  0.00  0.00    +0.227 A 
ATOM      2  C   UNL     1       0.214  -0.749  10.779  0.00  0.00    +0.077 A 
ATOM      3  C   UNL     1       1.461  -1.484  10.963  0.00  0.00    +0.003 A 
ATOM      4  C   UNL     1       1.860  -1.786  12.220  0.00  0.00    +0.056 A 
ATOM      5  S   UNL     1       0.574  -1.094  13.242  0.00  0.00    -0.076 S 
ATOM      6  C   UNL     1      -0.463  -0.421  11.972  0.00  0.00    +0.116 A 
ATOM      7  N   UNL     1      -1.602   0.243  11.954  0.00  0.00    -0.228 NA
ATOM      8  C   UNL     1      -2.138   0.618  10.809  0.00  0.00    +0.226 A 
ATOM      9  N   UNL     1      -1.554   0.348   9.655  0.00  0.00    -0.201 NA
ENDROOT
BRANCH   3  10
ATOM     10  C   UNL     1       2.275  -1.894   9.794  0.00  0.00    -0.016 A 
ATOM     11  C   UNL     1       1.677  -2.553   8.721  0.00  0.00    +0.010 A 
ATOM     12  C   UNL     1       2.439  -2.932   7.635  0.00  0.00    +0.020 A 
ATOM     13  C   UNL     1       3.796  -2.659   7.610  0.00  0.00    +0.041 A 
ATOM     14  C   UNL     1       4.396  -2.006   8.673  0.00  0.00    +0.020 A 
ATOM     15  C   UNL     1       3.642  -1.617   9.761  0.00  0.00    +0.010 A 
ATOM     16 CL   UNL     1       4.750  -3.139   6.240  0.00  0.00    -0.084 Cl
ENDBRANCH   3  10
BRANCH   1  17
ATOM     17  O   UNL     1       0.151  -0.579   8.379  0.00  0.00    -0.466 OA
BRANCH  17  18
ATOM     18  C   UNL     1      -0.540  -0.105   7.222  0.00  0.00    +0.326 C 
BRANCH  18  23
ATOM     19  N   UNL     1      -0.008  -0.140   2.444  0.00  0.00    -0.299 N 
ATOM     20  C   UNL     1       0.457  -0.484   3.661  0.00  0.00    +0.306 C 
ATOM     21  O   UNL     1       1.498  -1.102   3.761  0.00  0.00    -0.252 OA
ATOM     22  N   UNL     1      -0.234  -0.143   4.767  0.00  0.00    -0.237 N 
ATOM     23  C   UNL     1       0.231  -0.487   5.985  0.00  0.00    +0.258 C 
ATOM     24  O   UNL     1       1.270  -1.103   6.085  0.00  0.00    -0.272 OA
ATOM     25  H   UNL     1      -0.840   0.353   2.364  0.00  0.00    +0.150 HD
ATOM     26  H   UNL     1      -1.065   0.350   4.687  0.00  0.00    +0.159 HD
BRANCH  19  27
ATOM     27  C   UNL     1       0.742  -0.511   1.242  0.00  0.00    +0.108 C 
BRANCH  27  29
ATOM     28  C   UNL     1      -0.019   1.526   0.010  0.00  0.00    +0.009 C 
ATOM     29  C   UNL     1       0.002  -0.004   0.002  0.00  0.00    -0.000 C 
ATOM     30  C   UNL     1       0.718  -0.497  -1.257  0.00  0.00    +0.009 C 
ENDBRANCH  27  29
ENDBRANCH  19  27
ENDBRANCH  18  23
ENDBRANCH  17  18
ENDBRANCH   1  17
TORSDOF 6
