REMARK  Name = ZINC28242148
REMARK  5 active torsions:
REMARK  status: ('A' for Active; 'I' for Inactive)
REMARK    1  A    between atoms: C_1  and  C_2
REMARK    2  A    between atoms: C_3  and  C_20
REMARK    3  A    between atoms: C_5  and  N_9
REMARK    4  A    between atoms: C_6  and  C_7
REMARK    5  A    between atoms: C_10  and  C_12
REMARK                            x       y       z     vdW  Elec       q    Type
REMARK                         _______ _______ _______ _____ _____    ______ ____
ROOT
ATOM      1  N   UNL     1      -0.016   1.344   0.009  0.00  0.00    -0.275 N 
ATOM      2  C   UNL     1       0.002  -0.004   0.002  0.00  0.00    +0.250 C 
ATOM      3  O   UNL     1      -1.042  -0.626   0.009  0.00  0.00    -0.270 OA
ATOM      4  H   UNL     1       0.929   1.907   0.008  0.00  0.00    +0.156 HD
ENDROOT
BRANCH   2   5
ATOM      5  C   UNL     1       1.291  -0.725  -0.014  0.00  0.00    +0.054 A 
ATOM      6  C   UNL     1       2.493  -0.014  -0.022  0.00  0.00    +0.052 A 
ATOM      7  C   UNL     1       3.695  -0.695  -0.037  0.00  0.00    +0.124 A 
ATOM      8  C   UNL     1       3.709  -2.081  -0.045  0.00  0.00    +0.039 A 
ATOM      9  C   UNL     1       2.522  -2.790  -0.037  0.00  0.00    +0.019 A 
ATOM     10  C   UNL     1       1.314  -2.122  -0.016  0.00  0.00    +0.030 A 
ATOM     11 BR   UNL     1      -0.307  -3.095   0.002  0.00  0.00    -0.050 Br
ATOM     12  F   UNL     1       4.858  -0.008  -0.044  0.00  0.00    -0.205 F 
ENDBRANCH   2   5
BRANCH   1  17
ATOM     13  C   UNL     1      -3.184   5.291   0.046  0.00  0.00    +0.046 C 
ATOM     14  C   UNL     1      -2.824   3.828   0.036  0.00  0.00    -0.021 A 
ATOM     15  C   UNL     1      -3.771   2.872   0.035  0.00  0.00    -0.007 A 
ATOM     16  S   UNL     1      -2.828   1.361   0.015  0.00  0.00    -0.077 S 
ATOM     17  C   UNL     1      -1.226   2.021   0.019  0.00  0.00    +0.090 A 
ATOM     18  C   UNL     1      -1.448   3.392   0.027  0.00  0.00    +0.083 A 
ATOM     19  C   UNL     1      -5.269   3.039   0.042  0.00  0.00    +0.052 C 
BRANCH  18  20
ATOM     20  C   UNL     1      -0.364   4.328   0.028  0.00  0.00    +0.102 C 
ATOM     21  N   UNL     1       0.496   5.070   0.029  0.00  0.00    -0.191 NA
ENDBRANCH  18  20
ENDBRANCH   1  17
TORSDOF 3
