REMARK  Name = ZINC03595320
REMARK  6 active torsions:
REMARK  status: ('A' for Active; 'I' for Inactive)
REMARK    1  A    between atoms: C_1  and  C_2
REMARK    2  A    between atoms: C_2  and  C_3
REMARK    3  A    between atoms: C_3  and  C_27
REMARK    4  A    between atoms: N_6  and  C_10
REMARK    5  A    between atoms: C_10  and  C_11
REMARK    6  A    between atoms: N_16  and  C_17
REMARK                            x       y       z     vdW  Elec       q    Type
REMARK                         _______ _______ _______ _____ _____    ______ ____
ROOT
ATOM      1  C   UNL     1       0.876   1.572  -4.340  0.00  0.00    +0.214 C 
ENDROOT
BRANCH   1   5
ATOM      2  C   UNL     1       0.722  -0.500  -1.261  0.00  0.00    +0.138 C 
ATOM      3  C   UNL     1       0.089   0.090  -2.506  0.00  0.00    +0.251 C 
ATOM      4  O   UNL     1      -1.050  -0.065  -2.892  0.00  0.00    -0.272 OA
ATOM      5  N   UNL     1       1.056   0.821  -3.095  0.00  0.00    -0.215 N 
ATOM      6  C   UNL     1       2.199   0.776  -2.402  0.00  0.00    +0.310 C 
ATOM      7  O   UNL     1       3.214   1.357  -2.735  0.00  0.00    -0.252 OA
ATOM      8  N   UNL     1       2.101   0.017  -1.296  0.00  0.00    -0.281 N 
ATOM      9  H   UNL     1       2.802  -0.157  -0.648  0.00  0.00    +0.152 HD
BRANCH   2  10
ATOM     10  C   UNL     1       0.718  -2.006  -1.323  0.00  0.00    -0.015 A 
ATOM     11  C   UNL     1      -0.329  -2.717  -0.766  0.00  0.00    +0.007 A 
ATOM     12  C   UNL     1      -0.333  -4.098  -0.823  0.00  0.00    +0.020 A 
ATOM     13  C   UNL     1       0.711  -4.768  -1.435  0.00  0.00    +0.041 A 
ATOM     14  C   UNL     1       1.758  -4.056  -1.992  0.00  0.00    +0.020 A 
ATOM     15  C   UNL     1       1.758  -2.675  -1.940  0.00  0.00    +0.007 A 
ATOM     16 CL   UNL     1       0.706  -6.503  -1.506  0.00  0.00    -0.084 Cl
ENDBRANCH   2  10
BRANCH   2  18
ATOM     17  C   UNL     1      -0.032   1.518   0.005  0.00  0.00    +0.007 C 
ATOM     18  C   UNL     1      -0.004  -0.012  -0.006  0.00  0.00    +0.037 C 
ENDBRANCH   2  18
ENDBRANCH   1   5
BRANCH   1  19
ATOM     19  C   UNL     1       0.407   2.968  -4.021  0.00  0.00    +0.238 C 
ATOM     20  O   UNL     1       0.239   3.303  -2.868  0.00  0.00    -0.274 OA
ATOM     21  N   UNL     1       0.174   3.845  -5.018  0.00  0.00    -0.239 N 
ATOM     22  C   UNL     1      -0.245   5.094  -4.733  0.00  0.00    +0.310 C 
ATOM     23  O   UNL     1      -0.414   5.429  -3.577  0.00  0.00    -0.252 OA
ATOM     24  N   UNL     1      -0.478   5.970  -5.730  0.00  0.00    -0.269 N 
ATOM     25  H   UNL     1       0.309   3.577  -5.941  0.00  0.00    +0.159 HD
ATOM     26  H   UNL     1      -0.280   5.725  -6.647  0.00  0.00    +0.156 HD
BRANCH  24  27
ATOM     27  C   UNL     1      -1.006   7.236  -5.441  0.00  0.00    +0.038 A 
ATOM     28  C   UNL     1      -1.895   7.835  -6.324  0.00  0.00    +0.027 A 
ATOM     29  C   UNL     1      -2.415   9.083  -6.040  0.00  0.00    +0.051 A 
ATOM     30  C   UNL     1      -2.053   9.740  -4.873  0.00  0.00    +0.162 A 
ATOM     31  C   UNL     1      -1.165   9.141  -3.987  0.00  0.00    +0.164 A 
ATOM     32  C   UNL     1      -0.646   7.887  -4.270  0.00  0.00    +0.072 A 
ATOM     33  O   UNL     1      -0.804   9.767  -2.833  0.00  0.00    -0.485 OA
ATOM     34  C   UNL     1      -1.056  11.175  -2.759  0.00  0.00    +0.270 C 
ATOM     35  C   UNL     1      -2.483  11.435  -3.261  0.00  0.00    +0.270 C 
ATOM     36  O   UNL     1      -2.573  10.972  -4.612  0.00  0.00    -0.485 OA
ENDBRANCH  24  27
ENDBRANCH   1  19
TORSDOF 5
