REMARK  Name = ZINC14833523
REMARK  7 active torsions:
REMARK  status: ('A' for Active; 'I' for Inactive)
REMARK    1  A    between atoms: C_1  and  C_2
REMARK    2  A    between atoms: C_2  and  C_4
REMARK    3  A    between atoms: C_2  and  N_10
REMARK    4  A    between atoms: C_11  and  C_13
REMARK    5  A    between atoms: C_18  and  N_19
REMARK    6  A    between atoms: C_20  and  C_22
REMARK    7  A    between atoms: C_23  and  C_24
REMARK                            x       y       z     vdW  Elec       q    Type
REMARK                         _______ _______ _______ _____ _____    ______ ____
ROOT
ATOM      1  C   UNL     1      -2.326  -4.256   0.182  0.00  0.00    +0.058 A 
ATOM      2  C   UNL     1      -3.501  -5.004   0.292  0.00  0.00    +0.015 A 
ATOM      3  C   UNL     1      -4.723  -4.367   0.300  0.00  0.00    +0.001 A 
ATOM      4  C   UNL     1      -4.793  -2.987   0.205  0.00  0.00    +0.002 A 
ATOM      5  C   UNL     1      -3.641  -2.234   0.102  0.00  0.00    +0.024 A 
ATOM      6  C   UNL     1      -2.400  -2.858   0.092  0.00  0.00    +0.046 A 
ENDROOT
BRANCH   1   8
ATOM      7  N   UNL     1      -0.951  -6.278   0.145  0.00  0.00    -0.305 N 
ATOM      8  C   UNL     1      -1.015  -4.932   0.167  0.00  0.00    +0.246 C 
ATOM      9  O   UNL     1       0.008  -4.275   0.174  0.00  0.00    -0.270 OA
ATOM     10  H   UNL     1      -1.767  -6.803   0.139  0.00  0.00    +0.150 HD
BRANCH   7  12
ATOM     11  C   UNL     1       0.857  -7.048  -1.311  0.00  0.00    +0.033 C 
ATOM     12  C   UNL     1       0.351  -6.949   0.130  0.00  0.00    +0.100 C 
BRANCH  12  13
ATOM     13  C   UNL     1       0.209  -8.334   0.708  0.00  0.00    -0.027 A 
ATOM     14  C   UNL     1      -0.905  -9.096   0.411  0.00  0.00    +0.005 A 
ATOM     15  C   UNL     1      -1.032 -10.368   0.938  0.00  0.00    +0.000 A 
ATOM     16  C   UNL     1      -0.051 -10.873   1.770  0.00  0.00    +0.000 A 
ATOM     17  C   UNL     1       1.061 -10.109   2.071  0.00  0.00    +0.000 A 
ATOM     18  C   UNL     1       1.191  -8.839   1.541  0.00  0.00    +0.005 A 
ENDBRANCH  12  13
ENDBRANCH   7  12
ENDBRANCH   1   8
BRANCH   6  19
ATOM     19  N   UNL     1      -1.237  -2.101  -0.012  0.00  0.00    -0.281 N 
ATOM     20  C   UNL     1      -1.167  -0.890   0.575  0.00  0.00    +0.241 C 
ATOM     21  O   UNL     1      -2.146  -0.423   1.126  0.00  0.00    -0.270 OA
ATOM     22  H   UNL     1      -0.477  -2.446  -0.507  0.00  0.00    +0.155 HD
BRANCH  20  23
ATOM     23  C   UNL     1       0.087  -0.137   0.550  0.00  0.00    +0.068 C 
ATOM     24  C   UNL     1       0.158   1.075   1.138  0.00  0.00    +0.013 C 
BRANCH  24  25
ATOM     25  C   UNL     1       1.419   1.833   1.113  0.00  0.00    -0.025 A 
ATOM     26  C   UNL     1       2.549   1.296   0.485  0.00  0.00    +0.009 A 
ATOM     27  C   UNL     1       3.725   2.014   0.460  0.00  0.00    +0.020 A 
ATOM     28  C   UNL     1       3.794   3.259   1.065  0.00  0.00    +0.041 A 
ATOM     29  C   UNL     1       2.681   3.794   1.693  0.00  0.00    +0.020 A 
ATOM     30  C   UNL     1       1.496   3.090   1.721  0.00  0.00    +0.009 A 
ATOM     31 CL   UNL     1       5.282   4.152   1.036  0.00  0.00    -0.084 Cl
ENDBRANCH  24  25
ENDBRANCH  20  23
ENDBRANCH   6  19
TORSDOF 6
