REMARK  Name = ZINC00880980
REMARK  7 active torsions:
REMARK  status: ('A' for Active; 'I' for Inactive)
REMARK    1  A    between atoms: C_1  and  C_2
REMARK    2  A    between atoms: C_4  and  C_8
REMARK    3  A    between atoms: N_10  and  N_11
REMARK    4  A    between atoms: C_12  and  C_13
REMARK    5  A    between atoms: C_18  and  O_19
REMARK    6  A    between atoms: O_19  and  C_20
REMARK    7  A    between atoms: C_20  and  C_22
REMARK                            x       y       z     vdW  Elec       q    Type
REMARK                         _______ _______ _______ _____ _____    ______ ____
ROOT
ATOM      1  C   UNL     1      -1.008  -2.757   1.209  0.00  0.00    +0.039 A 
ATOM      2  C   UNL     1      -0.916  -4.151   1.189  0.00  0.00    +0.028 A 
ATOM      3  C   UNL     1      -0.884  -4.821  -0.017  0.00  0.00    +0.020 A 
ATOM      4  C   UNL     1      -0.941  -4.117  -1.209  0.00  0.00    +0.034 A 
ATOM      5  C   UNL     1      -1.037  -2.737  -1.202  0.00  0.00    +0.062 A 
ATOM      6  C   UNL     1      -1.066  -2.049   0.001  0.00  0.00    +0.155 A 
ATOM      7 BR   UNL     1      -1.123  -1.788  -2.835  0.00  0.00    -0.046 Br
ATOM      8 BR   UNL     1      -0.759  -6.708  -0.044  0.00  0.00    -0.050 Br
ENDROOT
BRANCH   1  10
ATOM      9  N   UNL     1      -1.127  -0.741   2.508  0.00  0.00    -0.187 NA
ATOM     10  C   UNL     1      -1.043  -2.036   2.493  0.00  0.00    +0.142 C 
BRANCH   9  13
ATOM     11  C   UNL     1      -1.248   1.290   3.745  0.00  0.00    +0.281 C 
ATOM     12  O   UNL     1      -1.299   1.909   2.698  0.00  0.00    -0.267 OA
ATOM     13  N   UNL     1      -1.161  -0.055   3.729  0.00  0.00    -0.202 N 
ATOM     14  H   UNL     1      -1.120  -0.548   4.564  0.00  0.00    +0.178 HD
BRANCH  11  18
ATOM     15  C   UNL     1      -1.451   4.895   7.306  0.00  0.00    +0.067 C 
ATOM     16  C   UNL     1      -1.371   3.570   6.593  0.00  0.00    +0.060 A 
ATOM     17  C   UNL     1      -1.371   3.380   5.209  0.00  0.00    +0.057 A 
ATOM     18  C   UNL     1      -1.283   2.010   5.027  0.00  0.00    +0.122 A 
ATOM     19  N   UNL     1      -1.241   1.461   6.277  0.00  0.00    -0.272 N 
ATOM     20  H   UNL     1      -1.183   0.483   6.475  0.00  0.00    +0.189 HD
ATOM     21  N   UNL     1      -1.288   2.394   7.160  0.00  0.00    -0.178 NA
ENDBRANCH  11  18
ENDBRANCH   9  13
ENDBRANCH   1  10
BRANCH   6  22
ATOM     22  O   UNL     1      -1.155  -0.694   0.009  0.00  0.00    -0.421 OA
BRANCH  22  23
ATOM     23  C   UNL     1       0.002  -0.004   0.002  0.00  0.00    +0.345 C 
ATOM     24  O   UNL     1       1.062  -0.597  -0.011  0.00  0.00    -0.245 OA
BRANCH  23  25
ATOM     25  C   UNL     1      -0.018   1.473   0.010  0.00  0.00    +0.062 A 
ATOM     26  C   UNL     1       1.180   2.191   0.003  0.00  0.00    +0.015 A 
ATOM     27  C   UNL     1       1.156   3.570   0.010  0.00  0.00    +0.004 A 
ATOM     28  C   UNL     1      -0.052   4.244   0.025  0.00  0.00    +0.038 A 
ATOM     29  C   UNL     1      -1.246   3.539   0.033  0.00  0.00    +0.124 A 
ATOM     30  C   UNL     1      -1.234   2.157   0.020  0.00  0.00    +0.053 A 
ATOM     31  F   UNL     1      -2.421   4.204   0.047  0.00  0.00    -0.205 F 
ENDBRANCH  23  25
ENDBRANCH  22  23
ENDBRANCH   6  22
TORSDOF 6
