REMARK  Name = ZINC36344927
REMARK  10 active torsions:
REMARK  status: ('A' for Active; 'I' for Inactive)
REMARK    1  A    between atoms: C_1  and  C_2
REMARK    2  A    between atoms: C_7  and  C_8
REMARK    3  A    between atoms: C_11  and  C_30
REMARK    4  A    between atoms: C_14  and  C_16
REMARK    5  A    between atoms: C_16  and  N_17
REMARK    6  A    between atoms: N_20  and  C_23
REMARK    7  A    between atoms: C_33  and  O_38
REMARK    8  A    between atoms: C_35  and  O_36
REMARK    9  A    between atoms: O_36  and  C_37
REMARK   10  A    between atoms: O_38  and  C_39
REMARK                            x       y       z     vdW  Elec       q    Type
REMARK                         _______ _______ _______ _____ _____    ______ ____
ROOT
ATOM      1  C   UNL     1       0.025   0.045   2.504  0.00  0.00    +0.137 C 
ATOM      2  C   UNL     1       1.452   0.504   2.864  0.00  0.00    +0.087 C 
ATOM      3  C   UNL     1       1.744  -0.202   4.169  0.00  0.00    +0.072 C 
ATOM      4  N   UNL     1       0.727  -0.917   4.508  0.00  0.00    -0.181 NA
ATOM      5  N   UNL     1      -0.342  -0.851   3.612  0.00  0.00    -0.187 N 
ATOM      6  C   UNL     1      -1.517  -1.500   3.739  0.00  0.00    +0.219 C 
ATOM      7  O   UNL     1      -2.377  -1.367   2.894  0.00  0.00    -0.276 OA
ENDROOT
BRANCH   1  14
ATOM      8  C   UNL     1      -0.018   1.503   0.010  0.00  0.00    +0.044 C 
ATOM      9  C   UNL     1       0.002  -0.004   0.002  0.00  0.00    -0.045 A 
ATOM     10  C   UNL     1       0.006  -0.689  -1.199  0.00  0.00    +0.004 A 
ATOM     11  C   UNL     1       0.025  -2.071  -1.207  0.00  0.00    +0.000 A 
ATOM     12  C   UNL     1       0.040  -2.768  -0.013  0.00  0.00    +0.000 A 
ATOM     13  C   UNL     1       0.037  -2.084   1.188  0.00  0.00    +0.006 A 
ATOM     14  C   UNL     1       0.023  -0.702   1.195  0.00  0.00    -0.022 A 
ENDBRANCH   1  14
BRANCH   3  15
ATOM     15  C   UNL     1       2.998  -0.090   4.934  0.00  0.00    +0.040 A 
ATOM     16  C   UNL     1       4.034   0.723   4.467  0.00  0.00    +0.017 A 
ATOM     17  C   UNL     1       5.205   0.824   5.186  0.00  0.00    +0.046 A 
ATOM     18  C   UNL     1       5.361   0.119   6.373  0.00  0.00    +0.124 A 
ATOM     19  C   UNL     1       4.338  -0.691   6.845  0.00  0.00    +0.091 A 
ATOM     20  C   UNL     1       3.154  -0.796   6.136  0.00  0.00    +0.132 A 
BRANCH  20  21
ATOM     21  O   UNL     1       2.150  -1.584   6.599  0.00  0.00    -0.494 OA
ATOM     22  C   UNL     1       2.381  -2.272   7.830  0.00  0.00    +0.277 C 
ENDBRANCH  20  21
BRANCH  18  23
ATOM     23  O   UNL     1       6.519   0.224   7.076  0.00  0.00    -0.495 OA
ATOM     24  C   UNL     1       7.531   1.075   6.534  0.00  0.00    +0.277 C 
ENDBRANCH  18  23
ENDBRANCH   3  15
BRANCH   6  25
ATOM     25  C   UNL     1      -1.761  -2.391   4.929  0.00  0.00    +0.021 C 
BRANCH  25  26
ATOM     26  N   UNL     1      -3.104  -2.978   4.835  0.00  0.00    +0.387 N 
ATOM     27  C   UNL     1      -4.110  -1.911   4.922  0.00  0.00    -0.059 C 
ATOM     28  C   UNL     1      -5.505  -2.507   4.708  0.00  0.00    +0.086 C 
ATOM     29  N   UNL     1      -5.697  -3.603   5.672  0.00  0.00    -0.331 N 
ATOM     30  C   UNL     1      -4.651  -4.633   5.767  0.00  0.00    +0.086 C 
ATOM     31  C   UNL     1      -3.296  -3.937   5.930  0.00  0.00    -0.059 C 
ATOM     32  H   UNL     1      -3.200  -3.455   3.951  0.00  0.00    -0.081 HD
BRANCH  29  33
ATOM     33  C   UNL     1      -6.840  -3.662   6.475  0.00  0.00    +0.065 A 
ATOM     34  C   UNL     1      -7.967  -4.342   6.032  0.00  0.00    +0.026 A 
ATOM     35  C   UNL     1      -9.095  -4.399   6.827  0.00  0.00    +0.002 A 
ATOM     36  C   UNL     1      -9.104  -3.780   8.064  0.00  0.00    +0.003 A 
ATOM     37  C   UNL     1      -7.984  -3.102   8.509  0.00  0.00    +0.040 A 
ATOM     38  C   UNL     1      -6.849  -3.045   7.721  0.00  0.00    +0.144 A 
ATOM     39  F   UNL     1      -5.753  -2.387   8.159  0.00  0.00    -0.204 F 
ENDBRANCH  29  33
ENDBRANCH  25  26
ENDBRANCH   6  25
TORSDOF 7
