REMARK  Name = ZINC24297763
REMARK  10 active torsions:
REMARK  status: ('A' for Active; 'I' for Inactive)
REMARK    1  A    between atoms: C_1  and  C_2
REMARK    2  A    between atoms: C_5  and  S_25
REMARK    3  A    between atoms: C_7  and  C_8
REMARK    4  A    between atoms: N_10  and  N_11
REMARK    5  A    between atoms: C_12  and  C_14
REMARK    6  A    between atoms: C_14  and  C_16
REMARK    7  A    between atoms: C_14  and  O_17
REMARK    8  A    between atoms: O_17  and  C_18
REMARK    9  A    between atoms: S_25  and  N_28
REMARK   10  A    between atoms: N_28  and  C_29
REMARK                            x       y       z     vdW  Elec       q    Type
REMARK                         _______ _______ _______ _____ _____    ______ ____
ROOT
ATOM      1  C   UNL     1       5.653   3.493  -0.930  0.00  0.00    +0.044 C 
ATOM      2  C   UNL     1       4.222   3.054  -0.754  0.00  0.00    -0.038 A 
ATOM      3  C   UNL     1       3.799   2.545   0.456  0.00  0.00    +0.006 A 
ATOM      4  C   UNL     1       2.484   2.148   0.621  0.00  0.00    +0.029 A 
ATOM      5  C   UNL     1       1.587   2.248  -0.428  0.00  0.00    +0.109 A 
ATOM      6  C   UNL     1       1.998   2.755  -1.644  0.00  0.00    +0.042 A 
ATOM      7  C   UNL     1       3.322   3.163  -1.815  0.00  0.00    +0.043 A 
ENDROOT
BRANCH   7   8
ATOM      8  C   UNL     1       3.768   3.708  -3.115  0.00  0.00    +0.260 C 
ATOM      9  O   UNL     1       4.882   4.182  -3.224  0.00  0.00    -0.269 OA
ATOM     10  N   UNL     1       2.940   3.680  -4.178  0.00  0.00    -0.230 N 
ATOM     11  H   UNL     1       1.932   3.251  -4.078  0.00  0.00    +0.173 HD
BRANCH  10  12
ATOM     12  N   UNL     1       3.364   4.197  -5.409  0.00  0.00    -0.231 N 
ATOM     13  C   UNL     1       2.536   4.168  -6.472  0.00  0.00    +0.270 C 
ATOM     14  O   UNL     1       1.424   3.695  -6.363  0.00  0.00    -0.270 OA
ATOM     15  H   UNL     1       4.372   4.625  -5.509  0.00  0.00    +0.173 HD
BRANCH  13  16
ATOM     16  C   UNL     1       2.991   4.724  -7.797  0.00  0.00    +0.257 C 
ATOM     17  C   UNL     1       4.151   3.882  -8.332  0.00  0.00    +0.062 C 
BRANCH  16  18
ATOM     18  O   UNL     1       1.907   4.687  -8.727  0.00  0.00    -0.480 OA
BRANCH  18  19
ATOM     19  C   UNL     1       1.944   5.577  -9.754  0.00  0.00    +0.122 A 
ATOM     20  C   UNL     1       3.048   6.400  -9.920  0.00  0.00    +0.048 A 
ATOM     21  C   UNL     1       3.086   7.300 -10.967  0.00  0.00    +0.042 A 
ATOM     22  C   UNL     1       2.019   7.388 -11.845  0.00  0.00    +0.124 A 
ATOM     23  C   UNL     1       0.913   6.572 -11.677  0.00  0.00    +0.042 A 
ATOM     24  C   UNL     1       0.875   5.667 -10.633  0.00  0.00    +0.048 A 
ATOM     25  F   UNL     1       2.056   8.272 -12.866  0.00  0.00    -0.205 F 
ENDBRANCH  18  19
ENDBRANCH  16  18
ENDBRANCH  13  16
ENDBRANCH  10  12
ENDBRANCH   7   8
BRANCH   5  26
ATOM     26  S   UNL     1      -0.083   1.733  -0.210  0.00  0.00    +0.072 S 
ATOM     27  O   UNL     1      -0.839   2.358  -1.238  0.00  0.00    -0.150 OA
ATOM     28  O   UNL     1      -0.384   1.905   1.168  0.00  0.00    -0.150 OA
BRANCH  26  29
ATOM     29  N   UNL     1      -0.137   0.105  -0.507  0.00  0.00    -0.216 N 
ATOM     30  H   UNL     1      -0.704  -0.279  -1.368  0.00  0.00    +0.174 HD
BRANCH  29  31
ATOM     31  C   UNL     1       0.539  -0.782   0.337  0.00  0.00    +0.048 A 
ATOM     32  C   UNL     1       1.708  -1.396  -0.093  0.00  0.00    +0.027 A 
ATOM     33  C   UNL     1       2.377  -2.269   0.744  0.00  0.00    +0.040 A 
ATOM     34  C   UNL     1       1.876  -2.539   2.006  0.00  0.00    +0.124 A 
ATOM     35  C   UNL     1       0.708  -1.932   2.434  0.00  0.00    +0.040 A 
ATOM     36  C   UNL     1       0.039  -1.055   1.603  0.00  0.00    +0.027 A 
ATOM     37  F   UNL     1       2.529  -3.396   2.821  0.00  0.00    -0.205 F 
ENDBRANCH  29  31
ENDBRANCH  26  29
ENDBRANCH   5  26
TORSDOF 8
