REMARK  Name = ZINC36072118
REMARK  11 active torsions:
REMARK  status: ('A' for Active; 'I' for Inactive)
REMARK    1  A    between atoms: C_1  and  C_2
REMARK    2  A    between atoms: C_3  and  C_31
REMARK    3  A    between atoms: C_4  and  C_24
REMARK    4  A    between atoms: C_7  and  C_12
REMARK    5  A    between atoms: C_13  and  N_15
REMARK    6  A    between atoms: N_15  and  C_16
REMARK    7  A    between atoms: C_16  and  C_17
REMARK    8  A    between atoms: N_33  and  C_34
REMARK    9  A    between atoms: C_34  and  C_35
REMARK   10  A    between atoms: C_34  and  C_36
REMARK   11  A    between atoms: C_34  and  C_37
REMARK                            x       y       z     vdW  Elec       q    Type
REMARK                         _______ _______ _______ _____ _____    ______ ____
ROOT
ATOM      1  C   UNL     1      -0.201   1.470   0.169  0.00  0.00    +0.066 C 
ATOM      2  C   UNL     1      -0.132  -0.032   0.071  0.00  0.00    +0.051 C 
ATOM      3  C   UNL     1      -1.298  -0.768   0.015  0.00  0.00    +0.060 C 
ATOM      4  C   UNL     1      -1.177  -2.273  -0.084  0.00  0.00    +0.148 C 
ATOM      5  N   UNL     1       0.197  -2.841  -0.113  0.00  0.00    -0.267 N 
ATOM      6  C   UNL     1       0.543  -4.175  -0.199  0.00  0.00    +0.048 C 
ATOM      7  C   UNL     1       1.859  -4.482  -0.211  0.00  0.00    +0.072 C 
ATOM      8  S   UNL     1       2.614  -2.872  -0.100  0.00  0.00    -0.060 S 
ATOM      9  C   UNL     1       1.220  -1.938  -0.046  0.00  0.00    +0.166 C 
ATOM     10  N   UNL     1       1.046  -0.635   0.033  0.00  0.00    -0.230 NA
ENDROOT
BRANCH   4  11
ATOM     11  C   UNL     1      -1.887  -2.714  -1.338  0.00  0.00    -0.022 A 
ATOM     12  C   UNL     1      -3.021  -3.501  -1.250  0.00  0.00    +0.007 A 
ATOM     13  C   UNL     1      -3.672  -3.905  -2.400  0.00  0.00    +0.020 A 
ATOM     14  C   UNL     1      -3.190  -3.523  -3.639  0.00  0.00    +0.041 A 
ATOM     15  C   UNL     1      -2.056  -2.736  -3.726  0.00  0.00    +0.020 A 
ATOM     16  C   UNL     1      -1.409  -2.327  -2.576  0.00  0.00    +0.007 A 
ATOM     17 CL   UNL     1      -4.008  -4.032  -5.083  0.00  0.00    -0.084 Cl
ENDBRANCH   4  11
BRANCH   3  18
ATOM     18  C   UNL     1      -2.553  -0.143   0.048  0.00  0.00    +0.244 C 
ATOM     19  O   UNL     1      -2.627   1.068   0.173  0.00  0.00    -0.270 OA
ATOM     20  N   UNL     1      -3.676  -0.879  -0.057  0.00  0.00    -0.307 N 
ATOM     21  H   UNL     1      -3.622  -1.848  -0.067  0.00  0.00    +0.150 HD
BRANCH  20  22
ATOM     22  C   UNL     1      -4.980  -0.218  -0.157  0.00  0.00    +0.026 C 
ATOM     23  C   UNL     1      -5.005   0.675  -1.399  0.00  0.00    +0.031 C 
ATOM     24  C   UNL     1      -6.081  -1.274  -0.265  0.00  0.00    +0.031 C 
ATOM     25  C   UNL     1      -5.214   0.637   1.090  0.00  0.00    +0.031 C 
ENDBRANCH  20  22
ENDBRANCH   3  18
BRANCH   6  26
ATOM     26  C   UNL     1      -0.484  -5.225  -0.275  0.00  0.00    +0.091 C 
ATOM     27  C   UNL     1      -0.124  -6.522  -0.246  0.00  0.00    +0.239 C 
ATOM     28  O   UNL     1       1.188  -6.862  -0.256  0.00  0.00    -0.271 OA
BRANCH  27  29
ATOM     29  N   UNL     1      -1.094  -7.509  -0.206  0.00  0.00    -0.308 N 
ATOM     30  H   UNL     1      -2.032  -7.270  -0.273  0.00  0.00    +0.149 HD
BRANCH  29  31
ATOM     31  C   UNL     1      -0.705  -8.914  -0.064  0.00  0.00    +0.139 C 
BRANCH  31  32
ATOM     32  C   UNL     1      -1.928  -9.788  -0.171  0.00  0.00    -0.030 A 
ATOM     33  C   UNL     1      -2.650 -10.108   0.964  0.00  0.00    +0.008 A 
ATOM     34  C   UNL     1      -3.772 -10.909   0.868  0.00  0.00    +0.038 A 
ATOM     35  C   UNL     1      -4.173 -11.391  -0.366  0.00  0.00    +0.123 A 
ATOM     36  C   UNL     1      -3.450 -11.070  -1.503  0.00  0.00    +0.038 A 
ATOM     37  C   UNL     1      -2.331 -10.265  -1.404  0.00  0.00    +0.008 A 
ATOM     38  F   UNL     1      -5.270 -12.174  -0.462  0.00  0.00    -0.205 F 
ENDBRANCH  31  32
ENDBRANCH  29  31
ENDBRANCH  27  29
ENDBRANCH   6  26
TORSDOF 7
