REMARK  Name = ZINC20491076
REMARK  6 active torsions:
REMARK  status: ('A' for Active; 'I' for Inactive)
REMARK    1  A    between atoms: C_1  and  C_2
REMARK    2  A    between atoms: C_5  and  C_8
REMARK    3  A    between atoms: C_11  and  C_32
REMARK    4  A    between atoms: C_18  and  C_21
REMARK    5  A    between atoms: C_21  and  C_22
REMARK    6  A    between atoms: N_24  and  C_25
REMARK                            x       y       z     vdW  Elec       q    Type
REMARK                         _______ _______ _______ _____ _____    ______ ____
ROOT
ATOM      1  C   UNL     1       4.797   0.552  -0.031  0.00  0.00    +0.136 C 
ATOM      2  C   UNL     1       3.807   1.733  -0.014  0.00  0.00    +0.087 C 
ATOM      3  C   UNL     1       2.448   1.069   0.007  0.00  0.00    +0.069 C 
ATOM      4  N   UNL     1       2.595  -0.211  -0.005  0.00  0.00    -0.182 NA
ATOM      5  N   UNL     1       3.923  -0.632  -0.027  0.00  0.00    -0.195 N 
ATOM      6  C   UNL     1       4.344  -1.931  -0.043  0.00  0.00    +0.170 C 
ATOM      7  N   UNL     1       5.589  -2.388  -0.065  0.00  0.00    -0.157 NA
ATOM      8  C   UNL     1       5.909  -3.653  -0.079  0.00  0.00    +0.252 C 
ATOM      9  O   UNL     1       7.064  -4.032  -0.099  0.00  0.00    -0.272 OA
ATOM     10  C   UNL     1       4.733  -4.623  -0.070  0.00  0.00    +0.150 C 
ATOM     11  S   UNL     1       3.348  -3.415  -0.033  0.00  0.00    -0.078 S 
ENDROOT
BRANCH   1  16
ATOM     12  C   UNL     1       8.013   0.689  -4.830  0.00  0.00    +0.044 C 
ATOM     13  C   UNL     1       7.175   0.652  -3.578  0.00  0.00    -0.050 A 
ATOM     14  C   UNL     1       7.721   1.041  -2.369  0.00  0.00    +0.004 A 
ATOM     15  C   UNL     1       6.951   1.008  -1.221  0.00  0.00    +0.006 A 
ATOM     16  C   UNL     1       5.636   0.587  -1.282  0.00  0.00    -0.025 A 
ATOM     17  C   UNL     1       5.091   0.194  -2.491  0.00  0.00    +0.006 A 
ATOM     18  C   UNL     1       5.859   0.231  -3.639  0.00  0.00    +0.004 A 
ENDBRANCH   1  16
BRANCH   3  19
ATOM     19  C   UNL     1       1.155   1.777   0.031  0.00  0.00    -0.002 A 
ATOM     20  C   UNL     1      -0.041   1.055   0.044  0.00  0.00    +0.010 A 
ATOM     21  C   UNL     1      -1.247   1.724   0.061  0.00  0.00    +0.001 A 
ATOM     22  C   UNL     1      -1.274   3.107   0.077  0.00  0.00    +0.000 A 
ATOM     23  C   UNL     1      -0.093   3.829   0.065  0.00  0.00    +0.001 A 
ATOM     24  C   UNL     1       1.120   3.174   0.042  0.00  0.00    +0.010 A 
ENDBRANCH   3  19
BRANCH  10  25
ATOM     25  C   UNL     1       4.704  -5.477  -1.339  0.00  0.00    +0.120 C 
BRANCH  25  26
ATOM     26  C   UNL     1       3.603  -6.500  -1.230  0.00  0.00    +0.219 C 
ATOM     27  O   UNL     1       2.910  -6.542  -0.235  0.00  0.00    -0.275 OA
ATOM     28  N   UNL     1       3.388  -7.369  -2.237  0.00  0.00    -0.285 N 
ATOM     29  H   UNL     1       3.965  -7.284  -3.170  0.00  0.00    +0.155 HD
BRANCH  28  30
ATOM     30  C   UNL     1       2.430  -8.381  -2.097  0.00  0.00    +0.034 A 
ATOM     31  C   UNL     1       2.643  -9.624  -2.678  0.00  0.00    +0.026 A 
ATOM     32  C   UNL     1       1.699 -10.623  -2.534  0.00  0.00    +0.040 A 
ATOM     33  C   UNL     1       0.537 -10.382  -1.820  0.00  0.00    +0.124 A 
ATOM     34  C   UNL     1       0.322  -9.141  -1.244  0.00  0.00    +0.040 A 
ATOM     35  C   UNL     1       1.265  -8.141  -1.382  0.00  0.00    +0.026 A 
ATOM     36  F   UNL     1      -0.387 -11.358  -1.686  0.00  0.00    -0.205 F 
ENDBRANCH  28  30
ENDBRANCH  25  26
ENDBRANCH  10  25
TORSDOF 5
