REMARK  Name = ZINC59936274
REMARK  6 active torsions:
REMARK  status: ('A' for Active; 'I' for Inactive)
REMARK    1  A    between atoms: C_2  and  C_3
REMARK    2  A    between atoms: N_5  and  C_6
REMARK    3  A    between atoms: C_6  and  C_7
REMARK    4  A    between atoms: C_10  and  C_13
REMARK    5  A    between atoms: N_15  and  C_16
REMARK    6  A    between atoms: C_21  and  C_22
REMARK                            x       y       z     vdW  Elec       q    Type
REMARK                         _______ _______ _______ _____ _____    ______ ____
ROOT
ATOM      1  C   UNL     1       1.608  -8.456  -0.059  0.00  0.00    +0.248 C 
ATOM      2  O   UNL     1       1.503  -9.059   0.992  0.00  0.00    -0.270 OA
ATOM      3  N   UNL     1       1.488  -9.115  -1.228  0.00  0.00    -0.281 N 
ATOM      4  H   UNL     1       1.492  -8.623  -2.064  0.00  0.00    +0.155 HD
ENDROOT
BRANCH   1   8
ATOM      5  C   UNL     1       2.360  -4.276  -0.043  0.00  0.00    -0.030 A 
ATOM      6  C   UNL     1       2.239  -4.958   1.154  0.00  0.00    +0.006 A 
ATOM      7  C   UNL     1       1.995  -6.316   1.156  0.00  0.00    +0.013 A 
ATOM      8  C   UNL     1       1.869  -7.001  -0.053  0.00  0.00    +0.037 A 
ATOM      9  C   UNL     1       1.992  -6.307  -1.258  0.00  0.00    +0.013 A 
ATOM     10  C   UNL     1       2.231  -4.948  -1.246  0.00  0.00    +0.006 A 
BRANCH   5  11
ATOM     11  C   UNL     1       2.626  -2.792  -0.038  0.00  0.00    +0.139 C 
BRANCH  11  14
ATOM     12  C   UNL     1       1.345  -0.720  -0.021  0.00  0.00    +0.237 C 
ATOM     13  O   UNL     1       2.394  -0.106  -0.024  0.00  0.00    -0.271 OA
ATOM     14  N   UNL     1       1.353  -2.068  -0.027  0.00  0.00    -0.308 N 
ATOM     15  H   UNL     1       0.516  -2.558  -0.025  0.00  0.00    +0.149 HD
BRANCH  12  17
ATOM     16  C   UNL     1       0.059   1.338  -0.004  0.00  0.00    +0.013 C 
ATOM     17  C   UNL     1       0.067   0.008  -0.010  0.00  0.00    +0.059 C 
ENDBRANCH  12  17
ENDBRANCH  11  14
ENDBRANCH   5  11
ENDBRANCH   1   8
BRANCH   3  18
ATOM     18  C   UNL     1       1.356 -10.503  -1.236  0.00  0.00    +0.043 A 
ATOM     19  C   UNL     1       1.848 -11.256  -0.179  0.00  0.00    +0.024 A 
ATOM     20  C   UNL     1       1.717 -12.631  -0.189  0.00  0.00    +0.002 A 
ATOM     21  C   UNL     1       1.097 -13.268  -1.251  0.00  0.00    +0.001 A 
ATOM     22  C   UNL     1       0.602 -12.535  -2.309  0.00  0.00    +0.012 A 
ATOM     23  C   UNL     1       0.722 -11.144  -2.310  0.00  0.00    +0.028 A 
BRANCH  23  24
ATOM     24  C   UNL     1       0.190 -10.353  -3.438  0.00  0.00    +0.111 A 
ATOM     25  N   UNL     1       0.219  -9.050  -3.618  0.00  0.00    -0.239 NA
ATOM     26  C   UNL     1      -0.311  -8.458  -4.706  0.00  0.00    +0.079 A 
ATOM     27  C   UNL     1      -0.347  -7.079  -5.021  0.00  0.00    +0.029 A 
ATOM     28  C   UNL     1      -0.926  -6.641  -6.171  0.00  0.00    +0.002 A 
ATOM     29  C   UNL     1      -1.501  -7.520  -7.078  0.00  0.00    +0.001 A 
ATOM     30  C   UNL     1      -1.487  -8.876  -6.809  0.00  0.00    +0.017 A 
ATOM     31  C   UNL     1      -0.905  -9.329  -5.651  0.00  0.00    +0.040 A 
ATOM     32  S   UNL     1      -0.651 -10.923  -4.908  0.00  0.00    -0.067 S 
ENDBRANCH  23  24
ENDBRANCH   3  18
TORSDOF 6
