REMARK  Name = ZINC06623833
REMARK  6 active torsions:
REMARK  status: ('A' for Active; 'I' for Inactive)
REMARK    1  A    between atoms: C_1  and  C_2
REMARK    2  A    between atoms: C_3  and  C_31
REMARK    3  A    between atoms: C_9  and  C_30
REMARK    4  A    between atoms: C_10  and  C_16
REMARK    5  A    between atoms: C_16  and  C_17
REMARK    6  A    between atoms: N_19  and  C_20
REMARK                            x       y       z     vdW  Elec       q    Type
REMARK                         _______ _______ _______ _____ _____    ______ ____
ROOT
ATOM      1  C   UNL     1       3.958  -9.674  -4.144  0.00  0.00    +0.048 C 
ATOM      2  C   UNL     1       3.885  -9.718  -2.640  0.00  0.00    -0.002 A 
ATOM      3  C   UNL     1       3.668 -10.796  -1.877  0.00  0.00    +0.106 A 
ATOM      4  O   UNL     1       3.670 -10.455  -0.576  0.00  0.00    -0.460 OA
ATOM      5  C   UNL     1       3.889  -9.133  -0.424  0.00  0.00    +0.139 A 
ATOM      6  C   UNL     1       4.039  -8.586  -1.715  0.00  0.00    +0.024 A 
ATOM      7  C   UNL     1       4.278  -7.229  -1.881  0.00  0.00    +0.023 A 
ATOM      8  C   UNL     1       4.368  -6.409  -0.757  0.00  0.00    +0.022 A 
ATOM      9  C   UNL     1       4.619  -4.971  -0.896  0.00  0.00    -0.029 A 
ATOM     10  C   UNL     1       4.697  -4.221   0.233  0.00  0.00    +0.049 A 
ATOM     11  C   UNL     1       4.543  -4.835   1.495  0.00  0.00    +0.341 A 
ATOM     12  O   UNL     1       4.621  -4.151   2.499  0.00  0.00    -0.245 OA
ATOM     13  O   UNL     1       4.308  -6.150   1.617  0.00  0.00    -0.422 OA
ATOM     14  C   UNL     1       4.219  -6.956   0.535  0.00  0.00    +0.143 A 
ATOM     15  C   UNL     1       3.981  -8.311   0.689  0.00  0.00    +0.093 A 
ATOM     16  C   UNL     1       4.786  -4.343  -2.255  0.00  0.00    +0.045 C 
ATOM     17  C   UNL     1       3.451 -12.193  -2.400  0.00  0.00    +0.086 C 
ENDROOT
BRANCH  10  18
ATOM     18  C   UNL     1       4.953  -2.739   0.140  0.00  0.00    +0.138 C 
BRANCH  18  19
ATOM     19  C   UNL     1       3.639  -2.007   0.047  0.00  0.00    +0.222 C 
ATOM     20  O   UNL     1       2.597  -2.628   0.056  0.00  0.00    -0.275 OA
ATOM     21  N   UNL     1       3.621  -0.663  -0.045  0.00  0.00    -0.285 N 
ATOM     22  H   UNL     1       4.454  -0.172  -0.130  0.00  0.00    +0.155 HD
BRANCH  21  23
ATOM     23  C   UNL     1       2.401   0.025  -0.020  0.00  0.00    +0.037 A 
ATOM     24  C   UNL     1       1.346  -0.460   0.740  0.00  0.00    +0.027 A 
ATOM     25  C   UNL     1       0.142   0.217   0.764  0.00  0.00    +0.051 A 
ATOM     26  C   UNL     1      -0.016   1.383   0.030  0.00  0.00    +0.162 A 
ATOM     27  C   UNL     1       1.039   1.873  -0.730  0.00  0.00    +0.164 A 
ATOM     28  C   UNL     1       2.247   1.192  -0.755  0.00  0.00    +0.072 A 
ATOM     29  O   UNL     1       0.906   3.020  -1.450  0.00  0.00    -0.485 OA
ATOM     30  C   UNL     1      -0.430   3.472  -1.699  0.00  0.00    +0.270 C 
ATOM     31  C   UNL     1      -1.216   3.394  -0.383  0.00  0.00    +0.270 C 
ATOM     32  O   UNL     1      -1.213   2.032   0.060  0.00  0.00    -0.485 OA
ENDBRANCH  21  23
ENDBRANCH  18  19
ENDBRANCH  10  18
TORSDOF 3
