REMARK  Name = ZINC36516909
REMARK  19 active torsions:
REMARK  status: ('A' for Active; 'I' for Inactive)
REMARK    1  A    between atoms: C_1  and  C_2
REMARK    2  A    between atoms: C_2  and  C_3
REMARK    3  A    between atoms: C_3  and  C_4
REMARK    4  A    between atoms: C_4  and  C_5
REMARK    5  A    between atoms: C_5  and  C_6
REMARK    6  A    between atoms: C_6  and  N_7
REMARK    7  A    between atoms: N_7  and  C_8
REMARK    8  A    between atoms: C_8  and  C_10
REMARK    9  A    between atoms: C_8  and  C_19
REMARK   10  A    between atoms: C_13  and  N_16
REMARK   11  A    between atoms: N_16  and  C_17
REMARK   12  A    between atoms: N_16  and  C_18
REMARK   13  A    between atoms: N_21  and  C_22
REMARK   14  A    between atoms: C_22  and  C_23
REMARK   15  A    between atoms: C_23  and  C_24
REMARK   16  A    between atoms: C_24  and  C_25
REMARK   17  A    between atoms: C_26  and  C_28
REMARK   18  A    between atoms: C_29  and  C_30
REMARK   19  A    between atoms: C_29  and  C_31
REMARK                            x       y       z     vdW  Elec       q    Type
REMARK                         _______ _______ _______ _____ _____    ______ ____
ROOT
ATOM      1  C   UNL     1       2.808  -5.743  -2.961  0.00  0.00    +0.192 C 
ENDROOT
BRANCH   1   2
ATOM      2  C   UNL     1       3.781  -5.302  -4.024  0.00  0.00    -0.018 A 
ATOM      3  C   UNL     1       3.895  -6.024  -5.197  0.00  0.00    +0.008 A 
ATOM      4  C   UNL     1       4.785  -5.622  -6.174  0.00  0.00    +0.023 A 
ATOM      5  C   UNL     1       5.567  -4.491  -5.975  0.00  0.00    +0.029 A 
ATOM      6  C   UNL     1       5.450  -3.768  -4.795  0.00  0.00    +0.023 A 
ATOM      7  C   UNL     1       4.553  -4.172  -3.826  0.00  0.00    +0.008 A 
BRANCH   5   8
ATOM      8  N   UNL     1       6.469  -4.082  -6.960  0.00  0.00    -0.336 N 
ATOM      9  C   UNL     1       6.591  -4.846  -8.204  0.00  0.00    +0.129 C 
ATOM     10  C   UNL     1       7.292  -2.889  -6.750  0.00  0.00    +0.129 C 
ENDBRANCH   5   8
ENDBRANCH   1   2
BRANCH   1  11
ATOM     11  C   UNL     1       2.660  -7.242  -3.007  0.00  0.00    +0.238 C 
ATOM     12  O   UNL     1       1.574  -7.738  -3.219  0.00  0.00    -0.273 OA
ATOM     13  N   UNL     1       3.735  -8.032  -2.813  0.00  0.00    -0.313 N 
ATOM     14  H   UNL     1       4.604  -7.635  -2.643  0.00  0.00    +0.149 HD
BRANCH  13  15
ATOM     15  C   UNL     1       3.591  -9.489  -2.857  0.00  0.00    +0.104 C 
BRANCH  15  16
ATOM     16  C   UNL     1       4.951 -10.144  -2.607  0.00  0.00    +0.018 C 
BRANCH  16  17
ATOM     17  C   UNL     1       4.801 -11.666  -2.654  0.00  0.00    -0.002 C 
ATOM     18  C   UNL     1       6.161 -12.320  -2.404  0.00  0.00    +0.004 C 
ENDBRANCH  16  17
ENDBRANCH  15  16
ENDBRANCH  13  15
ENDBRANCH   1  11
BRANCH   1  19
ATOM     19  N   UNL     1       1.506  -5.117  -3.200  0.00  0.00    -0.282 N 
ATOM     20  C   UNL     1       0.864  -5.321  -4.368  0.00  0.00    +0.240 C 
ATOM     21  O   UNL     1       1.316  -6.103  -5.182  0.00  0.00    -0.271 OA
BRANCH  20  22
ATOM     22  C   UNL     1      -0.383  -4.596  -4.658  0.00  0.00    +0.066 C 
ATOM     23  C   UNL     1      -0.948  -4.699  -5.857  0.00  0.00    -0.071 C 
ATOM     24  C   UNL     1      -0.229  -5.417  -6.970  0.00  0.00    +0.039 C 
ATOM     25  C   UNL     1      -2.308  -4.098  -6.104  0.00  0.00    +0.039 C 
ENDBRANCH  20  22
BRANCH  19  26
ATOM     26  C   UNL     1       0.900  -4.268  -2.170  0.00  0.00    +0.109 C 
BRANCH  26  27
ATOM     27  C   UNL     1       1.348  -2.820  -2.375  0.00  0.00    +0.019 C 
BRANCH  27  28
ATOM     28  C   UNL     1       0.717  -1.934  -1.299  0.00  0.00    +0.002 C 
BRANCH  28  29
ATOM     29  C   UNL     1       1.165  -0.485  -1.504  0.00  0.00    -0.000 C 
BRANCH  29  31
ATOM     30  C   UNL     1       0.981   1.849  -0.633  0.00  0.00    +0.004 C 
ATOM     31  C   UNL     1       0.533   0.401  -0.428  0.00  0.00    -0.003 C 
ENDBRANCH  29  31
ENDBRANCH  28  29
ENDBRANCH  27  28
ENDBRANCH  26  27
ENDBRANCH  19  26
ENDBRANCH   1  19
TORSDOF 13
