REMARK  Name = ZINC05105308
REMARK  12 active torsions:
REMARK  status: ('A' for Active; 'I' for Inactive)
REMARK    1  A    between atoms: C_1  and  N_63
REMARK    2  A    between atoms: C_6  and  O_32
REMARK    3  A    between atoms: C_7  and  O_24
REMARK    4  A    between atoms: C_10  and  C_12
REMARK    5  A    between atoms: C_12  and  C_13
REMARK    6  A    between atoms: C_15  and  O_22
REMARK    7  A    between atoms: C_16  and  O_20
REMARK    8  A    between atoms: O_20  and  C_21
REMARK    9  A    between atoms: O_22  and  C_23
REMARK   10  A    between atoms: O_24  and  C_25
REMARK   11  A    between atoms: C_25  and  C_26
REMARK   12  A    between atoms: O_32  and  C_33
REMARK                            x       y       z     vdW  Elec       q    Type
REMARK                         _______ _______ _______ _____ _____    ______ ____
ROOT
ATOM      1  C   UNL     1       0.992  12.492   2.291  0.00  0.00    -0.095 C 
ATOM      2  C   UNL     1      -0.266  13.060   0.298  0.00  0.00    -0.074 C 
ATOM      3  C   UNL     1      -0.342  12.743  -1.196  0.00  0.00    +0.017 C 
ATOM      4  C   UNL     1      -0.697  11.292  -1.397  0.00  0.00    -0.044 A 
ATOM      5  C   UNL     1      -1.156  10.892  -2.643  0.00  0.00    +0.053 A 
ATOM      6  C   UNL     1      -1.490   9.570  -2.875  0.00  0.00    +0.162 A 
ATOM      7  C   UNL     1      -1.362   8.637  -1.849  0.00  0.00    +0.163 A 
ATOM      8  C   UNL     1      -0.909   9.042  -0.607  0.00  0.00    +0.051 A 
ATOM      9  C   UNL     1      -0.573  10.369  -0.380  0.00  0.00    -0.054 A 
ATOM     10  C   UNL     1      -0.084  10.758   0.991  0.00  0.00    -0.033 C 
ATOM     11  N   UNL     1       0.613  12.054   0.928  0.00  0.00    +0.383 N 
ATOM     12  H   UNL     1       1.463  11.950   0.362  0.00  0.00    -0.081 HD
ENDROOT
BRANCH   6  13
ATOM     13  O   UNL     1      -1.941   9.183  -4.098  0.00  0.00    -0.491 OA
ATOM     14  C   UNL     1      -2.046  10.195  -5.101  0.00  0.00    +0.277 C 
ENDBRANCH   6  13
BRANCH  10  15
ATOM     15  C   UNL     1       0.891   9.696   1.500  0.00  0.00    +0.025 C 
BRANCH  15  16
ATOM     16  C   UNL     1       2.161   9.750   0.690  0.00  0.00    -0.031 A 
ATOM     17  C   UNL     1       3.094  10.741   0.936  0.00  0.00    +0.054 A 
ATOM     18  C   UNL     1       4.265  10.789   0.197  0.00  0.00    +0.162 A 
ATOM     19  C   UNL     1       4.494   9.846  -0.801  0.00  0.00    +0.163 A 
ATOM     20  C   UNL     1       3.553   8.860  -1.047  0.00  0.00    +0.065 A 
ATOM     21  C   UNL     1       2.388   8.813  -0.301  0.00  0.00    +0.025 A 
ATOM     22 BR   UNL     1       1.105   7.466  -0.638  0.00  0.00    -0.050 Br
BRANCH  19  23
ATOM     23  O   UNL     1       5.638   9.894  -1.534  0.00  0.00    -0.491 OA
ATOM     24  C   UNL     1       5.805   8.895  -2.542  0.00  0.00    +0.277 C 
ENDBRANCH  19  23
BRANCH  18  25
ATOM     25  O   UNL     1       5.186  11.759   0.442  0.00  0.00    -0.491 OA
ATOM     26  C   UNL     1       4.885  12.692   1.481  0.00  0.00    +0.277 C 
ENDBRANCH  18  25
ENDBRANCH  15  16
ENDBRANCH  10  15
BRANCH   7  27
ATOM     27  O   UNL     1      -1.686   7.334  -2.067  0.00  0.00    -0.484 OA
BRANCH  27  28
ATOM     28  C   UNL     1      -1.692   6.469  -0.930  0.00  0.00    +0.264 C 
BRANCH  28  29
ATOM     29  C   UNL     1      -2.228   5.118  -1.329  0.00  0.00    -0.010 A 
ATOM     30  C   UNL     1      -1.364   4.138  -1.781  0.00  0.00    +0.007 A 
ATOM     31  C   UNL     1      -1.856   2.899  -2.148  0.00  0.00    +0.000 A 
ATOM     32  C   UNL     1      -3.211   2.640  -2.063  0.00  0.00    +0.000 A 
ATOM     33  C   UNL     1      -4.076   3.622  -1.616  0.00  0.00    +0.000 A 
ATOM     34  C   UNL     1      -3.583   4.859  -1.244  0.00  0.00    +0.007 A 
ENDBRANCH  28  29
ENDBRANCH  27  28
ENDBRANCH   7  27
TORSDOF 8
