REMARK  Name = ZINC63804548
REMARK  10 active torsions:
REMARK  status: ('A' for Active; 'I' for Inactive)
REMARK    1  A    between atoms: C_1  and  C_2
REMARK    2  A    between atoms: C_2  and  O_3
REMARK    3  A    between atoms: O_3  and  C_4
REMARK    4  A    between atoms: C_6  and  S_11
REMARK    5  A    between atoms: S_11  and  N_14
REMARK    6  A    between atoms: N_14  and  C_15
REMARK    7  A    between atoms: C_15  and  C_16
REMARK    8  A    between atoms: C_16  and  C_17
REMARK    9  A    between atoms: C_20  and  C_28
REMARK   10  A    between atoms: C_25  and  C_27
REMARK                            x       y       z     vdW  Elec       q    Type
REMARK                         _______ _______ _______ _____ _____    ______ ____
ROOT
ATOM      1  N   UNL     1      -1.888  -5.443   0.204  0.00  0.00    -0.190 NA
ATOM      2  H   UNL     1      -2.623  -5.147   0.763  0.00  0.00    +0.148 HD
ENDROOT
BRANCH   1   3
ATOM      3  S   UNL     1      -0.326  -5.127   0.653  0.00  0.00    +0.059 S 
ATOM      4  O   UNL     1       0.386  -6.351   0.538  0.00  0.00    -0.153 OA
ATOM      5  O   UNL     1      -0.393  -4.396   1.869  0.00  0.00    -0.153 OA
BRANCH   3   8
ATOM      6  C   UNL     1       0.777  -1.810  -1.336  0.00  0.00    +0.136 A 
ATOM      7  C   UNL     1       0.243  -2.669  -0.387  0.00  0.00    +0.075 A 
ATOM      8  C   UNL     1       0.352  -4.036  -0.554  0.00  0.00    +0.109 A 
ATOM      9  C   UNL     1       0.992  -4.549  -1.667  0.00  0.00    +0.030 A 
ATOM     10  C   UNL     1       1.525  -3.696  -2.615  0.00  0.00    +0.021 A 
ATOM     11  C   UNL     1       1.414  -2.327  -2.455  0.00  0.00    +0.060 A 
ATOM     12 BR   UNL     1       2.136  -1.161  -3.757  0.00  0.00    -0.047 Br
BRANCH   6  13
ATOM     13  O   UNL     1       0.671  -0.465  -1.174  0.00  0.00    -0.491 OA
BRANCH  13  15
ATOM     14  C   UNL     1      -0.019   1.526   0.010  0.00  0.00    +0.048 C 
ATOM     15  C   UNL     1       0.002  -0.004   0.002  0.00  0.00    +0.226 C 
ENDBRANCH  13  15
ENDBRANCH   6  13
ENDBRANCH   3   8
ENDBRANCH   1   3
BRANCH   1  16
ATOM     16  C   UNL     1      -2.160  -6.170  -1.038  0.00  0.00    +0.110 C 
BRANCH  16  17
ATOM     17  C   UNL     1      -3.612  -6.655  -1.038  0.00  0.00    +0.050 C 
BRANCH  17  18
ATOM     18  C   UNL     1      -3.892  -7.403  -2.316  0.00  0.00    -0.037 C 
ATOM     19  C   UNL     1      -3.025  -7.638  -3.327  0.00  0.00    -0.001 A 
ATOM     20  C   UNL     1      -1.616  -7.281  -3.533  0.00  0.00    +0.013 A 
ATOM     21  C   UNL     1      -1.002  -7.665  -4.675  0.00  0.00    -0.050 A 
ATOM     22  C   UNL     1      -1.675  -8.394  -5.665  0.00  0.00    +0.005 A 
ATOM     23  C   UNL     1      -2.969  -8.760  -5.548  0.00  0.00    +0.026 A 
ATOM     24  C   UNL     1      -3.713  -8.409  -4.388  0.00  0.00    +0.043 A 
ATOM     25  N   UNL     1      -4.957  -8.641  -4.045  0.00  0.00    -0.378 N 
ATOM     26  C   UNL     1      -5.197  -8.048  -2.725  0.00  0.00    +0.103 C 
ATOM     27  C   UNL     1      -5.586  -9.134  -1.719  0.00  0.00    +0.035 C 
ATOM     28  C   UNL     1       0.445  -7.300  -4.888  0.00  0.00    +0.044 C 
ATOM     29  H   UNL     1      -5.609  -9.127  -4.575  0.00  0.00    +0.160 HD
ENDBRANCH  17  18
ENDBRANCH  16  17
ENDBRANCH   1  16
TORSDOF 7
