REMARK  Name = ZINC22065550
REMARK  6 active torsions:
REMARK  status: ('A' for Active; 'I' for Inactive)
REMARK    1  A    between atoms: C_8  and  O_19
REMARK    2  A    between atoms: O_19  and  C_20
REMARK    3  A    between atoms: C_22  and  O_36
REMARK    4  A    between atoms: C_24  and  O_35
REMARK    5  A    between atoms: C_26  and  O_34
REMARK    6  A    between atoms: C_28  and  C_31
REMARK                            x       y       z     vdW  Elec       q    Type
REMARK                         _______ _______ _______ _____ _____    ______ ____
ROOT
ATOM      1  C   UNL     1       2.413   0.104  -0.070  0.00  0.00    +0.001 A 
ATOM      2  C   UNL     1       1.147  -0.649  -0.035  0.00  0.00    +0.002 A 
ATOM      3  C   UNL     1       0.002  -0.004   0.002  0.00  0.00    +0.024 A 
ATOM      4  C   UNL     1      -0.018   1.471   0.010  0.00  0.00    +0.050 A 
ATOM      5  C   UNL     1       1.111   2.144   0.003  0.00  0.00    +0.000 A 
ATOM      6  C   UNL     1       2.395   1.418  -0.052  0.00  0.00    +0.010 A 
ATOM      7  C   UNL     1       1.115   3.608   0.085  0.00  0.00    +0.056 C 
ATOM      8  C   UNL     1       0.274   4.396  -0.501  0.00  0.00    +0.134 C 
ATOM      9  C   UNL     1      -0.836   3.966  -1.359  0.00  0.00    +0.039 A 
ATOM     10  C   UNL     1      -1.165   4.750  -2.565  0.00  0.00    +0.013 A 
ATOM     11  C   UNL     1      -2.174   4.396  -3.330  0.00  0.00    +0.001 A 
ATOM     12  C   UNL     1      -2.979   3.212  -2.982  0.00  0.00    +0.002 A 
ATOM     13  C   UNL     1      -2.679   2.506  -1.915  0.00  0.00    +0.024 A 
ATOM     14  C   UNL     1      -1.539   2.896  -1.063  0.00  0.00    +0.053 A 
ATOM     15  N   UNL     1      -1.205   2.117  -0.013  0.00  0.00    -0.223 N 
ATOM     16  C   UNL     1      -2.061   1.982   1.020  0.00  0.00    +0.308 C 
ATOM     17  O   UNL     1      -3.127   2.559   1.003  0.00  0.00    -0.252 OA
ATOM     18  N   UNL     1      -1.732   1.204   2.071  0.00  0.00    -0.313 N 
ATOM     19  H   UNL     1      -2.430   1.094   2.913  0.00  0.00    +0.147 HD
ATOM     20  H   UNL     1      -0.765   0.680   2.086  0.00  0.00    +0.147 HD
ENDROOT
BRANCH   8  21
ATOM     21  O   UNL     1       0.431   5.735  -0.307  0.00  0.00    -0.460 OA
BRANCH  21  22
ATOM     22  C   UNL     1       1.514   6.146   0.530  0.00  0.00    +0.340 C 
ATOM     23  C   UNL     1       1.606   7.675   0.531  0.00  0.00    +0.214 C 
ATOM     24  C   UNL     1       2.730   8.110   1.476  0.00  0.00    +0.180 C 
ATOM     25  C   UNL     1       2.456   7.543   2.873  0.00  0.00    +0.186 C 
ATOM     26  C   UNL     1       2.331   6.020   2.781  0.00  0.00    +0.266 C 
ATOM     27  O   UNL     1       1.289   5.683   1.863  0.00  0.00    -0.322 OA
BRANCH  26  28
ATOM     28  C   UNL     1       2.003   5.460   4.141  0.00  0.00    +0.387 C 
ATOM     29  O   UNL     1       0.941   4.915   4.330  0.00  0.00    -0.243 OA
ATOM     30  O   UNL     1       2.890   5.566   5.143  0.00  0.00    -0.243 OA
ENDBRANCH  26  28
BRANCH  25  31
ATOM     31  O   UNL     1       3.534   7.882   3.747  0.00  0.00    -0.386 OA
ATOM     32  H   UNL     1       3.513   7.558   4.798  0.00  0.00    +0.210 HD
ENDBRANCH  25  31
BRANCH  24  33
ATOM     33  O   UNL     1       2.776   9.537   1.540  0.00  0.00    -0.386 OA
ATOM     34  H   UNL     1       3.524  10.035   2.174  0.00  0.00    +0.210 HD
ENDBRANCH  24  33
BRANCH  23  35
ATOM     35  O   UNL     1       0.366   8.228   0.977  0.00  0.00    -0.383 OA
ATOM     36  H   UNL     1       0.243   9.319   1.044  0.00  0.00    +0.210 HD
ENDBRANCH  23  35
ENDBRANCH  21  22
ENDBRANCH   8  21
TORSDOF 6
