REMARK  Name = ZINC41067247
REMARK  4 active torsions:
REMARK  status: ('A' for Active; 'I' for Inactive)
REMARK    1  A    between atoms: C_1  and  C_2
REMARK    2  A    between atoms: C_2  and  N_3
REMARK    3  A    between atoms: C_5  and  C_17
REMARK    4  A    between atoms: C_6  and  C_8
REMARK                            x       y       z     vdW  Elec       q    Type
REMARK                         _______ _______ _______ _____ _____    ______ ____
ROOT
ATOM      1  N   UNL     1      -1.390  -0.526  -0.172  0.00  0.00    -0.270 N 
ATOM      2  C   UNL     1      -2.119  -1.262  -1.023  0.00  0.00    +0.124 A 
ATOM      3  C   UNL     1      -3.340  -1.516  -0.426  0.00  0.00    +0.108 A 
ATOM      4  C   UNL     1      -3.300  -0.863   0.888  0.00  0.00    +0.108 A 
ATOM      5  N   UNL     1      -2.121  -0.294   0.996  0.00  0.00    -0.170 NA
ENDROOT
BRANCH   4   6
ATOM      6  C   UNL     1      -4.381  -0.854   1.902  0.00  0.00    +0.024 A 
ATOM      7  C   UNL     1      -4.974  -2.050   2.303  0.00  0.00    +0.051 A 
ATOM      8  C   UNL     1      -5.982  -2.035   3.248  0.00  0.00    +0.142 A 
ATOM      9  C   UNL     1      -6.402  -0.834   3.797  0.00  0.00    +0.077 A 
ATOM     10  C   UNL     1      -5.817   0.356   3.402  0.00  0.00    +0.043 A 
ATOM     11  C   UNL     1      -4.804   0.351   2.462  0.00  0.00    +0.052 A 
ATOM     12 CL   UNL     1      -4.065   1.844   1.974  0.00  0.00    -0.083 Cl
ATOM     13 CL   UNL     1      -7.669  -0.822   4.985  0.00  0.00    -0.081 Cl
ATOM     14  F   UNL     1      -6.558  -3.194   3.637  0.00  0.00    -0.204 F 
ENDBRANCH   4   6
BRANCH   3  15
ATOM     15  C   UNL     1      -4.454  -2.286  -0.993  0.00  0.00    +0.390 C 
ATOM     16  O   UNL     1      -4.313  -2.873  -2.057  0.00  0.00    -0.240 OA
ATOM     17  O   UNL     1      -5.524  -2.340  -0.401  0.00  0.00    -0.240 OA
ENDBRANCH   3  15
BRANCH   1  19
ATOM     18  C   UNL     1       0.015   1.474  -0.242  0.00  0.00    +0.029 C 
ATOM     19  C   UNL     1      -0.030  -0.044  -0.426  0.00  0.00    +0.140 C 
ENDBRANCH   1  19
TORSDOF 3
