REMARK  Name = ZINC11872525
REMARK  7 active torsions:
REMARK  status: ('A' for Active; 'I' for Inactive)
REMARK    1  A    between atoms: C_5  and  C_7
REMARK    2  A    between atoms: C_7  and  C_8
REMARK    3  A    between atoms: C_11  and  S_14
REMARK    4  A    between atoms: N_12  and  N_13
REMARK    5  A    between atoms: S_14  and  C_15
REMARK    6  A    between atoms: C_15  and  C_16
REMARK    7  A    between atoms: N_18  and  C_19
REMARK                            x       y       z     vdW  Elec       q    Type
REMARK                         _______ _______ _______ _____ _____    ______ ____
ROOT
ATOM      1  S   UNL     1       3.552   5.317   4.427  0.00  0.00    -0.075 S 
ENDROOT
BRANCH   1   5
ATOM      2  C   UNL     1       1.401   4.143   1.391  0.00  0.00    +0.155 A 
ATOM      3  N   UNL     1       0.499   4.385   2.299  0.00  0.00    -0.132 NA
ATOM      4  N   UNL     1       1.060   4.784   3.384  0.00  0.00    -0.121 NA
ATOM      5  C   UNL     1       2.362   4.827   3.223  0.00  0.00    +0.209 A 
ATOM      6  N   UNL     1       2.621   4.419   1.946  0.00  0.00    -0.228 N 
BRANCH   6   7
ATOM      7  N   UNL     1       3.843   4.310   1.346  0.00  0.00    -0.295 N 
ATOM      8  H   UNL     1       4.100   5.172   0.890  0.00  0.00    +0.163 HD
ATOM      9  H   UNL     1       4.548   4.029   2.011  0.00  0.00    +0.163 HD
ENDBRANCH   6   7
BRANCH   2  10
ATOM     10  C   UNL     1       1.148   3.655  -0.012  0.00  0.00    +0.116 C 
BRANCH  10  15
ATOM     11  C   UNL     1      -0.011   0.063  -0.046  0.00  0.00    +0.000 A 
ATOM     12  C   UNL     1       1.192  -0.617  -0.066  0.00  0.00    +0.003 A 
ATOM     13  C   UNL     1       2.383   0.084  -0.068  0.00  0.00    +0.038 A 
ATOM     14  C   UNL     1       2.370   1.469  -0.050  0.00  0.00    +0.127 A 
ATOM     15  C   UNL     1       1.164   2.149  -0.030  0.00  0.00    -0.005 A 
ATOM     16  C   UNL     1      -0.025   1.445  -0.029  0.00  0.00    +0.007 A 
ATOM     17  F   UNL     1       3.533   2.156  -0.051  0.00  0.00    -0.205 F 
ENDBRANCH  10  15
ENDBRANCH   2  10
ENDBRANCH   1   5
BRANCH   1  18
ATOM     18  C   UNL     1       2.455   5.700   5.815  0.00  0.00    +0.173 C 
BRANCH  18  19
ATOM     19  C   UNL     1       3.276   6.155   6.994  0.00  0.00    +0.228 C 
ATOM     20  O   UNL     1       4.484   6.214   6.904  0.00  0.00    -0.275 OA
ATOM     21  N   UNL     1       2.668   6.495   8.147  0.00  0.00    -0.284 N 
ATOM     22  H   UNL     1       1.699   6.510   8.199  0.00  0.00    +0.155 HD
BRANCH  21  23
ATOM     23  C   UNL     1       3.435   6.827   9.272  0.00  0.00    +0.056 A 
ATOM     24  C   UNL     1       4.643   7.496   9.116  0.00  0.00    +0.074 A 
ATOM     25  C   UNL     1       5.395   7.822  10.231  0.00  0.00    +0.164 A 
ATOM     26  C   UNL     1       4.945   7.482  11.499  0.00  0.00    +0.163 A 
ATOM     27  C   UNL     1       3.742   6.815  11.655  0.00  0.00    +0.071 A 
ATOM     28  C   UNL     1       2.984   6.494  10.543  0.00  0.00    +0.066 A 
ATOM     29 CL   UNL     1       1.471   5.665  10.735  0.00  0.00    -0.082 Cl
ATOM     30  O   UNL     1       5.697   7.809  12.591  0.00  0.00    -0.488 OA
ATOM     31  C   UNL     1       6.937   7.111  12.728  0.00  0.00    +0.232 C 
ATOM     32  C   UNL     1       8.029   7.787  11.913  0.00  0.00    +0.082 C 
ATOM     33  C   UNL     1       7.755   7.731  10.419  0.00  0.00    +0.232 C 
ATOM     34  O   UNL     1       6.582   8.480  10.090  0.00  0.00    -0.488 OA
ENDBRANCH  21  23
ENDBRANCH  18  19
ENDBRANCH   1  18
TORSDOF 7
