REMARK  Name = ZINC13354006
REMARK  7 active torsions:
REMARK  status: ('A' for Active; 'I' for Inactive)
REMARK    1  A    between atoms: C_1  and  N_2
REMARK    2  A    between atoms: C_11  and  S_12
REMARK    3  A    between atoms: S_12  and  C_13
REMARK    4  A    between atoms: C_13  and  C_14
REMARK    5  A    between atoms: N_16  and  C_17
REMARK    6  A    between atoms: C_19  and  C_25
REMARK    7  A    between atoms: C_21  and  C_23
REMARK                            x       y       z     vdW  Elec       q    Type
REMARK                         _______ _______ _______ _____ _____    ______ ____
ROOT
ATOM      1  C   UNL     1       3.494   5.780  -0.167  0.00  0.00    +0.173 C 
ENDROOT
BRANCH   1   2
ATOM      2  C   UNL     1       4.100   7.160  -0.172  0.00  0.00    +0.227 C 
ATOM      3  O   UNL     1       5.293   7.298  -0.340  0.00  0.00    -0.275 OA
ATOM      4  N   UNL     1       3.316   8.241   0.010  0.00  0.00    -0.285 N 
ATOM      5  H   UNL     1       2.353   8.137   0.068  0.00  0.00    +0.155 HD
BRANCH   4   6
ATOM      6  C   UNL     1       3.890   9.513   0.116  0.00  0.00    +0.035 A 
ATOM      7  C   UNL     1       5.132   9.663   0.715  0.00  0.00    +0.038 A 
ATOM      8  C   UNL     1       5.711  10.930   0.817  0.00  0.00    +0.066 A 
ATOM      9  C   UNL     1       5.035  12.045   0.326  0.00  0.00    +0.030 A 
ATOM     10  C   UNL     1       3.784  11.891  -0.270  0.00  0.00    +0.066 A 
ATOM     11  C   UNL     1       3.214  10.620  -0.374  0.00  0.00    +0.038 A 
BRANCH  10  12
ATOM     12  C   UNL     1       3.064  13.070  -0.793  0.00  0.00    +0.387 C 
ATOM     13  O   UNL     1       1.974  12.935  -1.313  0.00  0.00    -0.241 OA
ATOM     14  O   UNL     1       3.615  14.295  -0.693  0.00  0.00    -0.241 OA
ENDBRANCH  10  12
BRANCH   8  15
ATOM     15  C   UNL     1       7.037  11.088   1.450  0.00  0.00    +0.387 C 
ATOM     16  O   UNL     1       7.625  10.116   1.878  0.00  0.00    -0.241 OA
ATOM     17  O   UNL     1       7.592  12.311   1.554  0.00  0.00    -0.241 OA
ENDBRANCH   8  15
ENDBRANCH   4   6
ENDBRANCH   1   2
BRANCH   1  18
ATOM     18  S   UNL     1       4.794   4.549  -0.434  0.00  0.00    -0.078 S 
BRANCH  18  29
ATOM     19  C   UNL     1       5.896   1.818  -0.763  0.00  0.00    +0.154 C 
ATOM     20  N   UNL     1       4.447   1.865  -0.547  0.00  0.00    -0.290 N 
ATOM     21  C   UNL     1       3.747   0.716  -0.515  0.00  0.00    +0.263 A 
ATOM     22  O   UNL     1       4.308  -0.356  -0.664  0.00  0.00    -0.267 OA
ATOM     23  C   UNL     1       2.333   0.773  -0.303  0.00  0.00    +0.076 A 
ATOM     24  C   UNL     1       1.383  -0.349  -0.234  0.00  0.00    -0.023 A 
ATOM     25  C   UNL     1       0.093  -0.040  -0.024  0.00  0.00    -0.004 A 
ATOM     26  S   UNL     1       0.057   1.734   0.091  0.00  0.00    -0.073 S 
ATOM     27  C   UNL     1       1.786   2.054  -0.143  0.00  0.00    +0.117 A 
ATOM     28  N   UNL     1       2.533   3.152  -0.186  0.00  0.00    -0.216 NA
ATOM     29  C   UNL     1       3.833   3.073  -0.383  0.00  0.00    +0.173 A 
ATOM     30  C   UNL     1      -0.783  -1.263   0.032  0.00  0.00    +0.043 C 
ATOM     31  C   UNL     1       0.200  -2.433   0.259  0.00  0.00    +0.010 C 
ATOM     32  C   UNL     1       1.500  -1.871  -0.348  0.00  0.00    +0.037 C 
ENDBRANCH  18  29
ENDBRANCH   1  18
TORSDOF 6
