REMARK  Name = ZINC35188411
REMARK  11 active torsions:
REMARK  status: ('A' for Active; 'I' for Inactive)
REMARK    1  A    between atoms: C_1  and  C_2
REMARK    2  A    between atoms: C_2  and  O_3
REMARK    3  A    between atoms: O_3  and  C_4
REMARK    4  A    between atoms: C_7  and  C_11
REMARK    5  A    between atoms: C_9  and  O_10
REMARK    6  A    between atoms: N_12  and  N_13
REMARK    7  A    between atoms: N_24  and  C1*_25
REMARK    8  A    between atoms: C2*_27  and  O2*_37
REMARK    9  A    between atoms: C3*_29  and  O3*_36
REMARK   10  A    between atoms: C4*_31  and  C5*_34
REMARK   11  A    between atoms: C5*_34  and  O5*_35
REMARK                            x       y       z     vdW  Elec       q    Type
REMARK                         _______ _______ _______ _____ _____    ______ ____
ROOT
ATOM      1  N   UNL     1      -0.218  -6.791  -0.251  0.00  0.00    -0.206 N 
ATOM      2  C   UNL     1      -0.526  -7.700   0.742  0.00  0.00    +0.220 A 
ATOM      3  N   UNL     1      -0.412  -9.001   0.637  0.00  0.00    -0.206 NA
ATOM      4  C   UNL     1      -0.801  -9.579   1.799  0.00  0.00    +0.174 A 
ATOM      5  C   UNL     1      -0.889 -10.918   2.254  0.00  0.00    +0.279 A 
ATOM      6  O   UNL     1      -0.572 -11.847   1.530  0.00  0.00    -0.265 OA
ATOM      7  N   UNL     1      -1.333 -11.138   3.511  0.00  0.00    -0.312 N 
ATOM      8  H   UNL     1      -1.402 -12.046   3.846  0.00  0.00    +0.170 HD
ATOM      9  C   UNL     1      -1.683 -10.096   4.308  0.00  0.00    +0.201 A 
ATOM     10  N   UNL     1      -1.608  -8.859   3.904  0.00  0.00    -0.218 NA
ATOM     11  C   UNL     1      -1.177  -8.555   2.672  0.00  0.00    +0.171 A 
ATOM     12  N   UNL     1      -0.991  -7.380   1.988  0.00  0.00    -0.266 N 
ATOM     13  H   UNL     1      -0.548  -6.927  -1.153  0.00  0.00    +0.177 HD
ENDROOT
BRANCH  12  14
ATOM     14  C1* UNL     1      -1.246  -6.030   2.498  0.00  0.00    +0.255 C 
ATOM     15  C2* UNL     1      -2.507  -5.434   1.834  0.00  0.00    +0.195 C 
ATOM     16  C3* UNL     1      -2.161  -3.941   1.644  0.00  0.00    +0.178 C 
ATOM     17  C4* UNL     1      -0.732  -3.811   2.216  0.00  0.00    +0.177 C 
ATOM     18  O4* UNL     1      -0.173  -5.140   2.123  0.00  0.00    -0.346 OA
BRANCH  16  19
ATOM     19  O3* UNL     1      -2.182  -3.594   0.258  0.00  0.00    -0.386 OA
ATOM     20  H3* UNL     1      -1.923  -2.680   0.078  0.00  0.00    +0.210 HD
ENDBRANCH  16  19
BRANCH  15  21
ATOM     21  O2* UNL     1      -2.751  -6.059   0.571  0.00  0.00    -0.385 OA
ATOM     22  H2* UNL     1      -3.531  -5.722   0.110  0.00  0.00    +0.210 HD
ENDBRANCH  15  21
BRANCH  17  23
ATOM     23  C5* UNL     1       0.088  -2.824   1.382  0.00  0.00    +0.190 C 
BRANCH  23  24
ATOM     24  O5* UNL     1       1.374  -2.650   1.980  0.00  0.00    -0.392 OA
ATOM     25  H5* UNL     1       1.950  -2.036   1.503  0.00  0.00    +0.210 HD
ENDBRANCH  23  24
ENDBRANCH  17  23
ENDBRANCH  12  14
BRANCH   1  27
ATOM     26  C   UNL     1       0.830  -4.797  -0.880  0.00  0.00    +0.138 C 
ATOM     27  N   UNL     1       0.572  -5.672   0.044  0.00  0.00    -0.188 NA
BRANCH  26  31
ATOM     28  C   UNL     1      -1.587  -4.611  -4.369  0.00  0.00    +0.162 A 
ATOM     29  C   UNL     1      -0.308  -4.075  -4.383  0.00  0.00    +0.050 A 
ATOM     30  C   UNL     1       0.480  -4.134  -3.253  0.00  0.00    +0.013 A 
ATOM     31  C   UNL     1      -0.010  -4.733  -2.090  0.00  0.00    -0.002 A 
ATOM     32  C   UNL     1      -1.300  -5.272  -2.076  0.00  0.00    +0.058 A 
ATOM     33  C   UNL     1      -2.085  -5.205  -3.212  0.00  0.00    +0.159 A 
BRANCH  33  34
ATOM     34  O   UNL     1      -3.342  -5.723  -3.200  0.00  0.00    -0.503 OA
ATOM     35  H   UNL     1      -3.387  -6.653  -3.460  0.00  0.00    +0.292 HD
ENDBRANCH  33  34
BRANCH  28  36
ATOM     36  O   UNL     1      -2.360  -4.550  -5.486  0.00  0.00    -0.489 OA
BRANCH  36  38
ATOM     37  C   UNL     1      -2.726  -4.150  -7.841  0.00  0.00    +0.048 C 
ATOM     38  C   UNL     1      -1.750  -4.028  -6.669  0.00  0.00    +0.226 C 
ENDBRANCH  36  38
ENDBRANCH  28  36
ENDBRANCH  26  31
ENDBRANCH   1  27
TORSDOF 10
