REMARK  Name = ZINC43465468
REMARK  12 active torsions:
REMARK  status: ('A' for Active; 'I' for Inactive)
REMARK    1  A    between atoms: C_3  and  O_22
REMARK    2  A    between atoms: C_4  and  O_21
REMARK    3  A    between atoms: C_6  and  C_7
REMARK    4  A    between atoms: C_8  and  O_20
REMARK    5  A    between atoms: C_12  and  O_19
REMARK    6  A    between atoms: C_14  and  O_18
REMARK    7  A    between atoms: O_22  and  C_23
REMARK    8  A    between atoms: C_25  and  O_38
REMARK    9  A    between atoms: C_27  and  O_37
REMARK   10  A    between atoms: C_29  and  O_36
REMARK   11  A    between atoms: C_31  and  C_34
REMARK   12  A    between atoms: C_34  and  O_35
REMARK                            x       y       z     vdW  Elec       q    Type
REMARK                         _______ _______ _______ _____ _____    ______ ____
ROOT
ATOM      1  C   UNL     1       0.000   1.367   0.271  0.00  0.00    +0.015 A 
ATOM      2  C   UNL     1       1.185   2.073   0.263  0.00  0.00    +0.050 A 
ATOM      3  C   UNL     1       2.380   1.424  -0.012  0.00  0.00    +0.165 A 
ATOM      4  C   UNL     1       2.390   0.056  -0.281  0.00  0.00    +0.159 A 
ATOM      5  C   UNL     1       1.207  -0.657  -0.275  0.00  0.00    +0.060 A 
ATOM      6  C   UNL     1       0.002  -0.004   0.002  0.00  0.00    +0.025 A 
ENDROOT
BRANCH   6   7
ATOM      7  C   UNL     1      -1.264  -0.760   0.010  0.00  0.00    +0.181 A 
ATOM      8  C   UNL     1      -1.319  -1.940   0.689  0.00  0.00    +0.208 A 
ATOM      9  C   UNL     1      -2.529  -2.680   0.707  0.00  0.00    +0.238 A 
ATOM     10  O   UNL     1      -2.616  -3.741   1.304  0.00  0.00    -0.283 OA
ATOM     11  C   UNL     1      -3.676  -2.118  -0.024  0.00  0.00    +0.109 A 
ATOM     12  C   UNL     1      -4.911  -2.781  -0.060  0.00  0.00    +0.135 A 
ATOM     13  C   UNL     1      -5.964  -2.221  -0.757  0.00  0.00    +0.091 A 
ATOM     14  C   UNL     1      -5.799  -1.008  -1.418  0.00  0.00    +0.124 A 
ATOM     15  C   UNL     1      -4.581  -0.347  -1.387  0.00  0.00    +0.092 A 
ATOM     16  C   UNL     1      -3.512  -0.893  -0.693  0.00  0.00    +0.147 A 
ATOM     17  O   UNL     1      -2.322  -0.258  -0.648  0.00  0.00    -0.451 OA
BRANCH  14  18
ATOM     18  O   UNL     1      -6.840  -0.467  -2.100  0.00  0.00    -0.507 OA
ATOM     19  H   UNL     1      -7.395   0.121  -1.569  0.00  0.00    +0.292 HD
ENDBRANCH  14  18
BRANCH  12  20
ATOM     20  O   UNL     1      -5.070  -3.965   0.585  0.00  0.00    -0.506 OA
ATOM     21  H   UNL     1      -5.368  -3.877   1.500  0.00  0.00    +0.292 HD
ENDBRANCH  12  20
BRANCH   8  22
ATOM     22  O   UNL     1      -0.221  -2.406   1.345  0.00  0.00    -0.501 OA
ATOM     23  H   UNL     1      -0.361  -3.250   1.796  0.00  0.00    +0.292 HD
ENDBRANCH   8  22
ENDBRANCH   6   7
BRANCH   4  24
ATOM     24  O   UNL     1       3.564  -0.576  -0.550  0.00  0.00    -0.503 OA
ATOM     25  H   UNL     1       4.010  -0.927   0.233  0.00  0.00    +0.292 HD
ENDBRANCH   4  24
BRANCH   3  26
ATOM     26  O   UNL     1       3.545   2.124  -0.020  0.00  0.00    -0.457 OA
BRANCH  26  27
ATOM     27  C   UNL     1       3.463   3.523   0.264  0.00  0.00    +0.339 C 
ATOM     28  C   UNL     1       4.812   4.183  -0.031  0.00  0.00    +0.214 C 
ATOM     29  C   UNL     1       5.878   3.583   0.892  0.00  0.00    +0.180 C 
ATOM     30  C   UNL     1       5.443   3.775   2.348  0.00  0.00    +0.177 C 
ATOM     31  C   UNL     1       4.069   3.130   2.551  0.00  0.00    +0.179 C 
ATOM     32  O   UNL     1       3.132   3.711   1.641  0.00  0.00    -0.331 OA
BRANCH  30  33
ATOM     33  O   UNL     1       5.365   5.170   2.644  0.00  0.00    -0.386 OA
ATOM     34  H   UNL     1       6.201   5.644   2.532  0.00  0.00    +0.210 HD
ENDBRANCH  30  33
BRANCH  29  35
ATOM     35  O   UNL     1       6.022   2.189   0.613  0.00  0.00    -0.386 OA
ATOM     36  H   UNL     1       6.290   1.996  -0.296  0.00  0.00    +0.210 HD
ENDBRANCH  29  35
BRANCH  28  37
ATOM     37  O   UNL     1       4.716   5.590   0.200  0.00  0.00    -0.383 OA
ATOM     38  H   UNL     1       4.055   6.034  -0.349  0.00  0.00    +0.210 HD
ENDBRANCH  28  37
BRANCH  31  39
ATOM     39  C   UNL     1       3.601   3.368   3.988  0.00  0.00    +0.190 C 
BRANCH  39  40
ATOM     40  O   UNL     1       2.375   2.669   4.211  0.00  0.00    -0.392 OA
ATOM     41  H   UNL     1       2.019   2.775   5.104  0.00  0.00    +0.210 HD
ENDBRANCH  39  40
ENDBRANCH  31  39
ENDBRANCH  26  27
ENDBRANCH   3  26
TORSDOF 12
