REMARK  Name = ZINC37367104
REMARK  3 active torsions:
REMARK  status: ('A' for Active; 'I' for Inactive)
REMARK    1  A    between atoms: C_6  and  C_7
REMARK    2  A    between atoms: C_8  and  C_14
REMARK    3  A    between atoms: C_12  and  N_13
REMARK                            x       y       z     vdW  Elec       q    Type
REMARK                         _______ _______ _______ _____ _____    ______ ____
ROOT
ATOM      1  C   UNL     1      -1.292  -0.729   0.036  0.00  0.00    +0.049 A 
ATOM      2  C   UNL     1      -1.691  -1.688   1.001  0.00  0.00    +0.103 A 
ATOM      3  N   UNL     1      -2.849  -2.184   0.629  0.00  0.00    -0.172 NA
ATOM      4  N   UNL     1      -3.238  -1.577  -0.571  0.00  0.00    -0.263 N 
ATOM      5  H   UNL     1      -4.054  -1.763  -1.062  0.00  0.00    +0.190 HD
ATOM      6  C   UNL     1      -2.283  -0.681  -0.927  0.00  0.00    +0.120 A 
ENDROOT
BRANCH   2   7
ATOM      7  C   UNL     1      -0.933  -2.064   2.219  0.00  0.00    +0.021 A 
ATOM      8  C   UNL     1      -0.415  -1.076   3.054  0.00  0.00    +0.012 A 
ATOM      9  C   UNL     1       0.289  -1.432   4.186  0.00  0.00    +0.016 A 
ATOM     10  C   UNL     1       0.483  -2.768   4.492  0.00  0.00    +0.019 A 
ATOM     11  C   UNL     1      -0.028  -3.754   3.667  0.00  0.00    +0.036 A 
ATOM     12  C   UNL     1      -0.740  -3.409   2.535  0.00  0.00    +0.051 A 
ATOM     13 CL   UNL     1      -1.387  -4.647   1.504  0.00  0.00    -0.083 Cl
ATOM     14 BR   UNL     1       1.451  -3.247   6.045  0.00  0.00    -0.050 Br
ENDBRANCH   2   7
BRANCH   1  20
ATOM     15  C   UNL     1      -0.112   1.458   0.233  0.00  0.00    +0.010 A 
ATOM     16  C   UNL     1       1.049   2.203   0.254  0.00  0.00    +0.016 A 
ATOM     17  C   UNL     1       2.276   1.580   0.100  0.00  0.00    +0.018 A 
ATOM     18  C   UNL     1       2.346   0.209  -0.074  0.00  0.00    +0.016 A 
ATOM     19  C   UNL     1       1.191  -0.546  -0.097  0.00  0.00    +0.010 A 
ATOM     20  C   UNL     1      -0.048   0.076   0.058  0.00  0.00    -0.012 A 
ATOM     21 BR   UNL     1       3.864   2.608   0.129  0.00  0.00    -0.050 Br
ENDBRANCH   1  20
BRANCH   6  22
ATOM     22  N   UNL     1      -2.296   0.131  -2.053  0.00  0.00    -0.343 N 
ATOM     23  H   UNL     1      -1.560   0.739  -2.221  0.00  0.00    +0.144 HD
ATOM     24  H   UNL     1      -3.042   0.089  -2.672  0.00  0.00    +0.144 HD
ENDBRANCH   6  22
TORSDOF 3
