REMARK  Name = ZINC67445839
REMARK  11 active torsions:
REMARK  status: ('A' for Active; 'I' for Inactive)
REMARK    1  A    between atoms: C_1  and  C_2
REMARK    2  A    between atoms: C_2  and  C_3
REMARK    3  A    between atoms: C_6  and  C_9
REMARK    4  A    between atoms: C_9  and  C_11
REMARK    5  A    between atoms: C_9  and  N_14
REMARK    6  A    between atoms: C_11  and  C_12
REMARK    7  A    between atoms: C_11  and  C_13
REMARK    8  A    between atoms: N_14  and  C_15
REMARK    9  A    between atoms: C_15  and  C_16
REMARK   10  A    between atoms: C_25  and  N_27
REMARK   11  A    between atoms: C_28  and  C_30
REMARK                            x       y       z     vdW  Elec       q    Type
REMARK                         _______ _______ _______ _____ _____    ______ ____
ROOT
ATOM      1  C   UNL     1      -6.941  -3.633  -0.928  0.00  0.00    -0.045 C 
ENDROOT
BRANCH   1   2
ATOM      2  C   UNL     1      -7.112  -4.658  -2.019  0.00  0.00    -0.047 A 
ATOM      3  C   UNL     1      -6.891  -5.977  -1.778  0.00  0.00    +0.094 A 
ATOM      4  C   UNL     1      -7.058  -6.917  -2.815  0.00  0.00    +0.337 A 
ATOM      5  O   UNL     1      -6.856  -8.096  -2.586  0.00  0.00    -0.245 OA
ATOM      6  O   UNL     1      -7.433  -6.546  -4.049  0.00  0.00    -0.422 OA
ATOM      7  C   UNL     1      -7.668  -5.252  -4.356  0.00  0.00    +0.141 A 
ATOM      8  C   UNL     1      -7.526  -4.261  -3.366  0.00  0.00    +0.019 A 
ATOM      9  C   UNL     1      -7.774  -2.919  -3.677  0.00  0.00    +0.013 A 
ATOM     10  C   UNL     1      -8.158  -2.575  -4.941  0.00  0.00    +0.024 A 
ATOM     11  C   UNL     1      -8.306  -3.553  -5.924  0.00  0.00    +0.037 A 
ATOM     12  C   UNL     1      -8.055  -4.886  -5.635  0.00  0.00    +0.070 A 
BRANCH  11  13
ATOM     13  N   UNL     1      -8.700  -3.186  -7.211  0.00  0.00    -0.286 N 
ATOM     14  C   UNL     1      -8.208  -3.843  -8.280  0.00  0.00    +0.214 C 
ATOM     15  O   UNL     1      -7.487  -4.805  -8.121  0.00  0.00    -0.276 OA
ATOM     16  C   UNL     1      -8.553  -3.382  -9.673  0.00  0.00    +0.109 C 
ATOM     17  H   UNL     1      -9.329  -2.458  -7.337  0.00  0.00    +0.155 HD
ENDBRANCH  11  13
ENDBRANCH   1   2
BRANCH   1  18
ATOM     18  N   UNL     1      -5.595  -3.050  -1.009  0.00  0.00    +0.386 N 
ATOM     19  H   UNL     1      -5.473  -2.608  -1.908  0.00  0.00    -0.085 HD
ATOM     20  H   UNL     1      -4.906  -3.779  -0.896  0.00  0.00    -0.085 HD
BRANCH  18  21
ATOM     21  C   UNL     1      -5.429  -2.051   0.055  0.00  0.00    -0.038 C 
BRANCH  21  25
ATOM     22  C   UNL     1      -1.407  -0.612   0.039  0.00  0.00    -0.048 A 
ATOM     23  C   UNL     1      -2.052  -0.848   1.239  0.00  0.00    +0.004 A 
ATOM     24  C   UNL     1      -3.353  -1.314   1.244  0.00  0.00    +0.002 A 
ATOM     25  C   UNL     1      -4.010  -1.542   0.049  0.00  0.00    -0.061 A 
ATOM     26  C   UNL     1      -3.366  -1.306  -1.150  0.00  0.00    +0.002 A 
ATOM     27  C   UNL     1      -2.066  -0.836  -1.155  0.00  0.00    +0.004 A 
BRANCH  22  29
ATOM     28  C   UNL     1       0.006   1.426   0.045  0.00  0.00    +0.009 C 
ATOM     29  C   UNL     1       0.012  -0.104   0.034  0.00  0.00    +0.032 C 
ENDBRANCH  22  29
ENDBRANCH  21  25
BRANCH  21  30
ATOM     30  C   UNL     1      -6.390  -0.885  -0.186  0.00  0.00    -0.027 C 
ATOM     31  C   UNL     1      -6.217   0.156   0.921  0.00  0.00    +0.006 C 
ATOM     32  C   UNL     1      -6.083  -0.244  -1.541  0.00  0.00    +0.006 C 
ENDBRANCH  21  30
ENDBRANCH  18  21
ENDBRANCH   1  18
TORSDOF 7
