REMARK  Name = ZINC38890627
REMARK  10 active torsions:
REMARK  status: ('A' for Active; 'I' for Inactive)
REMARK    1  A    between atoms: C_1  and  C_2
REMARK    2  A    between atoms: C_5  and  C_8
REMARK    3  A    between atoms: C_10  and  C_13
REMARK    4  A    between atoms: C_13  and  N_14
REMARK    5  A    between atoms: C_18  and  C_21
REMARK    6  A    between atoms: N_23  and  C_24
REMARK    7  A    between atoms: C_25  and  C_33
REMARK    8  A    between atoms: C_29  and  C_30
REMARK    9  A    between atoms: C_30  and  C_31
REMARK   10  A    between atoms: C_30  and  C_32
REMARK                            x       y       z     vdW  Elec       q    Type
REMARK                         _______ _______ _______ _____ _____    ______ ____
ROOT
ATOM      1  N   UNL     1      -1.859  -6.786   3.199  0.00  0.00    +0.386 N 
ATOM      2  C   UNL     1      -1.476  -7.343   1.896  0.00  0.00    -0.078 C 
ATOM      3  C   UNL     1      -2.534  -8.348   1.437  0.00  0.00    -0.018 C 
ATOM      4  C   UNL     1      -2.639  -9.478   2.466  0.00  0.00    +0.009 C 
ATOM      5  C   UNL     1      -2.965  -8.877   3.836  0.00  0.00    +0.059 C 
ATOM      6  C   UNL     1      -1.891  -7.852   4.207  0.00  0.00    -0.065 C 
ATOM      7  H   UNL     1      -2.773  -6.365   3.127  0.00  0.00    -0.081 HD
ENDROOT
BRANCH   5   8
ATOM      8  C   UNL     1      -2.996  -9.972   4.871  0.00  0.00    +0.219 C 
ATOM      9  O   UNL     1      -2.236  -9.935   5.816  0.00  0.00    -0.275 OA
ATOM     10  N   UNL     1      -3.867 -10.993   4.747  0.00  0.00    -0.285 N 
ATOM     11  H   UNL     1      -4.512 -10.995   4.022  0.00  0.00    +0.155 HD
BRANCH  10  12
ATOM     12  C   UNL     1      -3.843 -12.049   5.664  0.00  0.00    +0.040 A 
ATOM     13  C   UNL     1      -2.654 -12.720   5.921  0.00  0.00    -0.029 A 
ATOM     14  C   UNL     1      -2.633 -13.762   6.827  0.00  0.00    +0.005 A 
ATOM     15  C   UNL     1      -3.795 -14.139   7.478  0.00  0.00    +0.001 A 
ATOM     16  C   UNL     1      -4.979 -13.473   7.223  0.00  0.00    +0.006 A 
ATOM     17  C   UNL     1      -5.006 -12.425   6.324  0.00  0.00    -0.023 A 
ATOM     18  C   UNL     1      -1.389 -12.311   5.213  0.00  0.00    +0.045 C 
BRANCH  17  19
ATOM     19  C   UNL     1      -6.296 -11.696   6.053  0.00  0.00    +0.015 C 
ATOM     20  C   UNL     1      -7.335 -12.680   5.512  0.00  0.00    +0.012 C 
ATOM     21  C   UNL     1      -6.812 -11.073   7.351  0.00  0.00    +0.012 C 
ENDBRANCH  17  19
ENDBRANCH  10  12
ENDBRANCH   5   8
BRANCH   1  22
ATOM     22  C   UNL     1      -0.882  -5.765   3.600  0.00  0.00    +0.022 C 
BRANCH  22  25
ATOM     23  C   UNL     1      -1.488  -2.730   1.703  0.00  0.00    +0.202 A 
ATOM     24  N   UNL     1      -1.696  -3.560   2.741  0.00  0.00    -0.193 NA
ATOM     25  C   UNL     1      -0.935  -4.611   2.632  0.00  0.00    +0.211 A 
ATOM     26  O   UNL     1      -0.207  -4.493   1.514  0.00  0.00    -0.340 OA
ATOM     27  N   UNL     1      -0.584  -3.261   0.917  0.00  0.00    -0.056 NA
BRANCH  23  32
ATOM     28  C   UNL     1      -4.146   2.307   0.843  0.00  0.00    +0.044 C 
ATOM     29  C   UNL     1      -3.450   0.989   1.068  0.00  0.00    -0.050 A 
ATOM     30  C   UNL     1      -2.510   0.541   0.158  0.00  0.00    +0.004 A 
ATOM     31  C   UNL     1      -1.870  -0.665   0.359  0.00  0.00    +0.012 A 
ATOM     32  C   UNL     1      -2.173  -1.432   1.482  0.00  0.00    +0.022 A 
ATOM     33  C   UNL     1      -3.120  -0.976   2.396  0.00  0.00    +0.012 A 
ATOM     34  C   UNL     1      -3.750   0.234   2.188  0.00  0.00    +0.004 A 
ENDBRANCH  23  32
ENDBRANCH  22  25
ENDBRANCH   1  22
TORSDOF 6
