REMARK  Name = ZINC00811157
REMARK  3 active torsions:
REMARK  status: ('A' for Active; 'I' for Inactive)
REMARK    1  A    between atoms: C_6  and  N_7
REMARK    2  A    between atoms: C_12  and  N_46
REMARK    3  A    between atoms: N_17  and  C_20
REMARK                            x       y       z     vdW  Elec       q    Type
REMARK                         _______ _______ _______ _____ _____    ______ ____
ROOT
ATOM      1  C   UNL     1      -0.144   1.372  -2.259  0.00  0.00    +0.029 C 
ATOM      2  C   UNL     1       1.297   1.407  -2.806  0.00  0.00    +0.090 C 
ATOM      3  C   UNL     1       1.134   1.973  -4.200  0.00  0.00    +0.225 C 
ATOM      4  O   UNL     1       2.034   2.171  -4.987  0.00  0.00    -0.275 OA
ATOM      5  N   UNL     1      -0.162   2.223  -4.424  0.00  0.00    -0.212 N 
ATOM      6  C   UNL     1      -0.971   1.923  -3.401  0.00  0.00    +0.213 C 
ATOM      7  O   UNL     1      -2.174   2.069  -3.390  0.00  0.00    -0.277 OA
ENDROOT
BRANCH   1  13
ATOM      8  N   UNL     1       0.710   3.868   1.040  0.00  0.00    -0.333 N 
ATOM      9  C   UNL     1       0.208   2.514   1.313  0.00  0.00    +0.086 C 
ATOM     10  C   UNL     1       0.426   1.634   0.080  0.00  0.00    -0.059 C 
ATOM     11  C   UNL     1       0.236   3.582  -1.344  0.00  0.00    -0.059 C 
ATOM     12  C   UNL     1       0.017   4.462  -0.111  0.00  0.00    +0.086 C 
ATOM     13  N   UNL     1      -0.294   2.230  -1.065  0.00  0.00    +0.390 N 
ATOM     14  H   UNL     1      -1.291   2.305  -0.830  0.00  0.00    -0.081 HD
BRANCH   8  20
ATOM     15  C   UNL     1      -0.106   5.881   2.095  0.00  0.00    +0.026 A 
ATOM     16  C   UNL     1      -0.224   6.682   3.214  0.00  0.00    +0.040 A 
ATOM     17  C   UNL     1       0.362   6.297   4.407  0.00  0.00    +0.124 A 
ATOM     18  C   UNL     1       1.064   5.106   4.484  0.00  0.00    +0.040 A 
ATOM     19  C   UNL     1       1.181   4.299   3.369  0.00  0.00    +0.026 A 
ATOM     20  C   UNL     1       0.593   4.683   2.171  0.00  0.00    +0.030 A 
ATOM     21  F   UNL     1       0.249   7.085   5.499  0.00  0.00    -0.205 F 
ENDBRANCH   8  20
ENDBRANCH   1  13
BRANCH   5  22
ATOM     22  C   UNL     1      -0.634   2.756  -5.633  0.00  0.00    +0.044 A 
ATOM     23  C   UNL     1      -1.168   1.917  -6.601  0.00  0.00    +0.025 A 
ATOM     24  C   UNL     1      -1.635   2.444  -7.789  0.00  0.00    +0.016 A 
ATOM     25  C   UNL     1      -1.564   3.807  -8.017  0.00  0.00    +0.013 A 
ATOM     26  C   UNL     1      -1.028   4.645  -7.056  0.00  0.00    +0.016 A 
ATOM     27  C   UNL     1      -0.563   4.123  -5.865  0.00  0.00    +0.025 A 
ATOM     28  I   UNL     1      -2.268   4.602  -9.823  0.00  0.00    -0.044 I 
ENDBRANCH   5  22
TORSDOF 3
