REMARK  Name = ZINC02639636
REMARK  9 active torsions:
REMARK  status: ('A' for Active; 'I' for Inactive)
REMARK    1  A    between atoms: C_3  and  C_28
REMARK    2  A    between atoms: C_5  and  S_7
REMARK    3  A    between atoms: S_7  and  N_10
REMARK    4  A    between atoms: C_15  and  C_16
REMARK    5  A    between atoms: C_15  and  N_53
REMARK    6  A    between atoms: C_16  and  C_18
REMARK    7  A    between atoms: C_16  and  O_27
REMARK    8  A    between atoms: C_18  and  O_19
REMARK    9  A    between atoms: O_19  and  C_20
REMARK                            x       y       z     vdW  Elec       q    Type
REMARK                         _______ _______ _______ _____ _____    ______ ____
ROOT
ATOM      1  N   UNL     1       0.760   4.438   4.979  0.00  0.00    -0.180 NA
ATOM      2  C   UNL     1       2.049   4.810   4.377  0.00  0.00    +0.091 C 
ATOM      3  C   UNL     1       1.801   5.943   3.368  0.00  0.00    -0.061 C 
ATOM      4  C   UNL     1      -0.238   6.610   4.500  0.00  0.00    -0.061 C 
ATOM      5  C   UNL     1      -0.076   5.505   5.550  0.00  0.00    +0.091 C 
ATOM      6  N   UNL     1       1.105   7.049   4.061  0.00  0.00    +0.383 N 
ATOM      7  H   UNL     1       1.651   7.321   4.887  0.00  0.00    -0.082 HD
ENDROOT
BRANCH   1   8
ATOM      8  S   UNL     1       0.266   2.858   5.020  0.00  0.00    +0.061 S 
ATOM      9  O   UNL     1      -0.653   2.747   6.098  0.00  0.00    -0.153 OA
ATOM     10  O   UNL     1       1.441   2.063   4.936  0.00  0.00    -0.153 OA
BRANCH   8  15
ATOM     11  C   UNL     1      -2.735   2.540   2.366  0.00  0.00    +0.002 A 
ATOM     12  C   UNL     1      -2.087   2.098   1.228  0.00  0.00    +0.012 A 
ATOM     13  C   UNL     1      -0.722   1.881   1.250  0.00  0.00    +0.057 A 
ATOM     14  C   UNL     1      -0.003   2.115   2.407  0.00  0.00    +0.041 A 
ATOM     15  C   UNL     1      -0.650   2.560   3.544  0.00  0.00    +0.106 A 
ATOM     16  C   UNL     1      -2.016   2.773   3.524  0.00  0.00    +0.028 A 
BRANCH  13  17
ATOM     17  C   UNL     1      -0.017   1.395   0.010  0.00  0.00    +0.417 C 
ATOM     18  F   UNL     1       0.002  -0.004   0.002  0.00  0.00    -0.166 F 
ATOM     19  F   UNL     1       1.296   1.879  -0.000  0.00  0.00    -0.166 F 
ATOM     20  F   UNL     1      -0.694   1.858  -1.124  0.00  0.00    -0.166 F 
ENDBRANCH  13  17
ENDBRANCH   8  15
ENDBRANCH   1   8
BRANCH   6  21
ATOM     21  C   UNL     1       0.985   8.213   3.160  0.00  0.00    -0.044 C 
BRANCH  21  22
ATOM     22  C   UNL     1       2.340   8.480   2.503  0.00  0.00    +0.135 C 
BRANCH  22  23
ATOM     23  O   UNL     1       3.320   8.726   3.514  0.00  0.00    -0.390 OA
ATOM     24  H   UNL     1       3.121   9.487   4.077  0.00  0.00    +0.210 HD
ENDBRANCH  22  23
BRANCH  22  25
ATOM     25  C   UNL     1       2.233   9.702   1.589  0.00  0.00    +0.258 C 
BRANCH  25  26
ATOM     26  O   UNL     1       3.464   9.882   0.886  0.00  0.00    -0.489 OA
BRANCH  26  27
ATOM     27  C   UNL     1       3.536  10.931   0.026  0.00  0.00    +0.122 A 
ATOM     28  C   UNL     1       4.703  11.165  -0.689  0.00  0.00    +0.046 A 
ATOM     29  C   UNL     1       4.774  12.232  -1.563  0.00  0.00    +0.005 A 
ATOM     30  C   UNL     1       3.684  13.067  -1.727  0.00  0.00    +0.015 A 
ATOM     31  C   UNL     1       2.520  12.837  -1.015  0.00  0.00    +0.021 A 
ATOM     32  C   UNL     1       2.443  11.767  -0.143  0.00  0.00    +0.061 A 
ATOM     33 BR   UNL     1       1.032  13.982  -1.242  0.00  0.00    -0.050 Br
ENDBRANCH  26  27
ENDBRANCH  25  26
ENDBRANCH  22  25
ENDBRANCH  21  22
ENDBRANCH   6  21
TORSDOF 9
