REMARK  Name = ZINC13251290
REMARK  13 active torsions:
REMARK  status: ('A' for Active; 'I' for Inactive)
REMARK    1  A    between atoms: C_1  and  C_2
REMARK    2  A    between atoms: C_2  and  O_3
REMARK    3  A    between atoms: O_3  and  C_4
REMARK    4  A    between atoms: C_7  and  N_10
REMARK    5  A    between atoms: N_10  and  S_11
REMARK    6  A    between atoms: S_11  and  C_14
REMARK    7  A    between atoms: C_16  and  N_21
REMARK    8  A    between atoms: C_19  and  C_20
REMARK    9  A    between atoms: C_22  and  C_24
REMARK   10  A    between atoms: C_24  and  C_25
REMARK   11  A    between atoms: C_25  and  C_26
REMARK   12  A    between atoms: C_25  and  C_27
REMARK   13  A    between atoms: C_25  and  C_33
REMARK                            x       y       z     vdW  Elec       q    Type
REMARK                         _______ _______ _______ _____ _____    ______ ____
ROOT
ATOM      1  C   UNL     1       1.019   1.500   0.254  0.00  0.00    +0.113 A 
ATOM      2  C   UNL     1      -0.115   0.741   0.467  0.00  0.00    +0.052 A 
ATOM      3  C   UNL     1      -1.369   1.287   0.230  0.00  0.00    +0.035 A 
ATOM      4  C   UNL     1      -1.480   2.599  -0.211  0.00  0.00    +0.023 A 
ATOM      5  C   UNL     1      -0.343   3.354  -0.421  0.00  0.00    +0.007 A 
ATOM      6  C   UNL     1       0.905   2.805  -0.189  0.00  0.00    -0.024 A 
ATOM      7  C   UNL     1       2.145   3.631  -0.420  0.00  0.00    +0.046 C 
ENDROOT
BRANCH   3   8
ATOM      8  N   UNL     1      -2.520   0.518   0.440  0.00  0.00    -0.285 N 
ATOM      9  C   UNL     1      -3.650   1.104   0.882  0.00  0.00    +0.219 C 
ATOM     10  O   UNL     1      -3.645   2.277   1.189  0.00  0.00    -0.275 OA
ATOM     11  H   UNL     1      -2.503  -0.436   0.267  0.00  0.00    +0.155 HD
BRANCH   9  12
ATOM     12  C   UNL     1      -4.920   0.300   0.995  0.00  0.00    +0.118 C 
BRANCH  12  13
ATOM     13  C   UNL     1      -6.045   1.196   1.517  0.00  0.00    +0.102 C 
ATOM     14  C   UNL     1      -5.664   1.744   2.894  0.00  0.00    +0.028 C 
BRANCH  13  15
ATOM     15  C   UNL     1      -7.315   0.393   1.631  0.00  0.00    -0.030 A 
ATOM     16  C   UNL     1      -7.322  -0.943   1.275  0.00  0.00    +0.005 A 
ATOM     17  C   UNL     1      -8.486  -1.681   1.383  0.00  0.00    +0.000 A 
ATOM     18  C   UNL     1      -9.645  -1.081   1.838  0.00  0.00    +0.000 A 
ATOM     19  C   UNL     1      -9.640   0.257   2.188  0.00  0.00    +0.000 A 
ATOM     20  C   UNL     1      -8.475   0.993   2.084  0.00  0.00    +0.005 A 
ENDBRANCH  13  15
BRANCH  13  21
ATOM     21  C   UNL     1      -6.259   2.342   0.562  0.00  0.00    +0.366 C 
ATOM     22  O   UNL     1      -6.121   3.480   0.944  0.00  0.00    -0.245 OA
ATOM     23  O   UNL     1      -6.604   2.099  -0.712  0.00  0.00    -0.245 OA
ENDBRANCH  13  21
ENDBRANCH  12  13
ENDBRANCH   9  12
ENDBRANCH   3   8
BRANCH   1  24
ATOM     24  S   UNL     1       2.611   0.806   0.548  0.00  0.00    +0.073 S 
ATOM     25  O   UNL     1       2.397  -0.512   1.033  0.00  0.00    -0.150 OA
ATOM     26  O   UNL     1       3.391   1.075  -0.609  0.00  0.00    -0.150 OA
BRANCH  24  27
ATOM     27  N   UNL     1       3.297   1.661   1.790  0.00  0.00    -0.216 N 
ATOM     28  H   UNL     1       4.077   2.214   1.626  0.00  0.00    +0.174 HD
BRANCH  27  32
ATOM     29  C   UNL     1       1.670   1.438   5.621  0.00  0.00    +0.121 A 
ATOM     30  C   UNL     1       3.041   1.327   5.443  0.00  0.00    +0.047 A 
ATOM     31  C   UNL     1       3.581   1.401   4.174  0.00  0.00    +0.028 A 
ATOM     32  C   UNL     1       2.751   1.586   3.076  0.00  0.00    +0.048 A 
ATOM     33  C   UNL     1       1.379   1.703   3.256  0.00  0.00    +0.028 A 
ATOM     34  C   UNL     1       0.840   1.623   4.525  0.00  0.00    +0.047 A 
BRANCH  29  35
ATOM     35  O   UNL     1       1.139   1.366   6.871  0.00  0.00    -0.492 OA
BRANCH  35  37
ATOM     36  C   UNL     1      -0.689   1.383   8.452  0.00  0.00    +0.048 C 
ATOM     37  C   UNL     1      -0.280   1.489   6.981  0.00  0.00    +0.225 C 
ENDBRANCH  35  37
ENDBRANCH  29  35
ENDBRANCH  27  32
ENDBRANCH  24  27
ENDBRANCH   1  24
TORSDOF 10
