REMARK  Name = ZINC16689704
REMARK  10 active torsions:
REMARK  status: ('A' for Active; 'I' for Inactive)
REMARK    1  A    between atoms: C_1  and  C_2
REMARK    2  A    between atoms: C_5  and  S_8
REMARK    3  A    between atoms: S_8  and  C_11
REMARK    4  A    between atoms: C_11  and  C_13
REMARK    5  A    between atoms: C_11  and  C_27
REMARK    6  A    between atoms: C_13  and  N_14
REMARK    7  A    between atoms: N_14  and  S_15
REMARK    8  A    between atoms: S_15  and  C_18
REMARK    9  A    between atoms: C_23  and  O_24
REMARK   10  A    between atoms: O_24  and  C_25
REMARK                            x       y       z     vdW  Elec       q    Type
REMARK                         _______ _______ _______ _____ _____    ______ ____
ROOT
ATOM      1  C   UNL     1       0.002  -0.004   0.002  0.00  0.00    +0.188 C 
ENDROOT
BRANCH   1   2
ATOM      2  C   UNL     1       0.813  -0.489  -1.172  0.00  0.00    +0.015 A 
ATOM      3  C   UNL     1       1.931  -1.255  -1.179  0.00  0.00    +0.013 A 
ATOM      4  C   UNL     1       2.512  -1.581  -2.390  0.00  0.00    +0.008 A 
ATOM      5  C   UNL     1       1.946  -1.126  -3.535  0.00  0.00    +0.045 A 
ATOM      6  S   UNL     1       0.544  -0.210  -2.915  0.00  0.00    -0.100 S 
ENDBRANCH   1   2
BRANCH   1   7
ATOM      7  S   UNL     1      -0.022   1.810   0.012  0.00  0.00    +0.006 S 
ATOM      8  O   UNL     1      -0.546   2.299  -1.215  0.00  0.00    -0.169 OA
ATOM      9  O   UNL     1      -0.523   2.286   1.254  0.00  0.00    -0.169 OA
BRANCH   7  14
ATOM     10  C   UNL     1       5.787   3.439  -0.035  0.00  0.00    +0.044 C 
ATOM     11  C   UNL     1       4.336   3.033  -0.023  0.00  0.00    -0.050 A 
ATOM     12  C   UNL     1       3.659   2.852  -1.215  0.00  0.00    +0.005 A 
ATOM     13  C   UNL     1       2.328   2.479  -1.204  0.00  0.00    +0.027 A 
ATOM     14  C   UNL     1       1.674   2.286  -0.002  0.00  0.00    +0.089 A 
ATOM     15  C   UNL     1       2.349   2.471   1.190  0.00  0.00    +0.027 A 
ATOM     16  C   UNL     1       3.681   2.841   1.179  0.00  0.00    +0.005 A 
ENDBRANCH   7  14
ENDBRANCH   1   7
BRANCH   1  17
ATOM     17  C   UNL     1      -1.429  -0.533  -0.113  0.00  0.00    +0.137 C 
BRANCH  17  18
ATOM     18  N   UNL     1      -2.217  -0.061   1.029  0.00  0.00    -0.188 NA
ATOM     19  H   UNL     1      -1.771   0.307   1.807  0.00  0.00    +0.148 HD
BRANCH  18  20
ATOM     20  S   UNL     1      -3.870  -0.158   0.990  0.00  0.00    +0.062 S 
ATOM     21  O   UNL     1      -4.335   0.346   2.235  0.00  0.00    -0.153 OA
ATOM     22  O   UNL     1      -4.280   0.392  -0.255  0.00  0.00    -0.153 OA
BRANCH  20  23
ATOM     23  C   UNL     1      -4.291  -1.868   0.949  0.00  0.00    +0.149 A 
ATOM     24  C   UNL     1      -4.971  -2.438   2.008  0.00  0.00    +0.070 A 
ATOM     25  C   UNL     1      -5.304  -3.781   1.976  0.00  0.00    +0.125 A 
ATOM     26  C   UNL     1      -4.955  -4.556   0.883  0.00  0.00    +0.042 A 
ATOM     27  C   UNL     1      -4.274  -3.989  -0.177  0.00  0.00    +0.050 A 
ATOM     28  C   UNL     1      -3.945  -2.642  -0.149  0.00  0.00    +0.147 A 
ATOM     29  F   UNL     1      -5.969  -4.337   3.012  0.00  0.00    -0.205 F 
BRANCH  28  30
ATOM     30  O   UNL     1      -3.281  -2.081  -1.194  0.00  0.00    -0.493 OA
ATOM     31  C   UNL     1      -2.957  -2.937  -2.291  0.00  0.00    +0.277 C 
ENDBRANCH  28  30
ENDBRANCH  20  23
ENDBRANCH  18  20
ENDBRANCH  17  18
ENDBRANCH   1  17
TORSDOF 8
