REMARK  Name = ZINC59062613
REMARK  14 active torsions:
REMARK  status: ('A' for Active; 'I' for Inactive)
REMARK    1  A    between atoms: C_1  and  C_2
REMARK    2  A    between atoms: C_2  and  C_3
REMARK    3  A    between atoms: C_8  and  N_9
REMARK    4  A    between atoms: N_9  and  C_10
REMARK    5  A    between atoms: C_10  and  N_12
REMARK    6  A    between atoms: N_12  and  C_13
REMARK    7  A    between atoms: N_12  and  C_23
REMARK    8  A    between atoms: C_13  and  C_14
REMARK    9  A    between atoms: C_17  and  C_20
REMARK   10  A    between atoms: C_20  and  C_21
REMARK   11  A    between atoms: C_20  and  C_22
REMARK   12  A    between atoms: C_23  and  C_24
REMARK   13  A    between atoms: C_27  and  O_30
REMARK   14  A    between atoms: O_30  and  C_31
REMARK                            x       y       z     vdW  Elec       q    Type
REMARK                         _______ _______ _______ _____ _____    ______ ____
ROOT
ATOM      1  N   UNL     1       4.864  -0.245   1.037  0.00  0.00    -0.304 N 
ENDROOT
BRANCH   1   2
ATOM      2  C   UNL     1       4.165  -0.474  -0.092  0.00  0.00    +0.138 C 
ATOM      3  S   UNL     1       4.968  -1.026  -1.499  0.00  0.00    -0.018 S 
BRANCH   2   4
ATOM      4  N   UNL     1       2.833  -0.268  -0.113  0.00  0.00    -0.297 N 
ATOM      5  H   UNL     1       2.390   0.120   0.657  0.00  0.00    +0.154 HD
BRANCH   4  11
ATOM      6  C   UNL     1       1.126   0.256  -1.739  0.00  0.00    -0.026 A 
ATOM      7  C   UNL     1       0.398  -0.086  -2.862  0.00  0.00    +0.005 A 
ATOM      8  C   UNL     1       0.625  -1.295  -3.493  0.00  0.00    +0.000 A 
ATOM      9  C   UNL     1       1.580  -2.166  -3.002  0.00  0.00    +0.002 A 
ATOM     10  C   UNL     1       2.311  -1.830  -1.879  0.00  0.00    +0.023 A 
ATOM     11  C   UNL     1       2.090  -0.614  -1.247  0.00  0.00    +0.036 A 
BRANCH   6  13
ATOM     12  C   UNL     1       1.872   2.615  -1.572  0.00  0.00    +0.009 C 
ATOM     13  C   UNL     1       0.878   1.575  -1.052  0.00  0.00    +0.033 C 
ENDBRANCH   6  13
ENDBRANCH   4  11
ENDBRANCH   2   4
ENDBRANCH   1   2
BRANCH   1  14
ATOM     14  C   UNL     1       6.311  -0.469   1.061  0.00  0.00    +0.142 C 
BRANCH  14  15
ATOM     15  C   UNL     1       7.022   0.799   0.663  0.00  0.00    -0.030 A 
ATOM     16  C   UNL     1       7.309   1.043  -0.667  0.00  0.00    +0.005 A 
ATOM     17  C   UNL     1       7.961   2.206  -1.032  0.00  0.00    +0.004 A 
ATOM     18  C   UNL     1       8.326   3.125  -0.067  0.00  0.00    -0.045 A 
ATOM     19  C   UNL     1       8.039   2.882   1.263  0.00  0.00    +0.004 A 
ATOM     20  C   UNL     1       7.383   1.721   1.628  0.00  0.00    +0.005 A 
BRANCH  18  21
ATOM     21  C   UNL     1       9.038   4.393  -0.464  0.00  0.00    +0.013 C 
ATOM     22  C   UNL     1       8.202   5.602  -0.040  0.00  0.00    +0.012 C 
ATOM     23  C   UNL     1      10.403   4.449   0.226  0.00  0.00    +0.012 C 
ENDBRANCH  18  21
ENDBRANCH  14  15
ENDBRANCH   1  14
BRANCH   1  24
ATOM     24  C   UNL     1       4.176   0.228   2.241  0.00  0.00    +0.142 C 
BRANCH  24  25
ATOM     25  C   UNL     1       3.726  -0.954   3.060  0.00  0.00    -0.030 A 
ATOM     26  C   UNL     1       2.480  -1.511   2.841  0.00  0.00    +0.009 A 
ATOM     27  C   UNL     1       2.064  -2.595   3.590  0.00  0.00    +0.046 A 
ATOM     28  C   UNL     1       2.899  -3.125   4.563  0.00  0.00    +0.120 A 
ATOM     29  C   UNL     1       4.150  -2.564   4.781  0.00  0.00    +0.046 A 
ATOM     30  C   UNL     1       4.562  -1.484   4.025  0.00  0.00    +0.009 A 
BRANCH  28  31
ATOM     31  O   UNL     1       2.493  -4.191   5.302  0.00  0.00    -0.495 OA
ATOM     32  C   UNL     1       3.404  -4.683   6.286  0.00  0.00    +0.277 C 
ENDBRANCH  28  31
ENDBRANCH  24  25
ENDBRANCH   1  24
TORSDOF 10
