REMARK  Name = ZINC09427455
REMARK  5 active torsions:
REMARK  status: ('A' for Active; 'I' for Inactive)
REMARK    1  A    between atoms: C_1  and  O_2
REMARK    2  A    between atoms: O_2  and  C_3
REMARK    3  A    between atoms: C_6  and  N_9
REMARK    4  A    between atoms: C_24  and  C_30
REMARK    5  A    between atoms: C_30  and  C_32
REMARK                            x       y       z     vdW  Elec       q    Type
REMARK                         _______ _______ _______ _____ _____    ______ ____
ROOT
ATOM      1  N   UNL     1      -3.428   4.210  -1.815  0.00  0.00    -0.210 N 
ATOM      2  C   UNL     1      -2.640   4.677  -0.834  0.00  0.00    +0.232 C 
ATOM      3  O   UNL     1      -1.926   5.655  -0.901  0.00  0.00    -0.274 OA
ATOM      4  C   UNL     1      -2.795   3.774   0.371  0.00  0.00    +0.113 C 
ATOM      5  C   UNL     1      -1.432   3.352   0.913  0.00  0.00    +0.100 C 
ATOM      6  C   UNL     1      -0.382   4.404   0.668  0.00  0.00    -0.021 A 
ATOM      7  C   UNL     1      -0.697   5.743   0.682  0.00  0.00    +0.006 A 
ATOM      8  C   UNL     1       0.288   6.687   0.447  0.00  0.00    +0.000 A 
ATOM      9  C   UNL     1       1.590   6.290   0.198  0.00  0.00    +0.001 A 
ATOM     10  C   UNL     1       1.919   4.950   0.183  0.00  0.00    +0.008 A 
ATOM     11  C   UNL     1       0.933   3.991   0.420  0.00  0.00    -0.019 A 
ATOM     12  C   UNL     1       1.274   2.554   0.409  0.00  0.00    +0.022 C 
ATOM     13  C   UNL     1       0.290   1.642   0.281  0.00  0.00    +0.054 C 
ATOM     14  C   UNL     1      -2.116   1.666  -0.649  0.00  0.00    +0.141 C 
ATOM     15  C   UNL     1      -3.372   2.475  -0.270  0.00  0.00    +0.116 C 
ATOM     16  C   UNL     1      -3.987   3.019  -1.550  0.00  0.00    +0.232 C 
ATOM     17  O   UNL     1      -4.837   2.470  -2.218  0.00  0.00    -0.274 OA
ATOM     18  N   UNL     1      -1.173   2.008   0.469  0.00  0.00    -0.384 NA
ATOM     19  H   UNL     1      -1.471   1.415   1.252  0.00  0.00    +0.127 HD
ENDROOT
BRANCH   1  23
ATOM     20  C   UNL     1      -4.083   6.280  -5.377  0.00  0.00    +0.120 A 
ATOM     21  C   UNL     1      -5.126   6.095  -4.481  0.00  0.00    +0.047 A 
ATOM     22  C   UNL     1      -4.909   5.410  -3.302  0.00  0.00    +0.027 A 
ATOM     23  C   UNL     1      -3.648   4.906  -3.014  0.00  0.00    +0.044 A 
ATOM     24  C   UNL     1      -2.604   5.095  -3.909  0.00  0.00    +0.027 A 
ATOM     25  C   UNL     1      -2.823   5.777  -5.090  0.00  0.00    +0.047 A 
BRANCH  20  27
ATOM     26  C   UNL     1      -3.178   7.109  -7.414  0.00  0.00    +0.277 C 
ATOM     27  O   UNL     1      -4.296   6.956  -6.537  0.00  0.00    -0.495 OA
ENDBRANCH  20  27
ENDBRANCH   1  23
BRANCH  14  28
ATOM     28  C   UNL     1      -1.795   1.874  -2.106  0.00  0.00    +0.183 C 
ATOM     29  O   UNL     1      -0.867   2.586  -2.427  0.00  0.00    -0.290 OA
BRANCH  28  30
ATOM     30  C   UNL     1      -2.606   1.213  -3.140  0.00  0.00    +0.019 A 
ATOM     31  C   UNL     1      -3.674   0.386  -2.773  0.00  0.00    +0.013 A 
ATOM     32  C   UNL     1      -4.432  -0.227  -3.747  0.00  0.00    +0.020 A 
ATOM     33  C   UNL     1      -4.134  -0.033  -5.086  0.00  0.00    +0.041 A 
ATOM     34  C   UNL     1      -3.076   0.781  -5.457  0.00  0.00    +0.020 A 
ATOM     35  C   UNL     1      -2.311   1.404  -4.494  0.00  0.00    +0.013 A 
ATOM     36 CL   UNL     1      -5.091  -0.813  -6.306  0.00  0.00    -0.084 Cl
ENDBRANCH  28  30
ENDBRANCH  14  28
TORSDOF 4
