REMARK  Name = ZINC25130405
REMARK  9 active torsions:
REMARK  status: ('A' for Active; 'I' for Inactive)
REMARK    1  A    between atoms: C_1  and  C_2
REMARK    2  A    between atoms: C_3  and  C_30
REMARK    3  A    between atoms: C_4  and  C_29
REMARK    4  A    between atoms: C_7  and  C_8
REMARK    5  A    between atoms: N_10  and  C_11
REMARK    6  A    between atoms: C_16  and  N_17
REMARK    7  A    between atoms: N_17  and  S_18
REMARK    8  A    between atoms: S_18  and  C_21
REMARK    9  A    between atoms: C_30  and  C_32
REMARK                            x       y       z     vdW  Elec       q    Type
REMARK                         _______ _______ _______ _____ _____    ______ ____
ROOT
ATOM      1  C   UNL     1       1.358   1.769  -0.162  0.00  0.00    +0.060 A 
ATOM      2  C   UNL     1       1.425   3.145  -0.328  0.00  0.00    +0.045 A 
ATOM      3  C   UNL     1       2.654   3.780  -0.340  0.00  0.00    +0.043 A 
ATOM      4  C   UNL     1       3.818   3.048  -0.186  0.00  0.00    +0.022 A 
ATOM      5  C   UNL     1       3.759   1.677  -0.020  0.00  0.00    +0.030 A 
ATOM      6  C   UNL     1       2.531   1.032  -0.001  0.00  0.00    +0.096 A 
ATOM      7 CL   UNL     1       2.735   5.502  -0.548  0.00  0.00    -0.083 Cl
ENDROOT
BRANCH   1  10
ATOM      8  C   UNL     1      -0.953   1.706  -0.730  0.00  0.00    +0.265 C 
ATOM      9  O   UNL     1      -0.819   2.748  -1.344  0.00  0.00    -0.268 OA
ATOM     10  N   UNL     1       0.116   1.123  -0.150  0.00  0.00    -0.279 N 
ATOM     11  H   UNL     1       0.011   0.140   0.333  0.00  0.00    +0.155 HD
BRANCH   8  18
ATOM     12  C   UNL     1      -3.587   2.835  -1.957  0.00  0.00    +0.047 C 
ATOM     13  C   UNL     1      -3.434   1.570  -1.153  0.00  0.00    -0.010 A 
ATOM     14  C   UNL     1      -4.462   0.660  -0.810  0.00  0.00    +0.041 A 
ATOM     15  C   UNL     1      -3.876  -0.352  -0.066  0.00  0.00    +0.024 A 
ATOM     16  N   UNL     1      -2.565  -0.090   0.044  0.00  0.00    -0.354 N 
ATOM     17  H   UNL     1      -1.912  -0.777   0.602  0.00  0.00    +0.166 HD
ATOM     18  C   UNL     1      -2.278   1.083  -0.620  0.00  0.00    +0.106 A 
ATOM     19  C   UNL     1      -4.590  -1.542   0.521  0.00  0.00    +0.064 C 
BRANCH  14  20
ATOM     20  C   UNL     1      -5.880   0.769  -1.169  0.00  0.00    +0.162 C 
ATOM     21  O   UNL     1      -6.302   0.198  -2.153  0.00  0.00    -0.292 OA
ATOM     22  C   UNL     1      -6.811   1.592  -0.318  0.00  0.00    +0.091 C 
ENDBRANCH  14  20
ENDBRANCH   8  18
ENDBRANCH   1  10
BRANCH   6  23
ATOM     23  N   UNL     1       2.470  -0.355   0.173  0.00  0.00    -0.096 NA
BRANCH  23  24
ATOM     24  S   UNL     1       2.935  -1.031   1.612  0.00  0.00    +0.094 S 
ATOM     25  O   UNL     1       2.756  -2.434   1.478  0.00  0.00    -0.148 OA
ATOM     26  O   UNL     1       4.188  -0.450   1.946  0.00  0.00    -0.148 OA
BRANCH  24  27
ATOM     27  C   UNL     1       1.787  -0.491   2.835  0.00  0.00    +0.145 A 
ATOM     28  C   UNL     1       0.960  -1.406   3.459  0.00  0.00    +0.032 A 
ATOM     29  C   UNL     1       0.064  -0.984   4.423  0.00  0.00    +0.002 A 
ATOM     30  C   UNL     1      -0.015   0.355   4.756  0.00  0.00    +0.003 A 
ATOM     31  C   UNL     1       0.807   1.273   4.130  0.00  0.00    +0.040 A 
ATOM     32  C   UNL     1       1.710   0.850   3.168  0.00  0.00    +0.150 A 
ATOM     33  F   UNL     1       2.514   1.747   2.555  0.00  0.00    -0.203 F 
ENDBRANCH  24  27
ENDBRANCH  23  24
ENDBRANCH   6  23
TORSDOF 6
