REMARK  Name = ZINC67168406
REMARK  11 active torsions:
REMARK  status: ('A' for Active; 'I' for Inactive)
REMARK    1  A    between atoms: C_1  and  C_2
REMARK    2  A    between atoms: C_2  and  C_3
REMARK    3  A    between atoms: C_3  and  C_5
REMARK    4  A    between atoms: C_3  and  O_19
REMARK    5  A    between atoms: N_7  and  C_8
REMARK    6  A    between atoms: C_11  and  N_15
REMARK    7  A    between atoms: C_16  and  C_18
REMARK    8  A    between atoms: O_19  and  C_20
REMARK    9  A    between atoms: C_25  and  C_26
REMARK   10  A    between atoms: C_26  and  C_27
REMARK   11  A    between atoms: C_26  and  C_28
REMARK                            x       y       z     vdW  Elec       q    Type
REMARK                         _______ _______ _______ _____ _____    ______ ____
ROOT
ATOM      1  C   UNL     1       0.863  -2.076  -1.150  0.00  0.00    +0.258 C 
ATOM      2  O   UNL     1       0.340  -2.841  -1.933  0.00  0.00    -0.271 OA
ATOM      3  N   UNL     1       1.687  -2.550  -0.195  0.00  0.00    -0.281 N 
ATOM      4  H   UNL     1       2.059  -1.946   0.468  0.00  0.00    +0.155 HD
ENDROOT
BRANCH   3   5
ATOM      5  C   UNL     1       2.008  -3.913  -0.158  0.00  0.00    +0.052 A 
ATOM      6  C   UNL     1       1.118  -4.850  -0.667  0.00  0.00    +0.026 A 
ATOM      7  C   UNL     1       1.433  -6.193  -0.631  0.00  0.00    +0.025 A 
ATOM      8  C   UNL     1       2.641  -6.609  -0.086  0.00  0.00    +0.035 A 
ATOM      9  C   UNL     1       3.532  -5.673   0.422  0.00  0.00    +0.045 A 
ATOM     10  C   UNL     1       3.219  -4.328   0.382  0.00  0.00    +0.064 A 
ATOM     11 CL   UNL     1       4.335  -3.158   1.012  0.00  0.00    -0.082 Cl
BRANCH   8  12
ATOM     12  N   UNL     1       2.961  -7.972  -0.050  0.00  0.00    -0.286 N 
ATOM     13  C   UNL     1       3.712  -8.461   0.956  0.00  0.00    +0.214 C 
ATOM     14  O   UNL     1       4.025  -7.745   1.883  0.00  0.00    -0.276 OA
ATOM     15  C   UNL     1       4.163  -9.899   0.929  0.00  0.00    +0.109 C 
ATOM     16  H   UNL     1       2.641  -8.564  -0.748  0.00  0.00    +0.155 HD
ENDBRANCH   8  12
ENDBRANCH   3   5
BRANCH   1  17
ATOM     17  C   UNL     1       0.592  -0.597  -1.246  0.00  0.00    +0.259 C 
BRANCH  17  19
ATOM     18  C   UNL     1      -0.316   1.388  -0.031  0.00  0.00    +0.008 C 
ATOM     19  C   UNL     1      -0.150  -0.133   0.009  0.00  0.00    +0.051 C 
ENDBRANCH  17  19
BRANCH  17  20
ATOM     20  O   UNL     1      -0.211  -0.334  -2.399  0.00  0.00    -0.479 OA
BRANCH  20  21
ATOM     21  C   UNL     1      -0.005   0.848  -3.037  0.00  0.00    +0.125 A 
ATOM     22  C   UNL     1       1.001   1.703  -2.610  0.00  0.00    +0.046 A 
ATOM     23  C   UNL     1       1.208   2.903  -3.260  0.00  0.00    +0.004 A 
ATOM     24  C   UNL     1       0.414   3.254  -4.337  0.00  0.00    +0.001 A 
ATOM     25  C   UNL     1      -0.589   2.405  -4.764  0.00  0.00    +0.007 A 
ATOM     26  C   UNL     1      -0.796   1.200  -4.120  0.00  0.00    -0.003 A 
BRANCH  26  27
ATOM     27  C   UNL     1      -1.886   0.271  -4.591  0.00  0.00    +0.016 C 
ATOM     28  C   UNL     1      -3.238   0.983  -4.499  0.00  0.00    +0.012 C 
ATOM     29  C   UNL     1      -1.621  -0.133  -6.043  0.00  0.00    +0.012 C 
ENDBRANCH  26  27
ENDBRANCH  20  21
ENDBRANCH  17  20
ENDBRANCH   1  17
TORSDOF 7
