REMARK  Name = ZINC03833877
REMARK  18 active torsions:
REMARK  status: ('A' for Active; 'I' for Inactive)
REMARK    1  A    between atoms: C_1  and  C_2
REMARK    2  A    between atoms: C_2  and  C_3
REMARK    3  A    between atoms: C_3  and  C_4
REMARK    4  A    between atoms: C_3  and  C_5
REMARK    5  A    between atoms: C_3  and  C_6
REMARK    6  A    between atoms: C_6  and  O_8
REMARK    7  A    between atoms: O_8  and  C_9
REMARK    8  A    between atoms: C_12  and  C_37
REMARK    9  A    between atoms: C_18  and  C_25
REMARK   10  A    between atoms: C_20  and  C_24
REMARK   11  A    between atoms: C_25  and  C_26
REMARK   12  A    between atoms: C_26  and  C_27
REMARK   13  A    between atoms: C_27  and  C_29
REMARK   14  A    between atoms: C_27  and  O_36
REMARK   15  A    between atoms: C_29  and  C_30
REMARK   16  A    between atoms: C_30  and  C_32
REMARK   17  A    between atoms: C_30  and  O_35
REMARK   18  A    between atoms: C_32  and  C_33
REMARK                            x       y       z     vdW  Elec       q    Type
REMARK                         _______ _______ _______ _____ _____    ______ ____
ROOT
ATOM      1  C   UNL     1      -0.897   7.409   6.039  0.00  0.00    +0.185 C 
ATOM      2  C   UNL     1       0.130   8.448   6.485  0.00  0.00    +0.052 C 
ATOM      3  C   UNL     1      -0.614   9.746   6.829  0.00  0.00    +0.012 C 
ATOM      4  C   UNL     1      -1.297  10.228   5.574  0.00  0.00    -0.020 C 
ATOM      5  C   UNL     1      -1.758   9.370   4.683  0.00  0.00    -0.044 C 
ATOM      6  C   UNL     1      -1.696   7.881   4.853  0.00  0.00    +0.063 C 
ATOM      7  C   UNL     1      -1.204   7.272   3.539  0.00  0.00    +0.007 C 
ATOM      8  C   UNL     1      -2.212   7.599   2.436  0.00  0.00    +0.012 C 
ATOM      9  C   UNL     1      -2.561   9.056   2.417  0.00  0.00    -0.023 C 
ATOM     10  C   UNL     1      -2.369   9.879   3.434  0.00  0.00    -0.000 C 
ATOM     11  C   UNL     1      -3.487   6.784   2.666  0.00  0.00    +0.012 C 
ATOM     12  C   UNL     1       0.380  10.802   7.317  0.00  0.00    +0.012 C 
ENDROOT
BRANCH   1  13
ATOM     13  O   UNL     1      -0.204   6.184   5.682  0.00  0.00    -0.460 OA
BRANCH  13  14
ATOM     14  C   UNL     1       0.107   5.346   6.683  0.00  0.00    +0.313 C 
ATOM     15  O   UNL     1      -0.096   5.671   7.828  0.00  0.00    -0.250 OA
BRANCH  14  16
ATOM     16  C   UNL     1       0.709   3.999   6.377  0.00  0.00    +0.062 C 
ATOM     17  C   UNL     1      -0.348   3.101   5.732  0.00  0.00    +0.022 C 
ATOM     18  C   UNL     1       1.886   4.172   5.415  0.00  0.00    +0.022 C 
BRANCH  16  20
ATOM     19  C   UNL     1       1.814   1.987   7.365  0.00  0.00    +0.005 C 
ATOM     20  C   UNL     1       1.202   3.354   7.675  0.00  0.00    +0.014 C 
ENDBRANCH  16  20
ENDBRANCH  14  16
ENDBRANCH  13  14
ENDBRANCH   1  13
BRANCH   7  21
ATOM     21  C   UNL     1      -1.084   5.754   3.690  0.00  0.00    +0.007 C 
BRANCH  21  22
ATOM     22  C   UNL     1      -1.131   5.098   2.309  0.00  0.00    +0.032 C 
BRANCH  22  23
ATOM     23  C   UNL     1      -1.045   3.578   2.462  0.00  0.00    +0.117 C 
BRANCH  23  24
ATOM     24  O   UNL     1      -2.205   3.102   3.147  0.00  0.00    -0.392 OA
ATOM     25  H   UNL     1      -3.037   3.296   2.693  0.00  0.00    +0.210 HD
ENDBRANCH  23  24
BRANCH  23  26
ATOM     26  C   UNL     1      -0.967   2.930   1.079  0.00  0.00    +0.063 C 
BRANCH  26  27
ATOM     27  C   UNL     1      -0.755   1.422   1.234  0.00  0.00    +0.128 C 
BRANCH  27  28
ATOM     28  O   UNL     1      -1.901   0.842   1.859  0.00  0.00    -0.391 OA
ATOM     29  H   UNL     1      -2.724   0.966   1.365  0.00  0.00    +0.210 HD
ENDBRANCH  27  28
BRANCH  27  30
ATOM     30  C   UNL     1      -0.552   0.791  -0.146  0.00  0.00    +0.156 C 
BRANCH  30  31
ATOM     31  C   UNL     1      -0.223  -0.670   0.014  0.00  0.00    +0.358 C 
ATOM     32  O   UNL     1      -0.156  -1.158   1.118  0.00  0.00    -0.246 OA
ATOM     33  O   UNL     1      -0.002  -1.431  -1.069  0.00  0.00    -0.246 OA
ENDBRANCH  30  31
ENDBRANCH  27  30
ENDBRANCH  26  27
ENDBRANCH  23  26
ENDBRANCH  22  23
ENDBRANCH  21  22
ENDBRANCH   7  21
TORSDOF 13
