REMARK  Name = ZINC01562327
REMARK  4 active torsions:
REMARK  status: ('A' for Active; 'I' for Inactive)
REMARK    1  A    between atoms: C_1  and  C_2
REMARK    2  A    between atoms: C_2  and  S_3
REMARK    3  A    between atoms: S_3  and  C_4
REMARK    4  A    between atoms: N_8  and  C_14
REMARK                            x       y       z     vdW  Elec       q    Type
REMARK                         _______ _______ _______ _____ _____    ______ ____
ROOT
ATOM      1  C   UNL     1       1.149  -0.676  -0.013  0.00  0.00    +0.112 A 
ATOM      2  C   UNL     1       2.354   0.054  -0.020  0.00  0.00    +0.070 A 
ATOM      3  C   UNL     1       3.722  -0.290  -0.035  0.00  0.00    +0.147 A 
ATOM      4  N   UNL     1       4.424   0.808  -0.036  0.00  0.00    -0.177 NA
ATOM      5  N   UNL     1       3.566   1.915  -0.022  0.00  0.00    -0.249 N 
ATOM      6  C   UNL     1       2.282   1.460  -0.012  0.00  0.00    +0.164 A 
ATOM      7  N   UNL     1       1.083   2.043   0.003  0.00  0.00    -0.198 NA
ATOM      8  C   UNL     1      -0.016   1.318   0.009  0.00  0.00    +0.226 A 
ATOM      9  N   UNL     1       0.002  -0.004   0.002  0.00  0.00    -0.210 NA
ATOM     10 CL   UNL     1      -1.550   2.131   0.021  0.00  0.00    -0.041 Cl
ATOM     11  C   UNL     1       3.979   3.321  -0.018  0.00  0.00    +0.174 C 
ENDROOT
BRANCH   1  12
ATOM     12  S   UNL     1       1.161  -2.438  -0.023  0.00  0.00    -0.105 S 
BRANCH  12  14
ATOM     13  C   UNL     1      -0.860  -4.277  -0.014  0.00  0.00    +0.015 C 
ATOM     14  C   UNL     1      -0.619  -2.766  -0.008  0.00  0.00    +0.072 C 
ENDBRANCH  12  14
ENDBRANCH   1  12
TORSDOF 2
