REMARK  Name = ZINC23703137
REMARK  8 active torsions:
REMARK  status: ('A' for Active; 'I' for Inactive)
REMARK    1  A    between atoms: C_1  and  O_2
REMARK    2  A    between atoms: O_2  and  C_3
REMARK    3  A    between atoms: C_6  and  S_9
REMARK    4  A    between atoms: S_9  and  N_12
REMARK    5  A    between atoms: N_15  and  C_18
REMARK    6  A    between atoms: C_18  and  C_19
REMARK    7  A    between atoms: N_21  and  C_22
REMARK    8  A    between atoms: C_23  and  C_29
REMARK                            x       y       z     vdW  Elec       q    Type
REMARK                         _______ _______ _______ _____ _____    ______ ____
ROOT
ATOM      1  N   UNL     1      -0.417   4.590  -1.414  0.00  0.00    -0.180 NA
ATOM      2  C   UNL     1      -0.849   3.256  -1.859  0.00  0.00    +0.091 C 
ATOM      3  C   UNL     1      -2.380   3.266  -1.997  0.00  0.00    -0.061 C 
ATOM      4  N   UNL     1      -2.779   4.373  -2.877  0.00  0.00    +0.387 N 
ATOM      5  C   UNL     1      -2.415   5.673  -2.296  0.00  0.00    -0.061 C 
ATOM      6  C   UNL     1      -0.890   5.761  -2.167  0.00  0.00    +0.091 C 
ATOM      7  H   UNL     1      -2.229   4.263  -3.823  0.00  0.00    -0.081 HD
ENDROOT
BRANCH   1   8
ATOM      8  S   UNL     1       0.582   4.767  -0.105  0.00  0.00    +0.061 S 
ATOM      9  O   UNL     1       1.284   3.540   0.039  0.00  0.00    -0.153 OA
ATOM     10  O   UNL     1       1.248   6.011  -0.269  0.00  0.00    -0.153 OA
BRANCH   8  14
ATOM     11  C   UNL     1      -2.060   5.183   3.549  0.00  0.00    +0.120 A 
ATOM     12  C   UNL     1      -1.637   3.928   3.136  0.00  0.00    +0.047 A 
ATOM     13  C   UNL     1      -0.831   3.804   2.021  0.00  0.00    +0.032 A 
ATOM     14  C   UNL     1      -0.446   4.929   1.316  0.00  0.00    +0.106 A 
ATOM     15  C   UNL     1      -0.861   6.182   1.729  0.00  0.00    +0.032 A 
ATOM     16  C   UNL     1      -1.672   6.311   2.840  0.00  0.00    +0.047 A 
BRANCH  11  18
ATOM     17  C   UNL     1      -3.251   6.631   5.011  0.00  0.00    +0.277 C 
ATOM     18  O   UNL     1      -2.854   5.308   4.645  0.00  0.00    -0.495 OA
ENDBRANCH  11  18
ENDBRANCH   8  14
ENDBRANCH   1   8
BRANCH   4  19
ATOM     19  C   UNL     1      -4.216   4.315  -3.177  0.00  0.00    +0.019 C 
BRANCH  19  20
ATOM     20  C   UNL     1      -5.001   4.394  -1.893  0.00  0.00    +0.201 C 
ATOM     21  O   UNL     1      -4.427   4.587  -0.842  0.00  0.00    -0.278 OA
ATOM     22  N   UNL     1      -6.341   4.249  -1.912  0.00  0.00    -0.285 N 
ATOM     23  H   UNL     1      -6.852   3.990  -2.851  0.00  0.00    +0.155 HD
BRANCH  22  24
ATOM     24  C   UNL     1      -7.081   4.428  -0.738  0.00  0.00    +0.064 A 
ATOM     25  C   UNL     1      -8.165   5.295  -0.725  0.00  0.00    +0.077 A 
ATOM     26  C   UNL     1      -8.897   5.466   0.434  0.00  0.00    +0.014 A 
ATOM     27  C   UNL     1      -8.545   4.783   1.584  0.00  0.00    +0.002 A 
ATOM     28  C   UNL     1      -7.463   3.922   1.576  0.00  0.00    +0.022 A 
ATOM     29  C   UNL     1      -6.729   3.742   0.418  0.00  0.00    +0.063 A 
ATOM     30 CL   UNL     1      -5.372   2.661   0.408  0.00  0.00    -0.082 Cl
BRANCH  25  31
ATOM     31  C   UNL     1      -8.546   6.046  -1.975  0.00  0.00    +0.419 C 
ATOM     32  F   UNL     1      -9.661   6.850  -1.714  0.00  0.00    -0.166 F 
ATOM     33  F   UNL     1      -7.475   6.850  -2.381  0.00  0.00    -0.166 F 
ATOM     34  F   UNL     1      -8.856   5.134  -2.990  0.00  0.00    -0.166 F 
ENDBRANCH  25  31
ENDBRANCH  22  24
ENDBRANCH  19  20
ENDBRANCH   4  19
TORSDOF 7
