REMARK  Name = ZINC13137185
REMARK  5 active torsions:
REMARK  status: ('A' for Active; 'I' for Inactive)
REMARK    1  A    between atoms: C_6  and  S_7
REMARK    2  A    between atoms: S_7  and  N_10
REMARK    3  A    between atoms: N_13  and  C_16
REMARK    4  A    between atoms: C_16  and  C_17
REMARK    5  A    between atoms: C_26  and  O_28
REMARK                            x       y       z     vdW  Elec       q    Type
REMARK                         _______ _______ _______ _____ _____    ______ ____
ROOT
ATOM      1  N   UNL     1      -0.080   1.535   0.247  0.00  0.00    -0.174 NA
ATOM      2  C   UNL     1      -1.358   2.264   0.272  0.00  0.00    +0.125 C 
ATOM      3  C   UNL     1      -1.266   3.360   1.346  0.00  0.00    +0.102 C 
ATOM      4  N   UNL     1      -0.082   4.191   1.090  0.00  0.00    -0.296 NA
ATOM      5  C   UNL     1       1.155   3.407   1.204  0.00  0.00    +0.102 C 
ATOM      6  C   UNL     1       1.163   2.313   0.131  0.00  0.00    +0.125 C 
ENDROOT
BRANCH   1   7
ATOM      7  S   UNL     1      -0.043  -0.118   0.340  0.00  0.00    +0.061 S 
ATOM      8  O   UNL     1      -1.308  -0.579  -0.113  0.00  0.00    -0.153 OA
ATOM      9  O   UNL     1       1.177  -0.531  -0.259  0.00  0.00    -0.153 OA
BRANCH   7  15
ATOM     10  C   UNL     1       1.302  -0.689   2.645  0.00  0.00    +0.030 A 
ATOM     11  C   UNL     1       1.388  -1.016   3.985  0.00  0.00    +0.022 A 
ATOM     12  C   UNL     1       0.235  -1.205   4.726  0.00  0.00    +0.041 A 
ATOM     13  C   UNL     1      -1.004  -1.062   4.125  0.00  0.00    +0.022 A 
ATOM     14  C   UNL     1      -1.088  -0.730   2.786  0.00  0.00    +0.030 A 
ATOM     15  C   UNL     1       0.065  -0.541   2.047  0.00  0.00    +0.106 A 
ATOM     16 CL   UNL     1       0.341  -1.622   6.408  0.00  0.00    -0.084 Cl
ENDBRANCH   7  15
ENDBRANCH   1   7
BRANCH   4  17
ATOM     17  C   UNL     1      -0.052   5.355   1.986  0.00  0.00    +0.120 C 
BRANCH  17  18
ATOM     18  C   UNL     1      -1.372   6.078   1.915  0.00  0.00    -0.016 A 
ATOM     19  C   UNL     1      -2.270   5.993   2.930  0.00  0.00    +0.097 A 
ATOM     20  C   UNL     1      -3.497   6.684   2.842  0.00  0.00    +0.338 A 
ATOM     21  O   UNL     1      -4.291   6.603   3.762  0.00  0.00    -0.245 OA
ATOM     22  O   UNL     1      -3.813   7.424   1.768  0.00  0.00    -0.422 OA
ATOM     23  C   UNL     1      -2.967   7.546   0.722  0.00  0.00    +0.143 A 
ATOM     24  C   UNL     1      -1.724   6.888   0.746  0.00  0.00    +0.024 A 
ATOM     25  C   UNL     1      -0.845   7.011  -0.336  0.00  0.00    +0.035 A 
ATOM     26  C   UNL     1      -1.198   7.772  -1.414  0.00  0.00    +0.083 A 
ATOM     27  C   UNL     1      -2.429   8.427  -1.442  0.00  0.00    +0.139 A 
ATOM     28  C   UNL     1      -3.311   8.314  -0.380  0.00  0.00    +0.093 A 
ATOM     29 CL   UNL     1      -0.108   7.925  -2.756  0.00  0.00    -0.080 Cl
BRANCH  27  30
ATOM     30  O   UNL     1      -2.766   9.180  -2.521  0.00  0.00    -0.505 OA
ATOM     31  H   UNL     1      -3.736   9.698  -2.548  0.00  0.00    +0.292 HD
ENDBRANCH  27  30
ENDBRANCH  17  18
ENDBRANCH   4  17
TORSDOF 5
