REMARK  Name = ZINC23353714
REMARK  4 active torsions:
REMARK  status: ('A' for Active; 'I' for Inactive)
REMARK    1  A    between atoms: C_1  and  N_2
REMARK    2  A    between atoms: C_5  and  C_7
REMARK    3  A    between atoms: C_15  and  N_19
REMARK    4  A    between atoms: N_22  and  C_25
REMARK                            x       y       z     vdW  Elec       q    Type
REMARK                         _______ _______ _______ _____ _____    ______ ____
ROOT
ATOM      1  C   UNL     1      -0.018   1.461   0.010  0.00  0.00    +0.172 C 
ATOM      2  N   UNL     1       0.002  -0.004   0.002  0.00  0.00    -0.270 N 
ATOM      3  C   UNL     1       0.007  -0.768  -1.103  0.00  0.00    +0.043 A 
ATOM      4  C   UNL     1       0.029  -2.061  -0.696  0.00  0.00    +0.007 A 
ATOM      5  C   UNL     1       0.034  -2.024   0.708  0.00  0.00    +0.151 A 
ATOM      6  N   UNL     1       0.023  -0.748   1.054  0.00  0.00    -0.166 NA
ATOM      7  C   UNL     1       0.047  -3.247  -1.621  0.00  0.00    +0.058 C 
ATOM      8  C   UNL     1       0.442  -2.760  -3.021  0.00  0.00    +0.061 C 
ATOM      9  C   UNL     1      -0.414  -1.550  -3.403  0.00  0.00    +0.025 C 
ATOM     10  C   UNL     1      -0.010  -0.342  -2.548  0.00  0.00    +0.057 C 
ENDROOT
BRANCH   5  11
ATOM     11  C   UNL     1       0.053  -3.185   1.621  0.00  0.00    +0.267 C 
ATOM     12  O   UNL     1       0.067  -4.314   1.169  0.00  0.00    -0.268 OA
ATOM     13  N   UNL     1       0.056  -2.994   2.955  0.00  0.00    -0.296 N 
ATOM     14  C   UNL     1       0.034  -1.689   3.634  0.00  0.00    +0.108 C 
ATOM     15  C   UNL     1       0.072  -1.962   5.152  0.00  0.00    +0.020 C 
ATOM     16  C   UNL     1       0.684  -3.385   5.234  0.00  0.00    +0.020 C 
ATOM     17  C   UNL     1       0.074  -4.057   3.976  0.00  0.00    +0.108 C 
ENDBRANCH   5  11
BRANCH   8  18
ATOM     18  N   UNL     1       0.225  -3.839  -3.994  0.00  0.00    -0.303 NA
ATOM     19  C   UNL     1       0.965  -5.050  -3.612  0.00  0.00    +0.066 C 
ATOM     20  C   UNL     1       0.666  -6.166  -4.615  0.00  0.00    -0.063 C 
ATOM     21  N   UNL     1       1.063  -5.733  -5.962  0.00  0.00    +0.384 N 
ATOM     22  C   UNL     1       0.297  -4.537  -6.339  0.00  0.00    -0.063 C 
ATOM     23  C   UNL     1       0.594  -3.408  -5.350  0.00  0.00    +0.066 C 
ATOM     24  H   UNL     1       2.048  -5.517  -5.968  0.00  0.00    -0.081 HD
BRANCH  21  25
ATOM     25  C   UNL     1       0.792  -6.811  -6.922  0.00  0.00    -0.062 C 
ATOM     26  C   UNL     1       1.590  -8.056  -6.530  0.00  0.00    -0.024 C 
ATOM     27  C   UNL     1       1.308  -9.179  -7.531  0.00  0.00    +0.005 C 
ATOM     28  C   UNL     1       1.722  -8.728  -8.933  0.00  0.00    -0.010 C 
ATOM     29  C   UNL     1       3.216  -8.399  -8.943  0.00  0.00    +0.007 C 
ATOM     30  C   UNL     1       3.498  -7.277  -7.943  0.00  0.00    -0.010 C 
ATOM     31  C   UNL     1       3.085  -7.727  -6.541  0.00  0.00    +0.005 C 
ATOM     32  C   UNL     1       2.699  -6.032  -8.335  0.00  0.00    +0.005 C 
ATOM     33  C   UNL     1       1.205  -6.360  -8.325  0.00  0.00    -0.024 C 
ATOM     34  C   UNL     1       0.923  -7.483  -9.325  0.00  0.00    +0.005 C 
ENDBRANCH  21  25
ENDBRANCH   8  18
TORSDOF 3
