REMARK  Name = ZINC22265280
REMARK  7 active torsions:
REMARK  status: ('A' for Active; 'I' for Inactive)
REMARK    1  A    between atoms: C_6  and  C_7
REMARK    2  A    between atoms: C_10  and  S_13
REMARK    3  A    between atoms: S_13  and  C_14
REMARK    4  A    between atoms: C_14  and  C_15
REMARK    5  A    between atoms: N_17  and  C_18
REMARK    6  A    between atoms: C_20  and  C_27
REMARK    7  A    between atoms: C_22  and  C_24
REMARK                            x       y       z     vdW  Elec       q    Type
REMARK                         _______ _______ _______ _____ _____    ______ ____
ROOT
ATOM      1  C   UNL     1      -6.106   2.868   0.150  0.00  0.00    +0.227 C 
ATOM      2  O   UNL     1      -5.065   3.490   0.148  0.00  0.00    -0.275 OA
ATOM      3  N   UNL     1      -6.089   1.524   0.041  0.00  0.00    -0.285 N 
ATOM      4  H   UNL     1      -7.034   0.967  -0.045  0.00  0.00    +0.155 HD
ENDROOT
BRANCH   3   5
ATOM      5  C   UNL     1      -4.869   0.838   0.036  0.00  0.00    +0.035 A 
ATOM      6  C   UNL     1      -4.728  -0.319  -0.716  0.00  0.00    +0.036 A 
ATOM      7  C   UNL     1      -3.513  -1.006  -0.722  0.00  0.00    +0.039 A 
ATOM      8  C   UNL     1      -2.441  -0.527   0.028  0.00  0.00    +0.026 A 
ATOM      9  C   UNL     1      -2.585   0.635   0.782  0.00  0.00    +0.039 A 
ATOM     10  C   UNL     1      -3.805   1.314   0.788  0.00  0.00    +0.036 A 
BRANCH   9  11
ATOM     11  C   UNL     1      -1.450   1.146   1.580  0.00  0.00    +0.242 C 
ATOM     12  O   UNL     1      -1.577   2.160   2.238  0.00  0.00    -0.270 OA
ATOM     13  N   UNL     1      -0.274   0.487   1.578  0.00  0.00    -0.325 N 
ATOM     14  H   UNL     1       0.571   0.867   2.172  0.00  0.00    +0.145 HD
ATOM     15  H   UNL     1      -0.159  -0.431   0.983  0.00  0.00    +0.145 HD
ENDBRANCH   9  11
BRANCH   7  16
ATOM     16  C   UNL     1      -3.364  -2.239  -1.524  0.00  0.00    +0.242 C 
ATOM     17  O   UNL     1      -4.300  -2.656  -2.178  0.00  0.00    -0.270 OA
ATOM     18  N   UNL     1      -2.191  -2.902  -1.529  0.00  0.00    -0.325 N 
ATOM     19  H   UNL     1      -2.080  -3.820  -2.125  0.00  0.00    +0.145 HD
ATOM     20  H   UNL     1      -1.343  -2.525  -0.937  0.00  0.00    +0.145 HD
ENDBRANCH   7  16
ENDBRANCH   3   5
BRANCH   1  21
ATOM     21  C   UNL     1      -7.419   3.597   0.274  0.00  0.00    +0.173 C 
BRANCH  21  22
ATOM     22  S   UNL     1      -7.112   5.376   0.402  0.00  0.00    -0.079 S 
BRANCH  22  26
ATOM     23  C   UNL     1     -10.522   7.286   0.725  0.00  0.00    +0.067 A 
ATOM     24  C   UNL     1     -10.933   5.994   0.641  0.00  0.00    +0.139 A 
ATOM     25  N   UNL     1      -9.849   5.217   0.520  0.00  0.00    -0.230 NA
ATOM     26  C   UNL     1      -8.768   5.964   0.532  0.00  0.00    +0.167 A 
ATOM     27  N   UNL     1      -9.140   7.268   0.656  0.00  0.00    -0.333 N 
ATOM     28  H   UNL     1      -8.574   8.210   0.704  0.00  0.00    +0.168 HD
BRANCH  23  34
ATOM     29  C   UNL     1     -10.812   9.751   0.946  0.00  0.00    +0.011 A 
ATOM     30  C   UNL     1     -11.621  10.861   1.070  0.00  0.00    +0.016 A 
ATOM     31  C   UNL     1     -12.997  10.715   1.126  0.00  0.00    +0.018 A 
ATOM     32  C   UNL     1     -13.569   9.457   1.052  0.00  0.00    +0.016 A 
ATOM     33  C   UNL     1     -12.771   8.339   0.922  0.00  0.00    +0.011 A 
ATOM     34  C   UNL     1     -11.383   8.479   0.865  0.00  0.00    -0.000 A 
ATOM     35 BR   UNL     1     -14.099  12.242   1.304  0.00  0.00    -0.050 Br
ENDBRANCH  23  34
ENDBRANCH  22  26
ENDBRANCH  21  22
ENDBRANCH   1  21
TORSDOF 7
