REMARK  Name = ZINC39267708
REMARK  6 active torsions:
REMARK  status: ('A' for Active; 'I' for Inactive)
REMARK    1  A    between atoms: C_3  and  C_7
REMARK    2  A    between atoms: C_7  and  N_8
REMARK    3  A    between atoms: C_9  and  C_11
REMARK    4  A    between atoms: C_14  and  N_17
REMARK    5  A    between atoms: C_20  and  N_25
REMARK    6  A    between atoms: N_25  and  C_26
REMARK                            x       y       z     vdW  Elec       q    Type
REMARK                         _______ _______ _______ _____ _____    ______ ____
ROOT
ATOM      1  N   UNL     1       6.474   4.318   8.025  0.00  0.00    -0.301 N 
ATOM      2  C   UNL     1       7.728   4.886   8.197  0.00  0.00    +0.106 A 
ATOM      3  C   UNL     1       8.755   4.162   8.794  0.00  0.00    +0.085 A 
ATOM      4  C   UNL     1       9.996   4.773   8.946  0.00  0.00    +0.130 A 
ATOM      5  N   UNL     1      10.159   6.023   8.518  0.00  0.00    -0.201 NA
ATOM      6  C   UNL     1       9.159   6.682   7.954  0.00  0.00    +0.193 A 
ATOM      7  N   UNL     1       7.966   6.130   7.788  0.00  0.00    -0.316 N 
ATOM      8  N   UNL     1       9.367   7.980   7.521  0.00  0.00    -0.329 N 
ATOM      9  H   UNL     1       6.160   3.640   8.643  0.00  0.00    +0.154 HD
ATOM     10  H   UNL     1      10.237   8.395   7.632  0.00  0.00    +0.145 HD
ATOM     11  H   UNL     1       8.643   8.475   7.106  0.00  0.00    +0.145 HD
ATOM     12  H   UNL     1       7.257   6.641   7.367  0.00  0.00    +0.170 HD
ENDROOT
BRANCH   1  16
ATOM     13  C   UNL     1       4.060   5.523   4.854  0.00  0.00    +0.037 A 
ATOM     14  C   UNL     1       3.487   4.947   5.991  0.00  0.00    +0.015 A 
ATOM     15  C   UNL     1       4.287   4.550   7.038  0.00  0.00    +0.024 A 
ATOM     16  C   UNL     1       5.667   4.721   6.964  0.00  0.00    +0.032 A 
ATOM     17  C   UNL     1       6.241   5.294   5.833  0.00  0.00    +0.024 A 
ATOM     18  C   UNL     1       5.446   5.688   4.781  0.00  0.00    +0.015 A 
BRANCH  13  20
ATOM     19  N   UNL     1       1.868   5.790   3.802  0.00  0.00    -0.307 N 
ATOM     20  C   UNL     1       3.204   5.950   3.730  0.00  0.00    +0.244 C 
ATOM     21  O   UNL     1       3.705   6.446   2.740  0.00  0.00    -0.270 OA
ATOM     22  H   UNL     1       1.469   5.395   4.593  0.00  0.00    +0.149 HD
BRANCH  19  23
ATOM     23  C   UNL     1       1.019   6.215   2.687  0.00  0.00    +0.141 C 
BRANCH  23  26
ATOM     24  C   UNL     1      -2.521   6.573   3.944  0.00  0.00    +0.020 A 
ATOM     25  C   UNL     1      -1.199   6.880   3.661  0.00  0.00    +0.008 A 
ATOM     26  C   UNL     1      -0.424   5.928   3.017  0.00  0.00    -0.012 A 
ATOM     27  C   UNL     1      -0.991   4.714   2.679  0.00  0.00    +0.115 A 
ATOM     28  N   UNL     1      -2.252   4.457   2.964  0.00  0.00    -0.263 NA
ATOM     29  C   UNL     1      -3.019   5.338   3.577  0.00  0.00    +0.111 A 
ENDBRANCH  23  26
ENDBRANCH  19  23
ENDBRANCH  13  20
ENDBRANCH   1  16
BRANCH   4  30
ATOM     30  N   UNL     1      11.049   4.089   9.537  0.00  0.00    -0.299 N 
ATOM     31  H   UNL     1      10.949   3.153   9.770  0.00  0.00    +0.154 HD
BRANCH  30  32
ATOM     32  C   UNL     1      12.255   4.750   9.795  0.00  0.00    +0.034 A 
ATOM     33  C   UNL     1      12.731   5.719   8.913  0.00  0.00    +0.025 A 
ATOM     34  C   UNL     1      13.899   6.375   9.140  0.00  0.00    +0.031 A 
ATOM     35  C   UNL     1      14.679   6.097  10.287  0.00  0.00    +0.078 A 
ATOM     36  C   UNL     1      14.172   5.111  11.164  0.00  0.00    +0.041 A 
ATOM     37  C   UNL     1      12.989   4.452  10.935  0.00  0.00    +0.040 A 
ATOM     38  S   UNL     1      15.412   5.066  12.436  0.00  0.00    -0.075 S 
ATOM     39  C   UNL     1      16.485   6.317  11.745  0.00  0.00    +0.157 A 
ATOM     40  N   UNL     1      15.852   6.656  10.655  0.00  0.00    -0.247 NA
ENDBRANCH  30  32
ENDBRANCH   4  30
TORSDOF 6
