REMARK  Name = ZINC20876661
REMARK  8 active torsions:
REMARK  status: ('A' for Active; 'I' for Inactive)
REMARK    1  A    between atoms: C_1  and  O_2
REMARK    2  A    between atoms: O_2  and  C_3
REMARK    3  A    between atoms: C_5  and  C_21
REMARK    4  A    between atoms: C_8  and  O_9
REMARK    5  A    between atoms: O_9  and  C_10
REMARK    6  A    between atoms: C_10  and  C_11
REMARK    7  A    between atoms: C_21  and  N_22
REMARK    8  A    between atoms: N_22  and  C_23
REMARK                            x       y       z     vdW  Elec       q    Type
REMARK                         _______ _______ _______ _____ _____    ______ ____
ROOT
ATOM      1  C   UNL     1       1.178   1.785   0.000  0.00  0.00    +0.163 A 
ATOM      2  C   UNL     1      -0.013   1.076   0.008  0.00  0.00    +0.051 A 
ATOM      3  C   UNL     1      -1.219   1.750   0.017  0.00  0.00    -0.060 A 
ATOM      4  C   UNL     1      -1.242   3.133   0.030  0.00  0.00    +0.021 A 
ATOM      5  C   UNL     1      -0.057   3.847   0.022  0.00  0.00    +0.063 A 
ATOM      6  C   UNL     1       1.156   3.176   0.008  0.00  0.00    +0.176 A 
ATOM      7 BR   UNL     1      -0.092   5.737   0.032  0.00  0.00    -0.046 Br
ENDROOT
BRANCH   1   9
ATOM      8  C   UNL     1       2.312  -0.306  -0.020  0.00  0.00    +0.277 C 
ATOM      9  O   UNL     1       2.366   1.122  -0.014  0.00  0.00    -0.491 OA
ENDBRANCH   1   9
BRANCH   6  10
ATOM     10  O   UNL     1       2.322   3.876   0.001  0.00  0.00    -0.483 OA
BRANCH  10  11
ATOM     11  C   UNL     1       2.867   4.216  -1.276  0.00  0.00    +0.265 C 
BRANCH  11  12
ATOM     12  C   UNL     1       4.150   4.984  -1.086  0.00  0.00    -0.007 A 
ATOM     13  C   UNL     1       4.120   6.364  -0.994  0.00  0.00    +0.011 A 
ATOM     14  C   UNL     1       5.294   7.072  -0.814  0.00  0.00    +0.050 A 
ATOM     15  C   UNL     1       6.504   6.402  -0.738  0.00  0.00    +0.166 A 
ATOM     16  C   UNL     1       6.534   5.013  -0.836  0.00  0.00    +0.167 A 
ATOM     17  C   UNL     1       5.353   4.309  -1.010  0.00  0.00    +0.056 A 
ATOM     18  O   UNL     1       7.829   4.596  -0.732  0.00  0.00    -0.453 OA
ATOM     19  C   UNL     1       8.631   5.766  -0.979  0.00  0.00    +0.466 C 
ATOM     20  O   UNL     1       7.781   6.855  -0.572  0.00  0.00    -0.453 OA
ENDBRANCH  11  12
ENDBRANCH  10  11
ENDBRANCH   6  10
BRANCH   3  21
ATOM     21  C   UNL     1      -2.513   0.977   0.019  0.00  0.00    -0.046 C 
BRANCH  21  22
ATOM     22  N   UNL     1      -2.926   0.719   1.405  0.00  0.00    +0.384 N 
ATOM     23  H   UNL     1      -2.149   0.133   1.917  0.00  0.00    -0.085 HD
ATOM     24  H   UNL     1      -3.070   1.675   1.929  0.00  0.00    -0.085 HD
BRANCH  22  25
ATOM     25  C   UNL     1      -4.187  -0.035   1.446  0.00  0.00    -0.071 C 
ATOM     26  C   UNL     1      -5.365   0.936   1.345  0.00  0.00    -0.016 C 
ATOM     27  C   UNL     1      -6.678   0.151   1.387  0.00  0.00    -0.002 C 
ATOM     28  C   UNL     1      -6.766  -0.623   2.704  0.00  0.00    -0.000 C 
ATOM     29  C   UNL     1      -5.588  -1.594   2.805  0.00  0.00    -0.002 C 
ATOM     30  C   UNL     1      -4.276  -0.809   2.763  0.00  0.00    -0.016 C 
ENDBRANCH  22  25
ENDBRANCH  21  22
ENDBRANCH   3  21
TORSDOF 7
