REMARK  Name = ZINC09433895
REMARK  7 active torsions:
REMARK  status: ('A' for Active; 'I' for Inactive)
REMARK    1  A    between atoms: C_1  and  N_2
REMARK    2  A    between atoms: C_5  and  C_22
REMARK    3  A    between atoms: C_8  and  C_13
REMARK    4  A    between atoms: C_16  and  N_19
REMARK    5  A    between atoms: N_19  and  C_20
REMARK    6  A    between atoms: N_19  and  C_21
REMARK    7  A    between atoms: N_31  and  C_34
REMARK                            x       y       z     vdW  Elec       q    Type
REMARK                         _______ _______ _______ _____ _____    ______ ____
ROOT
ATOM      1  C   UNL     1       4.645  -1.094  -0.580  0.00  0.00    +0.154 C 
ATOM      2  N   UNL     1       3.351  -0.577  -1.032  0.00  0.00    -0.294 N 
ATOM      3  C   UNL     1       3.086   0.796  -0.964  0.00  0.00    +0.083 A 
ATOM      4  C   UNL     1       1.770   1.263  -1.433  0.00  0.00    +0.089 A 
ATOM      5  C   UNL     1       1.761   2.637  -1.263  0.00  0.00    +0.064 A 
ATOM      6  N   UNL     1       2.961   2.997  -0.737  0.00  0.00    -0.337 N 
ATOM      7  C   UNL     1       3.753   1.883  -0.558  0.00  0.00    +0.077 A 
ATOM      8  C   UNL     1       5.151   1.955   0.016  0.00  0.00    +0.197 C 
ATOM      9  O   UNL     1       5.312   3.247   0.616  0.00  0.00    -0.364 OA
ATOM     10  C   UNL     1       4.930   4.333  -0.232  0.00  0.00    +0.182 C 
ATOM     11  C   UNL     1       3.405   4.355  -0.390  0.00  0.00    +0.150 C 
ATOM     12  C   UNL     1       0.830   0.260  -1.935  0.00  0.00    +0.266 A 
ATOM     13  O   UNL     1      -0.271   0.584  -2.340  0.00  0.00    -0.267 OA
ATOM     14  N   UNL     1       1.215  -1.034  -1.944  0.00  0.00    -0.263 N 
ATOM     15  C   UNL     1       2.422  -1.423  -1.510  0.00  0.00    +0.332 A 
ATOM     16  O   UNL     1       2.692  -2.608  -1.551  0.00  0.00    -0.246 OA
ATOM     17  C   UNL     1       0.283  -2.047  -2.444  0.00  0.00    +0.157 C 
ENDROOT
BRANCH   5  18
ATOM     18  C   UNL     1       0.648   3.548  -1.595  0.00  0.00    -0.001 A 
ATOM     19  C   UNL     1       0.263   4.543  -0.693  0.00  0.00    +0.011 A 
ATOM     20  C   UNL     1      -0.775   5.393  -1.011  0.00  0.00    +0.020 A 
ATOM     21  C   UNL     1      -1.442   5.256  -2.217  0.00  0.00    +0.041 A 
ATOM     22  C   UNL     1      -1.069   4.268  -3.113  0.00  0.00    +0.020 A 
ATOM     23  C   UNL     1      -0.029   3.415  -2.809  0.00  0.00    +0.011 A 
ATOM     24 CL   UNL     1      -2.752   6.326  -2.606  0.00  0.00    -0.084 Cl
ENDBRANCH   5  18
BRANCH   8  25
ATOM     25  C   UNL     1       5.329   0.882   1.059  0.00  0.00    -0.013 A 
ATOM     26  C   UNL     1       4.409   0.755   2.083  0.00  0.00    +0.008 A 
ATOM     27  C   UNL     1       4.566  -0.231   3.037  0.00  0.00    +0.023 A 
ATOM     28  C   UNL     1       5.657  -1.088   2.974  0.00  0.00    +0.029 A 
ATOM     29  C   UNL     1       6.583  -0.955   1.947  0.00  0.00    +0.023 A 
ATOM     30  C   UNL     1       6.416   0.030   0.993  0.00  0.00    +0.008 A 
BRANCH  28  31
ATOM     31  N   UNL     1       5.823  -2.082   3.941  0.00  0.00    -0.336 N 
ATOM     32  C   UNL     1       6.974  -2.986   3.873  0.00  0.00    +0.129 C 
ATOM     33  C   UNL     1       4.846  -2.222   5.023  0.00  0.00    +0.129 C 
ENDBRANCH  28  31
ENDBRANCH   8  25
TORSDOF 3
