REMARK  Name = ZINC20617418
REMARK  12 active torsions:
REMARK  status: ('A' for Active; 'I' for Inactive)
REMARK    1  A    between atoms: C_1  and  C_2
REMARK    2  A    between atoms: C_2  and  O_3
REMARK    3  A    between atoms: O_3  and  C_4
REMARK    4  A    between atoms: C_7  and  N_10
REMARK    5  A    between atoms: C_12  and  C_24
REMARK    6  A    between atoms: C_15  and  C_22
REMARK    7  A    between atoms: C_18  and  C_21
REMARK    8  A    between atoms: C_22  and  O_23
REMARK    9  A    between atoms: N_26  and  C_27
REMARK   10  A    between atoms: C_29  and  C_36
REMARK   11  A    between atoms: C_32  and  O_33
REMARK   12  A    between atoms: O_33  and  C_34
REMARK                            x       y       z     vdW  Elec       q    Type
REMARK                         _______ _______ _______ _____ _____    ______ ____
ROOT
ATOM      1  N   UNL     1       3.599  -0.592  -0.063  0.00  0.00    -0.325 N 
ATOM      2  C   UNL     1       4.725   0.077  -0.177  0.00  0.00    +0.212 A 
ATOM      3  C   UNL     1       6.018  -0.628  -0.295  0.00  0.00    +0.098 A 
ATOM      4  C   UNL     1       7.035   0.031  -0.954  0.00  0.00    +0.030 A 
ATOM      5  C   UNL     1       6.747   1.373  -1.465  0.00  0.00    +0.027 A 
ATOM      6  C   UNL     1       7.606   2.020  -2.361  0.00  0.00    +0.007 A 
ATOM      7  C   UNL     1       7.266   3.282  -2.803  0.00  0.00    +0.117 A 
ATOM      8  N   UNL     1       6.158   3.874  -2.397  0.00  0.00    -0.256 NA
ATOM      9  C   UNL     1       5.318   3.306  -1.554  0.00  0.00    +0.081 A 
ATOM     10  C   UNL     1       5.577   2.038  -1.054  0.00  0.00    +0.159 A 
ATOM     11  O   UNL     1       4.731   1.435  -0.185  0.00  0.00    -0.437 OA
ATOM     12  C   UNL     1       4.071   4.039  -1.132  0.00  0.00    +0.069 C 
ATOM     13  H   UNL     1       3.618  -1.688   0.025  0.00  0.00    +0.169 HD
ENDROOT
BRANCH   1  17
ATOM     14  C   UNL     1      -0.014   1.427  -0.032  0.00  0.00    +0.121 A 
ATOM     15  C   UNL     1       0.603   1.096   1.166  0.00  0.00    +0.047 A 
ATOM     16  C   UNL     1       1.807   0.423   1.161  0.00  0.00    +0.029 A 
ATOM     17  C   UNL     1       2.405   0.075  -0.053  0.00  0.00    +0.042 A 
ATOM     18  C   UNL     1       1.780   0.411  -1.256  0.00  0.00    +0.029 A 
ATOM     19  C   UNL     1       0.576   1.084  -1.241  0.00  0.00    +0.047 A 
BRANCH  14  20
ATOM     20  O   UNL     1      -1.198   2.096  -0.022  0.00  0.00    -0.492 OA
BRANCH  20  22
ATOM     21  C   UNL     1      -3.073   3.164   1.066  0.00  0.00    +0.048 C 
ATOM     22  C   UNL     1      -1.750   2.419   1.256  0.00  0.00    +0.225 C 
ENDBRANCH  20  22
ENDBRANCH  14  20
ENDBRANCH   1  17
BRANCH   3  23
ATOM     23  C   UNL     1       6.209  -1.978   0.264  0.00  0.00    +0.253 C 
ATOM     24  O   UNL     1       7.284  -2.536   0.152  0.00  0.00    -0.270 OA
ATOM     25  N   UNL     1       5.192  -2.596   0.898  0.00  0.00    -0.278 N 
ATOM     26  H   UNL     1       4.200  -2.124   0.935  0.00  0.00    +0.155 HD
BRANCH  25  27
ATOM     27  C   UNL     1       5.400  -3.839   1.509  0.00  0.00    +0.076 A 
ATOM     28  C   UNL     1       6.276  -4.755   0.943  0.00  0.00    +0.031 A 
ATOM     29  C   UNL     1       6.480  -5.980   1.548  0.00  0.00    -0.030 A 
ATOM     30  C   UNL     1       5.812  -6.298   2.717  0.00  0.00    +0.047 A 
ATOM     31  C   UNL     1       4.937  -5.390   3.287  0.00  0.00    +0.067 A 
ATOM     32  C   UNL     1       4.732  -4.157   2.689  0.00  0.00    +0.143 A 
ATOM     33 CL   UNL     1       6.073  -7.840   3.472  0.00  0.00    -0.083 Cl
ATOM     34  C   UNL     1       7.432  -6.973   0.932  0.00  0.00    +0.045 C 
BRANCH  32  35
ATOM     35  O   UNL     1       3.877  -3.261   3.251  0.00  0.00    -0.493 OA
ATOM     36  C   UNL     1       3.228  -3.655   4.461  0.00  0.00    +0.277 C 
ENDBRANCH  32  35
ENDBRANCH  25  27
ENDBRANCH   3  23
BRANCH   6  37
ATOM     37  C   UNL     1       8.873   1.354  -2.832  0.00  0.00    +0.193 C 
BRANCH  37  38
ATOM     38  O   UNL     1       9.562   2.223  -3.733  0.00  0.00    -0.390 OA
ATOM     39  H   UNL     1      10.515   1.906  -4.183  0.00  0.00    +0.210 HD
ENDBRANCH  37  38
ENDBRANCH   6  37
TORSDOF 8
