REMARK  Name = ZINC36378967
REMARK  19 active torsions:
REMARK  status: ('A' for Active; 'I' for Inactive)
REMARK    1  A    between atoms: C_1  and  C_2
REMARK    2  A    between atoms: C_2  and  C_4
REMARK    3  A    between atoms: C_2  and  O_11
REMARK    4  A    between atoms: C_4  and  C_5
REMARK    5  A    between atoms: C_5  and  C_7
REMARK    6  A    between atoms: C_5  and  O_10
REMARK    7  A    between atoms: C_7  and  C_8
REMARK    8  A    between atoms: C_7  and  C_9
REMARK    9  A    between atoms: O_11  and  C_12
REMARK   10  A    between atoms: C_14  and  O_38
REMARK   11  A    between atoms: C_16  and  O_37
REMARK   12  A    between atoms: C_18  and  O_36
REMARK   13  A    between atoms: C_20  and  C_23
REMARK   14  A    between atoms: C_23  and  O_24
REMARK   15  A    between atoms: O_24  and  C_25
REMARK   16  A    between atoms: C_27  and  O_35
REMARK   17  A    between atoms: C_29  and  C_32
REMARK   18  A    between atoms: C_29  and  O_34
REMARK   19  A    between atoms: C_32  and  O_33
REMARK                            x       y       z     vdW  Elec       q    Type
REMARK                         _______ _______ _______ _____ _____    ______ ____
ROOT
ATOM      1  C   UNL     1      -0.194  -0.664  -2.294  0.00  0.00    +0.282 C 
ATOM      2  C   UNL     1       0.640  -1.035  -3.523  0.00  0.00    +0.201 C 
ATOM      3  C   UNL     1      -0.297  -1.306  -4.704  0.00  0.00    +0.179 C 
ATOM      4  C   UNL     1      -1.284  -2.412  -4.315  0.00  0.00    +0.177 C 
ATOM      5  C   UNL     1      -2.043  -1.987  -3.056  0.00  0.00    +0.178 C 
ATOM      6  O   UNL     1      -1.111  -1.721  -2.006  0.00  0.00    -0.341 OA
ENDROOT
BRANCH   2   7
ATOM      7  O   UNL     1       1.519   0.044  -3.847  0.00  0.00    -0.384 OA
ATOM      8  H   UNL     1       2.139   0.272  -3.141  0.00  0.00    +0.210 HD
ENDBRANCH   2   7
BRANCH   3   9
ATOM      9  O   UNL     1       0.469  -1.722  -5.836  0.00  0.00    -0.386 OA
ATOM     10  H   UNL     1       1.119  -1.071  -6.132  0.00  0.00    +0.210 HD
ENDBRANCH   3   9
BRANCH   4  11
ATOM     11  O   UNL     1      -2.208  -2.623  -5.384  0.00  0.00    -0.386 OA
ATOM     12  H   UNL     1      -1.794  -2.891  -6.215  0.00  0.00    +0.210 HD
ENDBRANCH   4  11
BRANCH   5  13
ATOM     13  C   UNL     1      -2.988  -3.112  -2.627  0.00  0.00    +0.197 C 
BRANCH  13  14
ATOM     14  O   UNL     1      -3.780  -2.673  -1.522  0.00  0.00    -0.346 OA
BRANCH  14  15
ATOM     15  C   UNL     1      -4.702  -3.653  -1.041  0.00  0.00    +0.282 C 
ATOM     16  C   UNL     1      -5.450  -3.124   0.202  0.00  0.00    +0.206 C 
ATOM     17  C   UNL     1      -6.884  -3.678   0.041  0.00  0.00    +0.142 C 
ATOM     18  C   UNL     1      -6.832  -4.476  -1.280  0.00  0.00    +0.202 C 
ATOM     19  O   UNL     1      -5.734  -3.896  -2.021  0.00  0.00    -0.346 OA
BRANCH  16  20
ATOM     20  O   UNL     1      -4.850  -3.623   1.399  0.00  0.00    -0.384 OA
ATOM     21  H   UNL     1      -3.929  -3.354   1.519  0.00  0.00    +0.210 HD
ENDBRANCH  16  20
BRANCH  17  22
ATOM     22  O   UNL     1      -7.214  -4.538   1.133  0.00  0.00    -0.381 OA
ATOM     23  H   UNL     1      -8.104  -4.914   1.083  0.00  0.00    +0.210 HD
ENDBRANCH  17  22
BRANCH  17  24
ATOM     24  C   UNL     1      -7.893  -2.532  -0.064  0.00  0.00    +0.195 C 
BRANCH  24  25
ATOM     25  O   UNL     1      -9.209  -3.068  -0.212  0.00  0.00    -0.392 OA
ATOM     26  H   UNL     1      -9.901  -2.397  -0.285  0.00  0.00    +0.210 HD
ENDBRANCH  24  25
ENDBRANCH  17  24
ENDBRANCH  14  15
ENDBRANCH  13  14
ENDBRANCH   5  13
BRANCH   1  27
ATOM     27  O   UNL     1       0.671  -0.465  -1.174  0.00  0.00    -0.346 OA
BRANCH  27  29
ATOM     28  C   UNL     1      -0.019   1.526   0.010  0.00  0.00    +0.038 C 
ATOM     29  C   UNL     1       0.002  -0.004   0.002  0.00  0.00    +0.121 C 
BRANCH  29  30
ATOM     30  C   UNL     1       0.742  -0.511   1.242  0.00  0.00    +0.063 C 
BRANCH  30  31
ATOM     31  C   UNL     1       0.655  -2.037   1.299  0.00  0.00    +0.120 C 
BRANCH  31  32
ATOM     32  C   UNL     1       1.499  -2.553   2.467  0.00  0.00    +0.011 C 
ATOM     33  C   UNL     1       1.412  -4.079   2.524  0.00  0.00    +0.010 C 
ATOM     34  C   UNL     1       2.956  -2.132   2.268  0.00  0.00    +0.010 C 
ENDBRANCH  31  32
BRANCH  31  35
ATOM     35  O   UNL     1      -0.706  -2.431   1.484  0.00  0.00    -0.391 OA
ATOM     36  H   UNL     1      -1.106  -2.091   2.296  0.00  0.00    +0.210 HD
ENDBRANCH  31  35
ENDBRANCH  30  31
ENDBRANCH  29  30
ENDBRANCH  27  29
ENDBRANCH   1  27
TORSDOF 16
