REMARK  Name = ZINC36916313
REMARK  5 active torsions:
REMARK  status: ('A' for Active; 'I' for Inactive)
REMARK    1  A    between atoms: C_1  and  C_2
REMARK    2  A    between atoms: C_2  and  C_3
REMARK    3  A    between atoms: C_4  and  C_10
REMARK    4  A    between atoms: N_6  and  C_9
REMARK    5  A    between atoms: C_7  and  N_8
REMARK                            x       y       z     vdW  Elec       q    Type
REMARK                         _______ _______ _______ _____ _____    ______ ____
ROOT
ATOM      1  C   UNL     1       0.733  -0.253  -1.351  0.00  0.00    +0.019 A 
ATOM      2  C   UNL     1       0.095  -0.856  -2.451  0.00  0.00    +0.098 A 
ATOM      3  N   UNL     1       1.014  -1.446  -3.186  0.00  0.00    -0.170 NA
ATOM      4  N   UNL     1       2.260  -1.240  -2.582  0.00  0.00    -0.253 N 
ATOM      5  C   UNL     1       2.066  -0.499  -1.459  0.00  0.00    +0.118 A 
ATOM      6  C   UNL     1       3.549  -1.730  -3.077  0.00  0.00    +0.174 C 
ENDROOT
BRANCH   2   7
ATOM      7  C   UNL     1      -1.362  -0.832  -2.733  0.00  0.00    +0.002 A 
ATOM      8  C   UNL     1      -1.819  -0.606  -4.030  0.00  0.00    +0.011 A 
ATOM      9  C   UNL     1      -3.175  -0.584  -4.287  0.00  0.00    +0.015 A 
ATOM     10  C   UNL     1      -4.080  -0.785  -3.259  0.00  0.00    +0.013 A 
ATOM     11  C   UNL     1      -3.631  -1.010  -1.970  0.00  0.00    +0.015 A 
ATOM     12  C   UNL     1      -2.277  -1.040  -1.703  0.00  0.00    +0.011 A 
ATOM     13  I   UNL     1      -6.136  -0.749  -3.657  0.00  0.00    -0.044 I 
ENDBRANCH   2   7
BRANCH   5  14
ATOM     14  N   UNL     1       3.054  -0.072  -0.576  0.00  0.00    -0.343 N 
ATOM     15  H   UNL     1       2.814   0.453   0.204  0.00  0.00    +0.144 HD
ATOM     16  H   UNL     1       3.982  -0.300  -0.740  0.00  0.00    +0.144 HD
ENDBRANCH   5  14
BRANCH   1  18
ATOM     17  C   UNL     1       0.061   2.017  -0.615  0.00  0.00    +0.009 C 
ATOM     18  C   UNL     1       0.061   0.531  -0.254  0.00  0.00    +0.037 C 
ENDBRANCH   1  18
TORSDOF 3
