REMARK  Name = ZINC09780089
REMARK  4 active torsions:
REMARK  status: ('A' for Active; 'I' for Inactive)
REMARK    1  A    between atoms: C_10  and  N_27
REMARK    2  A    between atoms: C_12  and  N_16
REMARK    3  A    between atoms: N_19  and  C_22
REMARK    4  A    between atoms: N_27  and  C_28
REMARK                            x       y       z     vdW  Elec       q    Type
REMARK                         _______ _______ _______ _____ _____    ______ ____
ROOT
ATOM      1  C   UNL     1      -3.662   3.193   1.267  0.00  0.00    +0.001 A 
ATOM      2  C   UNL     1      -3.593   1.806   1.280  0.00  0.00    +0.001 A 
ATOM      3  C   UNL     1      -2.402   1.160   1.041  0.00  0.00    +0.012 A 
ATOM      4  C   UNL     1      -1.242   1.897   0.774  0.00  0.00    +0.033 A 
ATOM      5  C   UNL     1      -1.315   3.312   0.768  0.00  0.00    +0.031 A 
ATOM      6  C   UNL     1      -2.537   3.944   1.014  0.00  0.00    +0.012 A 
ATOM      7  C   UNL     1      -0.110   4.094   0.496  0.00  0.00    +0.176 A 
ATOM      8  C   UNL     1       1.030   3.365   0.267  0.00  0.00    +0.063 A 
ATOM      9  C   UNL     1       1.184   1.936   0.262  0.00  0.00    +0.056 A 
ATOM     10  C   UNL     1       2.470   1.439  -0.005  0.00  0.00    +0.045 A 
ATOM     11  C   UNL     1       3.525   2.328  -0.248  0.00  0.00    +0.049 A 
ATOM     12  C   UNL     1       3.413   3.704  -0.251  0.00  0.00    +0.061 A 
ATOM     13  C   UNL     1       2.106   4.317   0.018  0.00  0.00    +0.136 A 
ATOM     14  N   UNL     1       1.503   5.467   0.125  0.00  0.00    -0.076 NA
ATOM     15  O   UNL     1       0.305   5.361   0.383  0.00  0.00    -0.353 OA
ATOM     16  C   UNL     1       0.024   1.173   0.525  0.00  0.00    +0.196 C 
ATOM     17  O   UNL     1       0.064  -0.047   0.541  0.00  0.00    -0.287 OA
ENDROOT
BRANCH  12  18
ATOM     18  N   UNL     1       4.516   4.493  -0.503  0.00  0.00    -0.325 N 
ATOM     19  C   UNL     1       5.020   4.274  -1.866  0.00  0.00    +0.124 C 
ATOM     20  C   UNL     1       6.191   5.223  -2.133  0.00  0.00    +0.125 C 
ATOM     21  N   UNL     1       7.247   4.985  -1.139  0.00  0.00    -0.314 N 
ATOM     22  C   UNL     1       6.744   5.204   0.224  0.00  0.00    +0.125 C 
ATOM     23  C   UNL     1       5.573   4.255   0.491  0.00  0.00    +0.124 C 
BRANCH  21  24
ATOM     24  C   UNL     1       8.359   5.780  -1.393  0.00  0.00    +0.099 A 
ATOM     25  C   UNL     1       8.983   5.716  -2.635  0.00  0.00    +0.042 A 
ATOM     26  C   UNL     1      10.088   6.513  -2.874  0.00  0.00    +0.005 A 
ATOM     27  C   UNL     1      10.533   7.351  -1.860  0.00  0.00    +0.018 A 
ATOM     28  C   UNL     1       9.866   7.364  -0.652  0.00  0.00    +0.084 A 
ATOM     29  N   UNL     1       8.774   6.599  -0.384  0.00  0.00    -0.350 N 
ATOM     30  H   UNL     1       8.291   6.635   0.522  0.00  0.00    +0.166 HD
ENDBRANCH  21  24
ENDBRANCH  12  18
BRANCH  10  31
ATOM     31  N   UNL     1       2.693   0.079  -0.026  0.00  0.00    -0.314 N 
ATOM     32  H   UNL     1       3.139  -0.351   0.721  0.00  0.00    +0.152 HD
BRANCH  31  33
ATOM     33  C   UNL     1       2.279  -0.681  -1.124  0.00  0.00    +0.035 A 
ATOM     34  C   UNL     1       1.754  -0.052  -2.246  0.00  0.00    +0.027 A 
ATOM     35  C   UNL     1       1.349  -0.802  -3.334  0.00  0.00    +0.051 A 
ATOM     36  C   UNL     1       1.455  -2.183  -3.305  0.00  0.00    +0.166 A 
ATOM     37  C   UNL     1       1.976  -2.817  -2.180  0.00  0.00    +0.168 A 
ATOM     38  C   UNL     1       2.387  -2.066  -1.092  0.00  0.00    +0.072 A 
ATOM     39  O   UNL     1       1.975  -4.165  -2.398  0.00  0.00    -0.453 OA
ATOM     40  C   UNL     1       1.073  -4.375  -3.501  0.00  0.00    +0.466 C 
ATOM     41  O   UNL     1       1.128  -3.134  -4.229  0.00  0.00    -0.453 OA
ENDBRANCH  31  33
ENDBRANCH  10  31
TORSDOF 4
