REMARK  Name = ZINC13047105
REMARK  8 active torsions:
REMARK  status: ('A' for Active; 'I' for Inactive)
REMARK    1  A    between atoms: C_6  and  C_7
REMARK    2  A    between atoms: C_10  and  S_17
REMARK    3  A    between atoms: N_11  and  C_14
REMARK    4  A    between atoms: C_14  and  C_15
REMARK    5  A    between atoms: C_15  and  O_16
REMARK    6  A    between atoms: S_17  and  C_18
REMARK    7  A    between atoms: C_18  and  C_19
REMARK    8  A    between atoms: N_21  and  C_22
REMARK                            x       y       z     vdW  Elec       q    Type
REMARK                         _______ _______ _______ _____ _____    ______ ____
ROOT
ATOM      1  C   UNL     1      -3.972   1.163   4.709  0.00  0.00    +0.016 A 
ATOM      2  C   UNL     1      -3.382   0.641   3.594  0.00  0.00    +0.016 A 
ATOM      3  C   UNL     1      -2.356   1.341   2.959  0.00  0.00    +0.065 A 
ATOM      4  C   UNL     1      -1.925   2.588   3.467  0.00  0.00    +0.080 A 
ATOM      5  C   UNL     1      -2.537   3.111   4.609  0.00  0.00    +0.043 A 
ATOM      6  C   UNL     1      -3.558   2.397   5.225  0.00  0.00    +0.065 A 
ATOM      7  N   UNL     1      -0.928   3.249   2.833  0.00  0.00    -0.223 NA
ATOM      8  C   UNL     1      -0.349   2.758   1.766  0.00  0.00    +0.173 A 
ATOM      9  N   UNL     1      -0.707   1.564   1.207  0.00  0.00    -0.285 N 
ATOM     10  C   UNL     1      -1.692   0.817   1.755  0.00  0.00    +0.262 A 
ATOM     11  O   UNL     1      -2.018  -0.251   1.270  0.00  0.00    -0.267 OA
ENDROOT
BRANCH   6  12
ATOM     12  C   UNL     1      -4.211   2.945   6.434  0.00  0.00    +0.387 C 
ATOM     13  O   UNL     1      -3.855   4.015   6.885  0.00  0.00    -0.241 OA
ATOM     14  O   UNL     1      -5.200   2.256   7.035  0.00  0.00    -0.241 OA
ENDBRANCH   6  12
BRANCH   9  15
ATOM     15  C   UNL     1      -0.015   1.087   0.007  0.00  0.00    +0.155 C 
BRANCH  15  16
ATOM     16  C   UNL     1      -0.745   1.593  -1.239  0.00  0.00    +0.177 C 
BRANCH  16  17
ATOM     17  O   UNL     1      -0.660   3.018  -1.295  0.00  0.00    -0.393 OA
ATOM     18  H   UNL     1      -1.102   3.409  -2.061  0.00  0.00    +0.209 HD
ENDBRANCH  16  17
ENDBRANCH  15  16
ENDBRANCH   9  15
BRANCH   8  19
ATOM     19  S   UNL     1       0.946   3.684   1.011  0.00  0.00    -0.078 S 
BRANCH  19  20
ATOM     20  C   UNL     1       0.998   5.113   2.120  0.00  0.00    +0.173 C 
BRANCH  20  21
ATOM     21  C   UNL     1       2.066   6.070   1.656  0.00  0.00    +0.227 C 
ATOM     22  O   UNL     1       2.727   5.811   0.673  0.00  0.00    -0.275 OA
ATOM     23  N   UNL     1       2.287   7.213   2.335  0.00  0.00    -0.285 N 
ATOM     24  H   UNL     1       1.715   7.453   3.080  0.00  0.00    +0.155 HD
BRANCH  23  25
ATOM     25  C   UNL     1       3.341   8.055   1.963  0.00  0.00    +0.039 A 
ATOM     26  C   UNL     1       4.040   8.762   2.931  0.00  0.00    +0.061 A 
ATOM     27  C   UNL     1       5.086   9.589   2.562  0.00  0.00    +0.128 A 
ATOM     28  C   UNL     1       5.428   9.721   1.227  0.00  0.00    +0.076 A 
ATOM     29  C   UNL     1       4.728   9.021   0.259  0.00  0.00    +0.128 A 
ATOM     30  C   UNL     1       3.685   8.188   0.624  0.00  0.00    +0.061 A 
ATOM     31  F   UNL     1       5.063   9.151  -1.044  0.00  0.00    -0.205 F 
ATOM     32  F   UNL     1       5.771  10.274   3.505  0.00  0.00    -0.205 F 
ENDBRANCH  23  25
ENDBRANCH  20  21
ENDBRANCH  19  20
ENDBRANCH   8  19
TORSDOF 8
