REMARK  Name = ZINC03999763
REMARK  5 active torsions:
REMARK  status: ('A' for Active; 'I' for Inactive)
REMARK    1  A    between atoms: C_1  and  C_2
REMARK    2  A    between atoms: C_2  and  N_14
REMARK    3  A    between atoms: C_8  and  C_9
REMARK    4  A    between atoms: C_8  and  C_10
REMARK    5  A    between atoms: N_14  and  C_15
REMARK                            x       y       z     vdW  Elec       q    Type
REMARK                         _______ _______ _______ _____ _____    ______ ____
ROOT
ATOM      1  N   UNL     1       2.835  -1.035   3.154  0.00  0.00    -0.318 N 
ATOM      2  H   UNL     1       3.482  -0.313   3.123  0.00  0.00    +0.152 HD
ENDROOT
BRANCH   1   4
ATOM      3  C   UNL     1       0.549  -1.935   2.771  0.00  0.00    +0.061 C 
ATOM      4  C   UNL     1       1.599  -0.867   2.605  0.00  0.00    +0.012 C 
ATOM      5  C   UNL     1       1.314   0.262   1.910  0.00  0.00    +0.016 C 
ATOM      6  C   UNL     1      -0.011   0.560   1.260  0.00  0.00    +0.034 C 
ATOM      7  C   UNL     1       0.103   1.935   0.588  0.00  0.00    +0.011 C 
ATOM      8  C   UNL     1      -0.085   0.677  -0.263  0.00  0.00    -0.024 C 
ATOM      9  C   UNL     1       1.119   0.183  -1.068  0.00  0.00    +0.012 C 
ATOM     10  C   UNL     1      -1.449   0.468  -0.923  0.00  0.00    +0.012 C 
ATOM     11  C   UNL     1       1.530   2.415   0.885  0.00  0.00    +0.084 C 
ATOM     12  C   UNL     1       2.197   1.336   1.697  0.00  0.00    +0.161 C 
ATOM     13  O   UNL     1       3.340   1.383   2.108  0.00  0.00    -0.292 OA
ENDBRANCH   1   4
BRANCH   1  14
ATOM     14  C   UNL     1       3.171  -2.249   3.762  0.00  0.00    +0.032 A 
ATOM     15  C   UNL     1       3.908  -2.254   4.946  0.00  0.00    +0.027 A 
ATOM     16  C   UNL     1       4.242  -3.441   5.559  0.00  0.00    +0.049 A 
ATOM     17  C   UNL     1       3.855  -4.650   4.994  0.00  0.00    +0.139 A 
ATOM     18  C   UNL     1       3.117  -4.652   3.797  0.00  0.00    +0.019 A 
ATOM     19  C   UNL     1       2.777  -3.442   3.184  0.00  0.00    +0.034 A 
ATOM     20  C   UNL     1       2.715  -5.934   3.211  0.00  0.00    +0.018 A 
ATOM     21  C   UNL     1       3.077  -7.074   3.853  0.00  0.00    +0.092 A 
ATOM     22  C   UNL     1       3.819  -6.998   5.052  0.00  0.00    +0.337 A 
ATOM     23  O   UNL     1       4.136  -8.028   5.619  0.00  0.00    -0.245 OA
ATOM     24  O   UNL     1       4.182  -5.821   5.582  0.00  0.00    -0.422 OA
ENDBRANCH   1  14
TORSDOF 2
