REMARK  Name = ZINC63488630
REMARK  8 active torsions:
REMARK  status: ('A' for Active; 'I' for Inactive)
REMARK    1  A    between atoms: C_1  and  C_2
REMARK    2  A    between atoms: C_5  and  C_7
REMARK    3  A    between atoms: C_9  and  C_12
REMARK    4  A    between atoms: C_12  and  C_13
REMARK    5  A    between atoms: N_15  and  C_16
REMARK    6  A    between atoms: C_16  and  C_17
REMARK    7  A    between atoms: C_16  and  C_18
REMARK    8  A    between atoms: C_22  and  C_24
REMARK                            x       y       z     vdW  Elec       q    Type
REMARK                         _______ _______ _______ _____ _____    ______ ____
ROOT
ATOM      1  C   UNL     1       5.657  -3.534  -1.196  0.00  0.00    +0.219 C 
ATOM      2  O   UNL     1       4.865  -3.003  -1.945  0.00  0.00    -0.275 OA
ATOM      3  N   UNL     1       6.981  -3.384  -1.398  0.00  0.00    -0.306 N 
ATOM      4  H   UNL     1       7.614  -3.808  -0.798  0.00  0.00    +0.149 HD
ENDROOT
BRANCH   3   5
ATOM      5  C   UNL     1       7.463  -2.578  -2.522  0.00  0.00    +0.134 C 
ATOM      6  C   UNL     1       7.518  -3.444  -3.783  0.00  0.00    +0.036 C 
BRANCH   5   7
ATOM      7  C   UNL     1       8.842  -2.055  -2.211  0.00  0.00    +0.105 A 
ATOM      8  N   UNL     1       9.759  -2.674  -1.435  0.00  0.00    -0.348 N 
ATOM      9  H   UNL     1       9.648  -3.526  -0.984  0.00  0.00    +0.167 HD
ATOM     10  C   UNL     1      10.871  -1.880  -1.404  0.00  0.00    +0.110 A 
ATOM     11  C   UNL     1      10.595  -0.792  -2.168  0.00  0.00    +0.064 A 
ATOM     12  N   UNL     1       9.344  -0.936  -2.651  0.00  0.00    -0.342 N 
ATOM     13  H   UNL     1       8.890  -0.306  -3.232  0.00  0.00    +0.167 HD
BRANCH  11  14
ATOM     14  C   UNL     1      11.508   0.348  -2.429  0.00  0.00    -0.000 A 
ATOM     15  C   UNL     1      11.091   1.408  -3.232  0.00  0.00    +0.010 A 
ATOM     16  C   UNL     1      11.944   2.466  -3.472  0.00  0.00    +0.001 A 
ATOM     17  C   UNL     1      13.211   2.475  -2.917  0.00  0.00    +0.000 A 
ATOM     18  C   UNL     1      13.631   1.426  -2.120  0.00  0.00    +0.001 A 
ATOM     19  C   UNL     1      12.783   0.366  -1.868  0.00  0.00    +0.010 A 
ENDBRANCH  11  14
ENDBRANCH   5   7
ENDBRANCH   3   5
BRANCH   1  20
ATOM     20  C   UNL     1       5.160  -4.363  -0.039  0.00  0.00    +0.151 C 
BRANCH  20  23
ATOM     21  C   UNL     1       1.662  -3.220  -0.025  0.00  0.00    +0.144 A 
ATOM     22  N   UNL     1       2.990  -3.240  -0.027  0.00  0.00    -0.240 NA
ATOM     23  C   UNL     1       3.654  -4.372  -0.037  0.00  0.00    +0.058 A 
ATOM     24  C   UNL     1       2.980  -5.552  -0.047  0.00  0.00    +0.071 A 
ATOM     25  S   UNL     1       1.289  -4.969  -0.033  0.00  0.00    -0.072 S 
BRANCH  21  30
ATOM     26  C   UNL     1      -0.018   1.503   0.010  0.00  0.00    +0.086 C 
ATOM     27  C   UNL     1       0.002  -0.004   0.002  0.00  0.00    +0.103 A 
ATOM     28  C   UNL     1      -1.083  -0.804   0.003  0.00  0.00    +0.045 A 
ATOM     29  C   UNL     1      -0.617  -2.133  -0.008  0.00  0.00    +0.052 A 
ATOM     30  C   UNL     1       0.745  -2.071  -0.014  0.00  0.00    +0.160 A 
ATOM     31  O   UNL     1       1.104  -0.771  -0.013  0.00  0.00    -0.458 OA
ENDBRANCH  21  30
ENDBRANCH  20  23
ENDBRANCH   1  20
TORSDOF 6
