REMARK  Name = ZINC66224731
REMARK  8 active torsions:
REMARK  status: ('A' for Active; 'I' for Inactive)
REMARK    1  A    between atoms: C_1  and  C_2
REMARK    2  A    between atoms: C_2  and  C_3
REMARK    3  A    between atoms: C_3  and  C_4
REMARK    4  A    between atoms: N_6  and  C_7
REMARK    5  A    between atoms: C_11  and  N_13
REMARK    6  A    between atoms: C_14  and  C_16
REMARK    7  A    between atoms: C_16  and  N_17
REMARK    8  A    between atoms: N_17  and  C_18
REMARK                            x       y       z     vdW  Elec       q    Type
REMARK                         _______ _______ _______ _____ _____    ______ ____
ROOT
ATOM      1  N   UNL     1       2.395  -6.760   4.617  0.00  0.00    -0.283 N 
ATOM      2  C   UNL     1       2.313  -6.193   5.837  0.00  0.00    +0.234 C 
ATOM      3  O   UNL     1       1.847  -5.080   5.958  0.00  0.00    -0.274 OA
ATOM      4  H   UNL     1       2.827  -7.622   4.511  0.00  0.00    +0.155 HD
ENDROOT
BRANCH   1   9
ATOM      5  C   UNL     1       1.355  -4.077   2.321  0.00  0.00    +0.035 A 
ATOM      6  C   UNL     1       0.782  -4.819   1.295  0.00  0.00    +0.025 A 
ATOM      7  C   UNL     1       0.746  -6.198   1.375  0.00  0.00    +0.023 A 
ATOM      8  C   UNL     1       1.280  -6.843   2.475  0.00  0.00    +0.062 A 
ATOM      9  C   UNL     1       1.855  -6.106   3.504  0.00  0.00    +0.054 A 
ATOM     10  C   UNL     1       1.897  -4.722   3.423  0.00  0.00    +0.048 A 
ATOM     11 CL   UNL     1       1.232  -8.576   2.571  0.00  0.00    -0.082 Cl
BRANCH   5  14
ATOM     12  C   UNL     1       0.370  -2.012   1.666  0.00  0.00    +0.217 C 
ATOM     13  O   UNL     1      -0.540  -2.624   1.148  0.00  0.00    -0.275 OA
ATOM     14  N   UNL     1       1.391  -2.680   2.238  0.00  0.00    -0.285 N 
ATOM     15  H   UNL     1       2.151  -2.193   2.594  0.00  0.00    +0.155 HD
BRANCH  12  16
ATOM     16  C   UNL     1       0.360  -0.505   1.669  0.00  0.00    +0.096 C 
BRANCH  16  18
ATOM     17  C   UNL     1      -0.910   1.527   0.963  0.00  0.00    +0.004 C 
ATOM     18  C   UNL     1      -0.899  -0.003   0.960  0.00  0.00    +0.006 C 
ENDBRANCH  16  18
ENDBRANCH  12  16
ENDBRANCH   5  14
ENDBRANCH   1   9
BRANCH   2  19
ATOM     19  C   UNL     1       2.802  -6.941   7.050  0.00  0.00    +0.198 C 
BRANCH  19  20
ATOM     20  N   UNL     1       2.606  -6.116   8.245  0.00  0.00    -0.334 N 
ATOM     21  H   UNL     1       2.212  -5.233   8.165  0.00  0.00    +0.147 HD
BRANCH  20  22
ATOM     22  C   UNL     1       2.986  -6.601   9.499  0.00  0.00    +0.047 A 
ATOM     23  C   UNL     1       3.555  -7.862   9.614  0.00  0.00    +0.044 A 
ATOM     24  C   UNL     1       3.930  -8.339  10.857  0.00  0.00    +0.043 A 
ATOM     25  C   UNL     1       3.738  -7.560  11.985  0.00  0.00    +0.021 A 
ATOM     26  C   UNL     1       3.171  -6.304  11.874  0.00  0.00    +0.023 A 
ATOM     27  C   UNL     1       2.800  -5.819  10.634  0.00  0.00    +0.062 A 
ATOM     28 CL   UNL     1       2.096  -4.239  10.494  0.00  0.00    -0.082 Cl
ATOM     29 CL   UNL     1       4.641  -9.915  11.002  0.00  0.00    -0.083 Cl
ENDBRANCH  20  22
ENDBRANCH  19  20
ENDBRANCH   2  19
TORSDOF 7
