REMARK  Name = ZINC39677357
REMARK  5 active torsions:
REMARK  status: ('A' for Active; 'I' for Inactive)
REMARK    1  A    between atoms: C_1  and  C_2
REMARK    2  A    between atoms: C_6  and  C_7
REMARK    3  A    between atoms: C_7  and  N_8
REMARK    4  A    between atoms: C_9  and  C_11
REMARK    5  A    between atoms: C_22  and  C_24
REMARK                            x       y       z     vdW  Elec       q    Type
REMARK                         _______ _______ _______ _____ _____    ______ ____
ROOT
ATOM      1  C   UNL     1      -3.007   0.580   4.784  0.00  0.00    +0.100 C 
ATOM      2  C   UNL     1      -3.754  -0.770   4.703  0.00  0.00    +0.121 C 
ATOM      3  N   UNL     1      -3.618  -1.355   6.058  0.00  0.00    -0.296 N 
ATOM      4  C   UNL     1      -3.773  -0.201   6.975  0.00  0.00    +0.115 C 
ATOM      5  C   UNL     1      -3.025   0.952   6.277  0.00  0.00    -0.004 C 
ATOM      6  C   UNL     1      -3.770   2.267   6.484  0.00  0.00    -0.010 C 
ATOM      7  C   UNL     1      -3.723   2.646   7.968  0.00  0.00    -0.082 C 
ATOM      8  N   UNL     1      -2.326   2.778   8.397  0.00  0.00    +0.379 N 
ATOM      9  C   UNL     1      -1.642   1.485   8.281  0.00  0.00    -0.082 C 
ATOM     10  C   UNL     1      -1.600   1.057   6.812  0.00  0.00    -0.010 C 
ATOM     11  C   UNL     1      -3.403  -2.646   6.383  0.00  0.00    +0.252 C 
ATOM     12  O   UNL     1      -3.314  -2.972   7.551  0.00  0.00    -0.270 OA
ATOM     13  H   UNL     1      -1.859   3.457   7.815  0.00  0.00    -0.086 HD
ATOM     14  H   UNL     1      -2.299   3.087   9.357  0.00  0.00    -0.086 HD
ENDROOT
BRANCH  11  15
ATOM     15  C   UNL     1      -3.274  -3.662   5.321  0.00  0.00    +0.108 A 
ATOM     16  C   UNL     1      -2.018  -3.961   4.782  0.00  0.00    +0.138 A 
ATOM     17  C   UNL     1      -1.907  -4.915   3.788  0.00  0.00    +0.041 A 
ATOM     18  C   UNL     1      -3.032  -5.574   3.326  0.00  0.00    +0.026 A 
ATOM     19  C   UNL     1      -4.278  -5.284   3.853  0.00  0.00    +0.077 A 
ATOM     20  C   UNL     1      -4.407  -4.337   4.853  0.00  0.00    +0.156 A 
ATOM     21  F   UNL     1      -5.623  -4.059   5.371  0.00  0.00    -0.203 F 
ATOM     22 CL   UNL     1      -5.682  -6.118   3.264  0.00  0.00    -0.081 Cl
ATOM     23  F   UNL     1      -0.918  -3.319   5.231  0.00  0.00    -0.205 F 
ENDBRANCH  11  15
BRANCH   1  25
ATOM     24  N   UNL     1      -0.948   1.474   3.747  0.00  0.00    -0.310 N 
ATOM     25  C   UNL     1      -1.589   0.425   4.299  0.00  0.00    +0.218 C 
ATOM     26  O   UNL     1      -1.025  -0.643   4.405  0.00  0.00    -0.275 OA
ATOM     27  H   UNL     1      -1.399   2.329   3.662  0.00  0.00    +0.149 HD
BRANCH  24  28
ATOM     28  C   UNL     1       0.431   1.324   3.275  0.00  0.00    +0.147 C 
BRANCH  28  34
ATOM     29  C   UNL     1       1.849   3.578   4.806  0.00  0.00    +0.044 C 
ATOM     30  C   UNL     1       1.542   3.657   3.333  0.00  0.00    -0.039 A 
ATOM     31  C   UNL     1       1.901   4.773   2.600  0.00  0.00    +0.011 A 
ATOM     32  C   UNL     1       1.609   4.812   1.277  0.00  0.00    +0.046 A 
ATOM     33  S   UNL     1       0.802   3.240   1.030  0.00  0.00    -0.100 S 
ATOM     34  C   UNL     1       0.913   2.633   2.706  0.00  0.00    +0.010 A 
ENDBRANCH  28  34
ENDBRANCH  24  28
ENDBRANCH   1  25
TORSDOF 4
