REMARK  Name = ZINC02513679
REMARK  3 active torsions:
REMARK  status: ('A' for Active; 'I' for Inactive)
REMARK    1  A    between atoms: C_1  and  C_2
REMARK    2  A    between atoms: C_5  and  N_9
REMARK    3  A    between atoms: N_15  and  C_18
REMARK                            x       y       z     vdW  Elec       q    Type
REMARK                         _______ _______ _______ _____ _____    ______ ____
ROOT
ATOM      1  N   UNL     1      -0.034  -0.078   0.063  0.00  0.00    -0.269 N 
ATOM      2  C   UNL     1      -0.023   1.152   0.613  0.00  0.00    +0.307 C 
ATOM      3  O   UNL     1      -1.017   1.578   1.168  0.00  0.00    -0.252 OA
ATOM      4  N   UNL     1       1.091   1.908   0.552  0.00  0.00    -0.282 N 
ATOM      5  C   UNL     1       1.089   3.296   1.038  0.00  0.00    +0.128 C 
ATOM      6  C   UNL     1       2.271   3.470   2.004  0.00  0.00    +0.124 C 
ATOM      7  N   UNL     1       3.510   3.049   1.336  0.00  0.00    -0.327 N 
ATOM      8  C   UNL     1       3.471   1.621   0.994  0.00  0.00    +0.124 C 
ATOM      9  C   UNL     1       2.340   1.369  -0.008  0.00  0.00    +0.128 C 
ATOM     10  H   UNL     1       0.788  -0.462  -0.281  0.00  0.00    +0.156 HD
ENDROOT
BRANCH   1  15
ATOM     11  C   UNL     1      -4.885  -3.007  -0.236  0.00  0.00    +0.047 C 
ATOM     12  C   UNL     1      -3.596  -2.230  -0.156  0.00  0.00    -0.015 A 
ATOM     13  C   UNL     1      -3.615  -0.851  -0.259  0.00  0.00    +0.008 A 
ATOM     14  C   UNL     1      -2.436  -0.135  -0.181  0.00  0.00    +0.024 A 
ATOM     15  C   UNL     1      -1.229  -0.802  -0.011  0.00  0.00    +0.038 A 
ATOM     16  C   UNL     1      -1.212  -2.186   0.092  0.00  0.00    +0.062 A 
ATOM     17  C   UNL     1      -2.396  -2.898   0.019  0.00  0.00    +0.128 A 
ATOM     18  F   UNL     1      -2.381  -4.245   0.119  0.00  0.00    -0.205 F 
ENDBRANCH   1  15
BRANCH   7  19
ATOM     19  C   UNL     1       4.627   3.346   2.119  0.00  0.00    +0.030 A 
ATOM     20  C   UNL     1       5.517   2.340   2.473  0.00  0.00    +0.023 A 
ATOM     21  C   UNL     1       6.624   2.639   3.243  0.00  0.00    +0.002 A 
ATOM     22  C   UNL     1       6.841   3.936   3.670  0.00  0.00    +0.000 A 
ATOM     23  C   UNL     1       5.955   4.939   3.324  0.00  0.00    +0.002 A 
ATOM     24  C   UNL     1       4.849   4.648   2.549  0.00  0.00    +0.023 A 
ENDBRANCH   7  19
TORSDOF 2
