REMARK  Name = ZINC36639855
REMARK  7 active torsions:
REMARK  status: ('A' for Active; 'I' for Inactive)
REMARK    1  A    between atoms: C_1  and  C_2
REMARK    2  A    between atoms: C_3  and  C_21
REMARK    3  A    between atoms: C_8  and  C_10
REMARK    4  A    between atoms: C_14  and  N_16
REMARK    5  A    between atoms: C_21  and  C_22
REMARK    6  A    between atoms: C_25  and  S_28
REMARK    7  A    between atoms: S_28  and  N_31
REMARK                            x       y       z     vdW  Elec       q    Type
REMARK                         _______ _______ _______ _____ _____    ______ ____
ROOT
ATOM      1  C   UNL     1      -0.018   1.503   0.010  0.00  0.00    +0.066 C 
ATOM      2  C   UNL     1       0.002  -0.004   0.002  0.00  0.00    +0.051 A 
ATOM      3  C   UNL     1       0.006  -0.706  -1.158  0.00  0.00    +0.018 A 
ATOM      4  S   UNL     1       0.032  -2.379  -0.535  0.00  0.00    -0.056 S 
ATOM      5  C   UNL     1       0.035  -2.015   1.108  0.00  0.00    +0.165 A 
ATOM      6  N   UNL     1       0.023  -0.700   1.124  0.00  0.00    -0.230 NA
ATOM      7  N   UNL     1       0.052  -2.891   2.186  0.00  0.00    -0.261 N 
ATOM      8  C   UNL     1       0.052  -2.410   3.445  0.00  0.00    +0.250 C 
ATOM      9  O   UNL     1       0.036  -1.210   3.638  0.00  0.00    -0.270 OA
ATOM     10  H   UNL     1       0.064  -3.849   2.033  0.00  0.00    +0.157 HD
ENDROOT
BRANCH   8  11
ATOM     11  C   UNL     1       0.070  -3.342   4.592  0.00  0.00    +0.039 A 
ATOM     12  C   UNL     1       0.094  -4.721   4.374  0.00  0.00    +0.013 A 
ATOM     13  C   UNL     1       0.111  -5.589   5.447  0.00  0.00    +0.003 A 
ATOM     14  C   UNL     1       0.105  -5.098   6.739  0.00  0.00    +0.028 A 
ATOM     15  C   UNL     1       0.081  -3.727   6.967  0.00  0.00    +0.069 A 
ATOM     16  C   UNL     1       0.070  -2.847   5.896  0.00  0.00    +0.041 A 
BRANCH  15  17
ATOM     17  N   UNL     1       0.075  -3.235   8.280  0.00  0.00    -0.200 N 
ATOM     18  C   UNL     1       0.189  -3.945   9.423  0.00  0.00    +0.250 A 
ATOM     19  N   UNL     1       0.135  -3.095  10.415  0.00  0.00    -0.116 NA
ATOM     20  N   UNL     1      -0.005  -1.896   9.977  0.00  0.00    -0.023 NA
ATOM     21  N   UNL     1      -0.044  -1.894   8.688  0.00  0.00    -0.039 NA
ENDBRANCH  15  17
ENDBRANCH   8  11
BRANCH   3  22
ATOM     22  C   UNL     1      -0.009  -0.210  -2.581  0.00  0.00    +0.079 C 
BRANCH  22  23
ATOM     23  C   UNL     1       1.407  -0.025  -3.063  0.00  0.00    -0.042 A 
ATOM     24  C   UNL     1       2.045   1.189  -2.885  0.00  0.00    +0.006 A 
ATOM     25  C   UNL     1       3.343   1.359  -3.327  0.00  0.00    +0.029 A 
ATOM     26  C   UNL     1       4.005   0.315  -3.947  0.00  0.00    +0.105 A 
ATOM     27  C   UNL     1       3.368  -0.899  -4.124  0.00  0.00    +0.029 A 
ATOM     28  C   UNL     1       2.070  -1.071  -3.678  0.00  0.00    +0.006 A 
BRANCH  26  29
ATOM     29  S   UNL     1       5.660   0.531  -4.511  0.00  0.00    +0.056 S 
ATOM     30  O   UNL     1       5.865  -0.423  -5.544  0.00  0.00    -0.153 OA
ATOM     31  O   UNL     1       5.840   1.926  -4.716  0.00  0.00    -0.153 OA
BRANCH  29  32
ATOM     32  N   UNL     1       6.662   0.103  -3.265  0.00  0.00    -0.204 NA
ATOM     33  H   UNL     1       6.287  -0.198  -2.422  0.00  0.00    +0.144 HD
ATOM     34  H   UNL     1       7.624   0.153  -3.377  0.00  0.00    +0.144 HD
ENDBRANCH  29  32
ENDBRANCH  26  29
ENDBRANCH  22  23
ENDBRANCH   3  22
TORSDOF 6
