REMARK  Name = ZINC19972660
REMARK  4 active torsions:
REMARK  status: ('A' for Active; 'I' for Inactive)
REMARK    1  A    between atoms: C_1  and  C_2
REMARK    2  A    between atoms: C_2  and  C_30
REMARK    3  A    between atoms: C_6  and  N_22
REMARK    4  A    between atoms: C_13  and  N_17
REMARK                            x       y       z     vdW  Elec       q    Type
REMARK                         _______ _______ _______ _____ _____    ______ ____
ROOT
ATOM      1  C   UNL     1       0.525   1.731   7.376  0.00  0.00    +0.041 C 
ATOM      2  C   UNL     1      -0.191   1.966   6.045  0.00  0.00    +0.068 C 
ATOM      3  C   UNL     1      -1.055   3.225   6.139  0.00  0.00    +0.070 C 
ATOM      4  C   UNL     1      -1.530   3.619   4.766  0.00  0.00    -0.024 A 
ATOM      5  C   UNL     1      -0.949   3.132   3.636  0.00  0.00    +0.022 A 
ATOM      6  C   UNL     1      -1.417   3.539   2.382  0.00  0.00    +0.128 A 
ATOM      7  N   UNL     1      -2.430   4.385   2.286  0.00  0.00    -0.224 NA
ATOM      8  C   UNL     1      -3.019   4.869   3.359  0.00  0.00    +0.113 A 
ATOM      9  C   UNL     1      -2.614   4.525   4.660  0.00  0.00    +0.037 A 
ATOM     10  C   UNL     1      -3.372   5.151   5.759  0.00  0.00    +0.093 A 
ATOM     11  C   UNL     1      -4.406   6.014   5.374  0.00  0.00    +0.080 A 
ATOM     12  S   UNL     1      -4.371   5.994   3.603  0.00  0.00    -0.064 S 
ATOM     13  C   UNL     1      -5.187   6.659   6.323  0.00  0.00    +0.139 A 
ATOM     14  N   UNL     1      -4.928   6.437   7.611  0.00  0.00    -0.220 NA
ATOM     15  C   UNL     1      -3.950   5.620   7.957  0.00  0.00    +0.224 A 
ATOM     16  N   UNL     1      -3.193   4.995   7.090  0.00  0.00    -0.234 NA
ATOM     17  C   UNL     1       0.201   2.161   3.698  0.00  0.00    +0.199 C 
ATOM     18  O   UNL     1       0.776   2.157   5.005  0.00  0.00    -0.369 OA
ATOM     19  C   UNL     1      -1.071   0.759   5.713  0.00  0.00    +0.041 C 
ENDROOT
BRANCH   6  20
ATOM     20  N   UNL     1      -0.817   3.048   1.230  0.00  0.00    -0.310 N 
ATOM     21  C   UNL     1      -1.514   1.848   0.745  0.00  0.00    +0.134 C 
ATOM     22  C   UNL     1      -0.787   1.306  -0.489  0.00  0.00    +0.178 C 
ATOM     23  O   UNL     1      -0.715   2.332  -1.483  0.00  0.00    -0.377 OA
ATOM     24  C   UNL     1      -0.042   3.514  -1.044  0.00  0.00    +0.178 C 
ATOM     25  C   UNL     1      -0.762   4.079   0.184  0.00  0.00    +0.134 C 
ENDBRANCH   6  20
BRANCH  13  26
ATOM     26  N   UNL     1      -6.210   7.513   5.940  0.00  0.00    -0.314 N 
ATOM     27  C   UNL     1      -7.253   6.784   5.175  0.00  0.00    +0.106 C 
ATOM     28  C   UNL     1      -8.493   7.705   5.298  0.00  0.00    +0.020 C 
ATOM     29  C   UNL     1      -8.382   8.241   6.744  0.00  0.00    +0.020 C 
ATOM     30  C   UNL     1      -6.897   8.079   7.120  0.00  0.00    +0.106 C 
ENDBRANCH  13  26
TORSDOF 2
