REMARK  Name = ZINC40041098
REMARK  4 active torsions:
REMARK  status: ('A' for Active; 'I' for Inactive)
REMARK    1  A    between atoms: C_1  and  C_2
REMARK    2  A    between atoms: C_4  and  C_31
REMARK    3  A    between atoms: C_16  and  C_18
REMARK    4  A    between atoms: C_28  and  C_30
REMARK                            x       y       z     vdW  Elec       q    Type
REMARK                         _______ _______ _______ _____ _____    ______ ____
ROOT
ATOM      1  C   UNL     1      -0.018   1.503   0.010  0.00  0.00    +0.044 C 
ATOM      2  C   UNL     1       0.002  -0.004   0.002  0.00  0.00    -0.049 A 
ATOM      3  C   UNL     1       0.006  -0.689  -1.205  0.00  0.00    +0.010 A 
ATOM      4  C   UNL     1       0.022  -2.065  -1.235  0.00  0.00    -0.007 A 
ATOM      5  C   UNL     1       0.035  -2.790  -0.043  0.00  0.00    +0.142 A 
ATOM      6  C   UNL     1       0.037  -2.086   1.172  0.00  0.00    +0.065 A 
ATOM      7  C   UNL     1       0.023  -0.692   1.183  0.00  0.00    +0.018 A 
ATOM      8  C   UNL     1       0.067  -2.849   2.446  0.00  0.00    +0.199 A 
ATOM      9  O   UNL     1      -0.098  -2.332   3.537  0.00  0.00    -0.287 OA
ATOM     10  C   UNL     1       0.313  -4.283   2.266  0.00  0.00    +0.072 A 
ATOM     11  C   UNL     1       0.294  -4.850   1.023  0.00  0.00    +0.199 A 
ATOM     12  O   UNL     1       0.043  -4.142  -0.096  0.00  0.00    -0.449 OA
ATOM     13  C   UNL     1       0.582  -6.287   1.166  0.00  0.00    +0.289 C 
ATOM     14  O   UNL     1       0.643  -7.080   0.247  0.00  0.00    -0.266 OA
ATOM     15  N   UNL     1       0.769  -6.595   2.466  0.00  0.00    -0.230 N 
ATOM     16  C   UNL     1       0.613  -5.362   3.254  0.00  0.00    +0.151 C 
ATOM     17  C   UNL     1       1.059  -7.856   2.972  0.00  0.00    +0.191 A 
ATOM     18  N   UNL     1       1.251  -8.249   4.223  0.00  0.00    -0.125 NA
ATOM     19  N   UNL     1       1.508  -9.450   4.511  0.00  0.00    -0.145 NA
ATOM     20  C   UNL     1       1.603 -10.388   3.590  0.00  0.00    +0.101 A 
ATOM     21  S   UNL     1       1.272  -9.417   2.122  0.00  0.00    -0.035 S 
ATOM     22  C   UNL     1       1.898 -11.859   3.732  0.00  0.00    +0.075 C 
ATOM     23  C   UNL     1       0.024  -2.790  -2.557  0.00  0.00    +0.047 C 
ENDROOT
BRANCH  16  24
ATOM     24  C   UNL     1       1.889  -5.051   3.992  0.00  0.00    -0.022 A 
ATOM     25  C   UNL     1       3.111  -5.308   3.398  0.00  0.00    +0.007 A 
ATOM     26  C   UNL     1       4.282  -5.023   4.074  0.00  0.00    +0.015 A 
ATOM     27  C   UNL     1       4.232  -4.480   5.345  0.00  0.00    +0.018 A 
ATOM     28  C   UNL     1       3.009  -4.223   5.939  0.00  0.00    +0.015 A 
ATOM     29  C   UNL     1       1.839  -4.504   5.260  0.00  0.00    +0.007 A 
ATOM     30 BR   UNL     1       5.834  -4.090   6.271  0.00  0.00    -0.050 Br
ENDBRANCH  16  24
TORSDOF 1
