REMARK  Name = ZINC09309154
REMARK  7 active torsions:
REMARK  status: ('A' for Active; 'I' for Inactive)
REMARK    1  A    between atoms: C_4  and  N_10
REMARK    2  A    between atoms: C_5  and  C_7
REMARK    3  A    between atoms: N_10  and  C_11
REMARK    4  A    between atoms: C_11  and  C_12
REMARK    5  A    between atoms: C_13  and  C_23
REMARK    6  A    between atoms: N_25  and  N_26
REMARK    7  A    between atoms: C_27  and  C_28
REMARK                            x       y       z     vdW  Elec       q    Type
REMARK                         _______ _______ _______ _____ _____    ______ ____
ROOT
ATOM      1  C   UNL     1       8.363   3.583  -0.052  0.00  0.00    +0.096 A 
ATOM      2  C   UNL     1       7.314   2.709  -0.026  0.00  0.00    +0.174 A 
ATOM      3  N   UNL     1       7.801   1.456  -0.037  0.00  0.00    -0.124 NA
ATOM      4  N   UNL     1       9.088   1.494  -0.076  0.00  0.00    -0.058 NA
ATOM      5  N   UNL     1       9.491   2.837  -0.084  0.00  0.00    -0.190 N 
ATOM      6  C   UNL     1      10.806   3.314  -0.119  0.00  0.00    +0.240 A 
ATOM      7  C   UNL     1      12.017   2.488  -0.153  0.00  0.00    +0.206 A 
ATOM      8  N   UNL     1      13.053   3.281  -0.180  0.00  0.00    -0.032 NA
ATOM      9  O   UNL     1      12.578   4.616  -0.165  0.00  0.00    -0.239 OA
ATOM     10  N   UNL     1      11.163   4.567  -0.131  0.00  0.00    -0.027 NA
ATOM     11  N   UNL     1      12.055   1.099  -0.156  0.00  0.00    -0.337 N 
ATOM     12  H   UNL     1      11.229   0.591  -0.134  0.00  0.00    +0.144 HD
ATOM     13  H   UNL     1      12.907   0.637  -0.180  0.00  0.00    +0.144 HD
ENDROOT
BRANCH   2  14
ATOM     14  C   UNL     1       5.886   3.078   0.014  0.00  0.00    +0.285 C 
ATOM     15  O   UNL     1       5.561   4.250   0.026  0.00  0.00    -0.267 OA
ATOM     16  N   UNL     1       4.942   2.116   0.037  0.00  0.00    -0.202 N 
ATOM     17  H   UNL     1       5.201   1.182   0.028  0.00  0.00    +0.178 HD
BRANCH  16  18
ATOM     18  N   UNL     1       3.586   2.467   0.075  0.00  0.00    -0.187 NA
ATOM     19  C   UNL     1       2.677   1.541   0.097  0.00  0.00    +0.141 C 
BRANCH  19  20
ATOM     20  C   UNL     1       1.249   1.910   0.137  0.00  0.00    +0.032 A 
ATOM     21  C   UNL     1       0.097   0.999   0.166  0.00  0.00    +0.050 A 
ATOM     22  C   UNL     1      -0.994   1.781   0.193  0.00  0.00    +0.195 A 
ATOM     23  O   UNL     1      -0.612   3.067   0.193  0.00  0.00    -0.470 OA
ATOM     24  C   UNL     1       0.725   3.167   0.156  0.00  0.00    +0.204 A 
ENDBRANCH  19  20
ENDBRANCH  16  18
ENDBRANCH   2  14
BRANCH   1  25
ATOM     25  C   UNL     1       8.281   5.087  -0.047  0.00  0.00    +0.159 C 
BRANCH  25  26
ATOM     26  N   UNL     1       8.217   5.577  -1.426  0.00  0.00    -0.338 N 
ATOM     27  H   UNL     1       8.232   4.949  -2.165  0.00  0.00    +0.146 HD
BRANCH  26  31
ATOM     28  C   UNL     1       7.973   9.669  -2.171  0.00  0.00    +0.001 A 
ATOM     29  C   UNL     1       7.924   9.191  -0.871  0.00  0.00    +0.002 A 
ATOM     30  C   UNL     1       8.000   7.837  -0.622  0.00  0.00    +0.024 A 
ATOM     31  C   UNL     1       8.136   6.941  -1.675  0.00  0.00    +0.040 A 
ATOM     32  C   UNL     1       8.184   7.422  -2.993  0.00  0.00    +0.057 A 
ATOM     33  C   UNL     1       8.101   8.796  -3.229  0.00  0.00    +0.015 A 
BRANCH  32  34
ATOM     34  C   UNL     1       8.322   6.482  -4.121  0.00  0.00    +0.243 C 
ATOM     35  O   UNL     1       8.286   5.283  -3.921  0.00  0.00    -0.270 OA
ATOM     36  N   UNL     1       8.487   6.952  -5.373  0.00  0.00    -0.325 N 
ATOM     37  H   UNL     1       8.516   7.908  -5.532  0.00  0.00    +0.145 HD
ATOM     38  H   UNL     1       8.578   6.333  -6.115  0.00  0.00    +0.145 HD
ENDBRANCH  32  34
ENDBRANCH  26  31
ENDBRANCH  25  26
ENDBRANCH   1  25
TORSDOF 7
