REMARK  Name = ZINC09006167
REMARK  8 active torsions:
REMARK  status: ('A' for Active; 'I' for Inactive)
REMARK    1  A    between atoms: C_3  and  C_7
REMARK    2  A    between atoms: C_7  and  C_9
REMARK    3  A    between atoms: C_7  and  S_22
REMARK    4  A    between atoms: C_9  and  N_10
REMARK    5  A    between atoms: C_11  and  C_13
REMARK    6  A    between atoms: C_13  and  O_14
REMARK    7  A    between atoms: O_14  and  C_15
REMARK    8  A    between atoms: S_22  and  C_25
REMARK                            x       y       z     vdW  Elec       q    Type
REMARK                         _______ _______ _______ _____ _____    ______ ____
ROOT
ATOM      1  C   UNL     1       4.413   8.596   0.005  0.00  0.00    +0.184 C 
ENDROOT
BRANCH   1   4
ATOM      2  C   UNL     1       4.457  12.241  -0.971  0.00  0.00    +0.020 A 
ATOM      3  C   UNL     1       4.684  10.873  -1.019  0.00  0.00    +0.008 A 
ATOM      4  C   UNL     1       4.198  10.087   0.014  0.00  0.00    -0.003 A 
ATOM      5  C   UNL     1       3.517  10.690   1.056  0.00  0.00    +0.116 A 
ATOM      6  N   UNL     1       3.325  11.994   1.071  0.00  0.00    -0.263 NA
ATOM      7  C   UNL     1       3.768  12.772   0.103  0.00  0.00    +0.111 A 
ENDBRANCH   1   4
BRANCH   1   8
ATOM      8  S   UNL     1       5.360   8.112   1.474  0.00  0.00    +0.005 S 
ATOM      9  O   UNL     1       4.682   8.529   2.652  0.00  0.00    -0.169 OA
ATOM     10  O   UNL     1       5.823   6.776   1.340  0.00  0.00    -0.169 OA
BRANCH   8  11
ATOM     11  C   UNL     1       6.817   9.101   1.420  0.00  0.00    +0.089 A 
ATOM     12  C   UNL     1       7.944   8.636   0.767  0.00  0.00    +0.028 A 
ATOM     13  C   UNL     1       9.085   9.414   0.720  0.00  0.00    +0.022 A 
ATOM     14  C   UNL     1       9.104  10.653   1.335  0.00  0.00    +0.041 A 
ATOM     15  C   UNL     1       7.978  11.115   1.992  0.00  0.00    +0.022 A 
ATOM     16  C   UNL     1       6.835  10.339   2.035  0.00  0.00    +0.028 A 
ATOM     17 CL   UNL     1      10.540  11.627   1.281  0.00  0.00    -0.084 Cl
ENDBRANCH   8  11
ENDBRANCH   1   8
BRANCH   1  18
ATOM     18  C   UNL     1       3.058   7.885   0.014  0.00  0.00    +0.135 C 
BRANCH  18  19
ATOM     19  N   UNL     1       3.268   6.435   0.004  0.00  0.00    -0.310 N 
ATOM     20  C   UNL     1       2.209   5.601   0.010  0.00  0.00    +0.251 C 
ATOM     21  O   UNL     1       1.083   6.051   0.023  0.00  0.00    -0.272 OA
ATOM     22  H   UNL     1       4.169   6.075  -0.006  0.00  0.00    +0.149 HD
BRANCH  20  23
ATOM     23  C   UNL     1       2.425   4.109   0.001  0.00  0.00    +0.324 C 
BRANCH  23  24
ATOM     24  O   UNL     1       1.159   3.445   0.009  0.00  0.00    -0.483 OA
BRANCH  24  25
ATOM     25  C   UNL     1       1.176   2.086   0.002  0.00  0.00    +0.121 A 
ATOM     26  C   UNL     1      -0.017   1.377   0.010  0.00  0.00    +0.047 A 
ATOM     27  C   UNL     1       0.002  -0.004   0.002  0.00  0.00    +0.023 A 
ATOM     28  C   UNL     1       1.209  -0.680  -0.013  0.00  0.00    +0.041 A 
ATOM     29  C   UNL     1       2.399   0.025  -0.020  0.00  0.00    +0.023 A 
ATOM     30  C   UNL     1       2.385   1.406  -0.012  0.00  0.00    +0.047 A 
ATOM     31 CL   UNL     1       1.230  -2.416  -0.023  0.00  0.00    -0.084 Cl
ENDBRANCH  24  25
ENDBRANCH  23  24
ENDBRANCH  20  23
ENDBRANCH  18  19
ENDBRANCH   1  18
TORSDOF 8
