REMARK  Name = ZINC03600786
REMARK  3 active torsions:
REMARK  status: ('A' for Active; 'I' for Inactive)
REMARK    1  A    between atoms: N_13  and  C_17
REMARK    2  A    between atoms: C_17  and  C_18
REMARK    3  A    between atoms: N_20  and  C_21
REMARK                            x       y       z     vdW  Elec       q    Type
REMARK                         _______ _______ _______ _____ _____    ______ ____
ROOT
ATOM      1  C   UNL     1       2.365  -2.531   3.587  0.00  0.00    +0.000 A 
ATOM      2  C   UNL     1       2.158  -1.164   3.607  0.00  0.00    +0.000 A 
ATOM      3  C   UNL     1       1.864  -0.498   2.436  0.00  0.00    +0.006 A 
ATOM      4  C   UNL     1       1.775  -1.188   1.234  0.00  0.00    -0.012 A 
ATOM      5  C   UNL     1       1.985  -2.550   1.214  0.00  0.00    -0.042 A 
ATOM      6  C   UNL     1       2.279  -3.219   2.394  0.00  0.00    +0.004 A 
ATOM      7  C   UNL     1       1.916  -3.358  -0.056  0.00  0.00    +0.035 C 
ATOM      8  C   UNL     1       1.160  -2.594  -1.141  0.00  0.00    +0.008 C 
ATOM      9  C   UNL     1       1.776  -1.195  -1.268  0.00  0.00    +0.040 C 
ATOM     10  C   UNL     1       1.447  -0.406  -0.006  0.00  0.00    +0.138 C 
ATOM     11  C   UNL     1       2.191   0.911  -0.004  0.00  0.00    +0.251 C 
ATOM     12  O   UNL     1       3.392   1.075  -0.006  0.00  0.00    -0.272 OA
ATOM     13  N   UNL     1       1.237   1.865   0.002  0.00  0.00    -0.215 N 
ATOM     14  C   UNL     1       0.009   1.333   0.003  0.00  0.00    +0.310 C 
ATOM     15  O   UNL     1      -1.013   1.991   0.003  0.00  0.00    -0.252 OA
ATOM     16  N   UNL     1       0.032  -0.013  -0.002  0.00  0.00    -0.281 N 
ATOM     17  H   UNL     1      -0.736  -0.607  -0.003  0.00  0.00    +0.152 HD
ENDROOT
BRANCH  13  18
ATOM     18  C   UNL     1       1.511   3.304   0.006  0.00  0.00    +0.214 C 
BRANCH  18  19
ATOM     19  C   UNL     1       1.610   3.792   1.428  0.00  0.00    +0.235 C 
ATOM     20  O   UNL     1       1.465   3.014   2.348  0.00  0.00    -0.274 OA
ATOM     21  N   UNL     1       1.858   5.093   1.679  0.00  0.00    -0.283 N 
ATOM     22  H   UNL     1       2.039   5.702   0.946  0.00  0.00    +0.155 HD
BRANCH  21  23
ATOM     23  C   UNL     1       1.857   5.564   2.997  0.00  0.00    +0.053 A 
ATOM     24  C   UNL     1       2.313   4.753   4.027  0.00  0.00    +0.025 A 
ATOM     25  C   UNL     1       2.316   5.222   5.326  0.00  0.00    +0.003 A 
ATOM     26  C   UNL     1       1.854   6.496   5.604  0.00  0.00    +0.021 A 
ATOM     27  C   UNL     1       1.393   7.306   4.581  0.00  0.00    +0.061 A 
ATOM     28  C   UNL     1       1.394   6.844   3.277  0.00  0.00    +0.080 A 
ATOM     29 CL   UNL     1       0.816   7.860   1.994  0.00  0.00    -0.080 Cl
ATOM     30 CL   UNL     1       0.815   8.905   4.934  0.00  0.00    -0.082 Cl
ENDBRANCH  21  23
ENDBRANCH  18  19
ENDBRANCH  13  18
TORSDOF 3
