REMARK  Name = ZINC60389131
REMARK  17 active torsions:
REMARK  status: ('A' for Active; 'I' for Inactive)
REMARK    1  A    between atoms: C_1  and  C_2
REMARK    2  A    between atoms: C_2  and  C_3
REMARK    3  A    between atoms: C_3  and  N_4
REMARK    4  A    between atoms: N_4  and  C_5
REMARK    5  A    between atoms: C_5  and  C_6
REMARK    6  A    between atoms: C_9  and  O_15
REMARK    7  A    between atoms: C_10  and  O_12
REMARK    8  A    between atoms: O_12  and  C_13
REMARK    9  A    between atoms: C_13  and  C_14
REMARK   10  A    between atoms: O_15  and  C_16
REMARK   11  A    between atoms: C_16  and  C_17
REMARK   12  A    between atoms: C_17  and  C_18
REMARK   13  A    between atoms: C_19  and  C_21
REMARK   14  A    between atoms: C_21  and  O_22
REMARK   15  A    between atoms: O_22  and  C_23
REMARK   16  A    between atoms: C_28  and  O_29
REMARK   17  A    between atoms: O_29  and  C_30
REMARK                            x       y       z     vdW  Elec       q    Type
REMARK                         _______ _______ _______ _____ _____    ______ ____
ROOT
ATOM      1  N   UNL     1       0.762  -1.976   1.234  0.00  0.00    -0.294 N 
ATOM      2  C   UNL     1      -0.234  -2.667   1.823  0.00  0.00    +0.253 C 
ATOM      3  O   UNL     1      -0.218  -3.879   1.816  0.00  0.00    -0.272 OA
ENDROOT
BRANCH   1   4
ATOM      4  C   UNL     1       0.742  -0.511   1.242  0.00  0.00    +0.108 C 
BRANCH   4   6
ATOM      5  C   UNL     1      -0.019   1.526   0.010  0.00  0.00    +0.005 C 
ATOM      6  C   UNL     1       0.002  -0.004   0.002  0.00  0.00    +0.016 C 
ENDBRANCH   4   6
ENDBRANCH   1   4
BRANCH   1   7
ATOM      7  C   UNL     1       1.864  -2.690   0.585  0.00  0.00    +0.143 C 
BRANCH   7   8
ATOM      8  C   UNL     1       2.965  -2.932   1.586  0.00  0.00    -0.026 A 
ATOM      9  C   UNL     1       3.967  -1.993   1.750  0.00  0.00    +0.009 A 
ATOM     10  C   UNL     1       4.978  -2.211   2.667  0.00  0.00    +0.050 A 
ATOM     11  C   UNL     1       4.989  -3.370   3.425  0.00  0.00    +0.162 A 
ATOM     12  C   UNL     1       3.980  -4.314   3.260  0.00  0.00    +0.162 A 
ATOM     13  C   UNL     1       2.966  -4.088   2.343  0.00  0.00    +0.054 A 
BRANCH  12  14
ATOM     14  O   UNL     1       3.986  -5.454   4.002  0.00  0.00    -0.489 OA
BRANCH  14  15
ATOM     15  C   UNL     1       2.918  -6.378   3.780  0.00  0.00    +0.226 C 
ATOM     16  C   UNL     1       3.093  -7.590   4.698  0.00  0.00    +0.048 C 
ENDBRANCH  14  15
ENDBRANCH  12  14
BRANCH  11  17
ATOM     17  O   UNL     1       5.983  -3.586   4.327  0.00  0.00    -0.488 OA
BRANCH  17  18
ATOM     18  C   UNL     1       6.985  -2.574   4.442  0.00  0.00    +0.229 C 
BRANCH  18  19
ATOM     19  C   UNL     1       8.011  -2.989   5.498  0.00  0.00    +0.038 C 
ATOM     20  C   UNL     1       9.085  -1.906   5.621  0.00  0.00    +0.007 C 
ENDBRANCH  18  19
ENDBRANCH  17  18
ENDBRANCH  11  17
ENDBRANCH   7   8
ENDBRANCH   1   7
BRANCH   2  21
ATOM     21  C   UNL     1      -1.368  -1.932   2.490  0.00  0.00    +0.325 C 
BRANCH  21  22
ATOM     22  O   UNL     1      -2.291  -2.876   3.037  0.00  0.00    -0.479 OA
BRANCH  22  23
ATOM     23  C   UNL     1      -3.380  -2.375   3.679  0.00  0.00    +0.163 A 
ATOM     24  C   UNL     1      -3.559  -1.004   3.774  0.00  0.00    +0.049 A 
ATOM     25  C   UNL     1      -4.668  -0.496   4.426  0.00  0.00    +0.004 A 
ATOM     26  C   UNL     1      -5.598  -1.352   4.984  0.00  0.00    +0.004 A 
ATOM     27  C   UNL     1      -5.425  -2.721   4.893  0.00  0.00    +0.049 A 
ATOM     28  C   UNL     1      -4.320  -3.237   4.235  0.00  0.00    +0.162 A 
BRANCH  28  29
ATOM     29  O   UNL     1      -4.151  -4.583   4.139  0.00  0.00    -0.491 OA
ATOM     30  C   UNL     1      -5.156  -5.407   4.734  0.00  0.00    +0.277 C 
ENDBRANCH  28  29
ENDBRANCH  22  23
ENDBRANCH  21  22
ENDBRANCH   2  21
TORSDOF 13
