REMARK  Name = ZINC10141799
REMARK  7 active torsions:
REMARK  status: ('A' for Active; 'I' for Inactive)
REMARK    1  A    between atoms: C_4  and  N_25
REMARK    2  A    between atoms: C_5  and  C_7
REMARK    3  A    between atoms: C_7  and  O_9
REMARK    4  A    between atoms: O_9  and  C_10
REMARK    5  A    between atoms: C_10  and  C_11
REMARK    6  A    between atoms: N_13  and  C_14
REMARK    7  A    between atoms: C_17  and  N_21
REMARK                            x       y       z     vdW  Elec       q    Type
REMARK                         _______ _______ _______ _____ _____    ______ ____
ROOT
ATOM      1  C   UNL     1       5.488   5.122   0.521  0.00  0.00    +0.255 C 
ATOM      2  O   UNL     1       4.576   5.654   1.118  0.00  0.00    -0.272 OA
ATOM      3  N   UNL     1       6.405   5.876  -0.118  0.00  0.00    -0.281 N 
ATOM      4  H   UNL     1       7.088   5.452  -0.661  0.00  0.00    +0.155 HD
ENDROOT
BRANCH   3   5
ATOM      5  C   UNL     1       6.373   7.270   0.004  0.00  0.00    +0.062 A 
ATOM      6  C   UNL     1       5.203   7.966  -0.275  0.00  0.00    +0.042 A 
ATOM      7  C   UNL     1       5.173   9.342  -0.149  0.00  0.00    +0.050 A 
ATOM      8  C   UNL     1       6.309  10.027   0.244  0.00  0.00    +0.128 A 
ATOM      9  C   UNL     1       7.476   9.338   0.516  0.00  0.00    +0.050 A 
ATOM     10  C   UNL     1       7.512   7.961   0.398  0.00  0.00    +0.042 A 
ATOM     11 BR   UNL     1       9.108   7.020   0.771  0.00  0.00    -0.048 Br
ATOM     12 BR   UNL     1       3.652   7.032  -0.820  0.00  0.00    -0.048 Br
BRANCH   8  13
ATOM     13  N   UNL     1       6.274  11.501   0.373  0.00  0.00    +0.056 N 
ATOM     14  O   UNL     1       7.273  12.106   0.719  0.00  0.00    -0.126 OA
ATOM     15  O   UNL     1       5.247  12.110   0.133  0.00  0.00    -0.126 OA
ENDBRANCH   8  13
ENDBRANCH   3   5
BRANCH   1  16
ATOM     16  C   UNL     1       5.596   3.619   0.492  0.00  0.00    +0.328 C 
BRANCH  16  17
ATOM     17  O   UNL     1       4.499   3.041   1.247  0.00  0.00    -0.451 OA
BRANCH  17  18
ATOM     18  C   UNL     1       4.448   1.697   1.320  0.00  0.00    +0.362 C 
ATOM     19  O   UNL     1       5.298   1.026   0.769  0.00  0.00    -0.243 OA
BRANCH  18  24
ATOM     20  C   UNL     1       1.399   1.172   3.250  0.00  0.00    +0.131 A 
ATOM     21  C   UNL     1       1.407  -0.205   3.428  0.00  0.00    +0.132 A 
ATOM     22  N   UNL     1       2.385  -0.936   2.927  0.00  0.00    -0.237 NA
ATOM     23  C   UNL     1       3.369  -0.354   2.250  0.00  0.00    +0.149 A 
ATOM     24  C   UNL     1       3.361   1.039   2.071  0.00  0.00    +0.187 A 
ATOM     25  N   UNL     1       2.368   1.762   2.581  0.00  0.00    -0.244 NA
BRANCH  23  26
ATOM     26  N   UNL     1       4.396  -1.116   1.724  0.00  0.00    -0.341 N 
ATOM     27  H   UNL     1       4.442  -2.066   1.917  0.00  0.00    +0.144 HD
ATOM     28  H   UNL     1       5.069  -0.701   1.163  0.00  0.00    +0.144 HD
ENDBRANCH  23  26
ENDBRANCH  18  24
ENDBRANCH  17  18
ENDBRANCH  16  17
ENDBRANCH   1  16
TORSDOF 7
