REMARK  Name = ZINC66587269
REMARK  7 active torsions:
REMARK  status: ('A' for Active; 'I' for Inactive)
REMARK    1  A    between atoms: C_1  and  C_2
REMARK    2  A    between atoms: C_5  and  N_11
REMARK    3  A    between atoms: C_7  and  C_8
REMARK    4  A    between atoms: N_11  and  S_12
REMARK    5  A    between atoms: S_12  and  C_15
REMARK    6  A    between atoms: C_18  and  O_22
REMARK    7  A    between atoms: O_22  and  C_23
REMARK                            x       y       z     vdW  Elec       q    Type
REMARK                         _______ _______ _______ _____ _____    ______ ____
ROOT
ATOM      1  S   UNL     1       0.395  -4.941  -1.541  0.00  0.00    +0.092 S 
ATOM      2  O   UNL     1      -0.975  -4.896  -1.915  0.00  0.00    -0.148 OA
ATOM      3  O   UNL     1       1.430  -4.442  -2.378  0.00  0.00    -0.148 OA
ENDROOT
BRANCH   1   4
ATOM      4  C   UNL     1       0.775  -6.631  -1.222  0.00  0.00    +0.112 A 
ATOM      5  C   UNL     1       2.082  -7.074  -1.314  0.00  0.00    +0.032 A 
ATOM      6  C   UNL     1       2.383  -8.399  -1.065  0.00  0.00    +0.049 A 
ATOM      7  C   UNL     1       1.373  -9.286  -0.722  0.00  0.00    +0.145 A 
ATOM      8  C   UNL     1       0.062  -8.840  -0.630  0.00  0.00    +0.085 A 
ATOM      9  C   UNL     1      -0.233  -7.511  -0.875  0.00  0.00    +0.052 A 
ATOM     10 CL   UNL     1      -1.204  -9.947  -0.201  0.00  0.00    -0.080 Cl
BRANCH   7  11
ATOM     11  O   UNL     1       1.667 -10.591  -0.477  0.00  0.00    -0.433 OA
BRANCH  11  12
ATOM     12  C   UNL     1       3.038 -10.979  -0.591  0.00  0.00    +0.541 C 
ATOM     13  F   UNL     1       3.486 -10.731  -1.893  0.00  0.00    -0.166 F 
ATOM     14  F   UNL     1       3.808 -10.243   0.316  0.00  0.00    -0.166 F 
ENDBRANCH  11  12
ENDBRANCH   7  11
ENDBRANCH   1   4
BRANCH   1  15
ATOM     15  N   UNL     1       0.519  -4.131  -0.102  0.00  0.00    -0.098 NA
BRANCH  15  20
ATOM     16  C   UNL     1      -0.501   1.454   0.081  0.00  0.00    +0.044 C 
ATOM     17  C   UNL     1      -0.230  -0.027   0.036  0.00  0.00    -0.038 A 
ATOM     18  C   UNL     1      -0.330  -0.711  -1.159  0.00  0.00    +0.006 A 
ATOM     19  C   UNL     1      -0.082  -2.070  -1.206  0.00  0.00    +0.027 A 
ATOM     20  C   UNL     1       0.270  -2.757  -0.050  0.00  0.00    +0.075 A 
ATOM     21  C   UNL     1       0.373  -2.079   1.155  0.00  0.00    +0.040 A 
ATOM     22  C   UNL     1       0.128  -0.707   1.201  0.00  0.00    +0.041 A 
BRANCH  22  23
ATOM     23  C   UNL     1       0.243   0.025   2.481  0.00  0.00    +0.242 C 
ATOM     24  O   UNL     1       0.140   1.236   2.500  0.00  0.00    -0.270 OA
ATOM     25  N   UNL     1       0.461  -0.651   3.627  0.00  0.00    -0.325 N 
ATOM     26  H   UNL     1       0.542  -1.618   3.611  0.00  0.00    +0.145 HD
ATOM     27  H   UNL     1       0.536  -0.172   4.466  0.00  0.00    +0.145 HD
ENDBRANCH  22  23
ENDBRANCH  15  20
ENDBRANCH   1  15
TORSDOF 6
