REMARK  Name = ZINC09705017
REMARK  1 active torsions:
REMARK  status: ('A' for Active; 'I' for Inactive)
REMARK    1  A    between atoms: C_6  and  N_7
REMARK                            x       y       z     vdW  Elec       q    Type
REMARK                         _______ _______ _______ _____ _____    ______ ____
ROOT
ATOM      1  N   UNL     1      -1.202  -0.723   0.010  0.00  0.00    -0.209 N 
ATOM      2  C   UNL     1      -1.255  -2.077   0.009  0.00  0.00    +0.232 C 
ATOM      3  O   UNL     1      -0.333  -2.845  -0.161  0.00  0.00    -0.274 OA
ATOM      4  C   UNL     1      -2.687  -2.427   0.260  0.00  0.00    +0.109 C 
ATOM      5  C   UNL     1      -3.455  -1.221  -0.290  0.00  0.00    +0.152 C 
ATOM      6  C   UNL     1      -2.413  -0.130   0.026  0.00  0.00    +0.240 C 
ATOM      7  O   UNL     1      -2.639   1.041   0.245  0.00  0.00    -0.274 OA
ATOM      8  S   UNL     1      -3.562  -1.316  -2.106  0.00  0.00    -0.093 S 
ATOM      9  C   UNL     1      -3.853  -3.038  -2.419  0.00  0.00    +0.088 A 
ATOM     10  C   UNL     1      -3.640  -3.968  -1.474  0.00  0.00    +0.032 A 
ATOM     11  S   UNL     1      -4.057  -5.488  -2.291  0.00  0.00    -0.030 S 
ATOM     12  C   UNL     1      -4.493  -4.852  -3.785  0.00  0.00    +0.289 A 
ATOM     13  O   UNL     1      -4.884  -5.445  -4.775  0.00  0.00    -0.260 OA
ATOM     14  N   UNL     1      -4.306  -3.529  -3.624  0.00  0.00    -0.311 N 
ATOM     15  H   UNL     1      -4.491  -2.921  -4.356  0.00  0.00    +0.170 HD
ATOM     16  C   UNL     1      -3.174  -3.790  -0.092  0.00  0.00    +0.017 C 
ATOM     17  C   UNL     1      -2.061  -4.831   0.188  0.00  0.00    +0.013 C 
ATOM     18  C   UNL     1      -2.366  -5.345   1.615  0.00  0.00    +0.001 C 
ATOM     19  C   UNL     1      -3.913  -5.420   1.624  0.00  0.00    +0.001 C 
ATOM     20  C   UNL     1      -4.356  -4.179   0.827  0.00  0.00    +0.013 C 
ENDROOT
BRANCH   1  26
ATOM     21  C   UNL     1      -0.017   1.384   0.010  0.00  0.00    +0.025 A 
ATOM     22  C   UNL     1       1.171   2.090   0.002  0.00  0.00    +0.017 A 
ATOM     23  C   UNL     1       2.378   1.414  -0.013  0.00  0.00    +0.018 A 
ATOM     24  C   UNL     1       2.399   0.031  -0.022  0.00  0.00    +0.017 A 
ATOM     25  C   UNL     1       1.215  -0.679  -0.014  0.00  0.00    +0.025 A 
ATOM     26  C   UNL     1       0.002  -0.004   0.002  0.00  0.00    +0.044 A 
ATOM     27 BR   UNL     1       4.002   2.384  -0.024  0.00  0.00    -0.050 Br
ENDBRANCH   1  26
TORSDOF 1
