REMARK  Name = ZINC10383882
REMARK  9 active torsions:
REMARK  status: ('A' for Active; 'I' for Inactive)
REMARK    1  A    between atoms: C_1  and  C_2
REMARK    2  A    between atoms: C_5  and  N_8
REMARK    3  A    between atoms: N_8  and  C_9
REMARK    4  A    between atoms: C_12  and  C_29
REMARK    5  A    between atoms: C_18  and  C_21
REMARK    6  A    between atoms: C_22  and  C_24
REMARK    7  A    between atoms: C_30  and  C_32
REMARK    8  A    between atoms: C_32  and  N_75
REMARK    9  A    between atoms: C_35  and  C_38
REMARK                            x       y       z     vdW  Elec       q    Type
REMARK                         _______ _______ _______ _____ _____    ______ ____
ROOT
ATOM      1  N   UNL     1       0.720  -2.285  -2.973  0.00  0.00    -0.265 N 
ATOM      2  C   UNL     1      -0.233  -2.949  -2.289  0.00  0.00    +0.204 C 
ATOM      3  O   UNL     1      -0.435  -2.689  -1.122  0.00  0.00    -0.277 OA
ENDROOT
BRANCH   1   4
ATOM      4  C   UNL     1       1.589  -1.331  -2.279  0.00  0.00    +0.115 C 
ATOM      5  C   UNL     1       0.751  -0.150  -1.790  0.00  0.00    +0.050 C 
ATOM      6  C   UNL     1       1.620   0.736  -0.889  0.00  0.00    +0.081 C 
ATOM      7  N   UNL     1       2.006  -0.059   0.285  0.00  0.00    -0.262 N 
ATOM      8  C   UNL     1       2.445  -1.376   0.095  0.00  0.00    +0.042 A 
ATOM      9  C   UNL     1       2.256  -2.020  -1.118  0.00  0.00    -0.005 A 
ATOM     10  C   UNL     1       2.694  -3.324  -1.274  0.00  0.00    +0.010 A 
ATOM     11  C   UNL     1       3.319  -3.979  -0.231  0.00  0.00    -0.050 A 
ATOM     12  C   UNL     1       3.511  -3.337   0.978  0.00  0.00    +0.005 A 
ATOM     13  C   UNL     1       3.075  -2.037   1.143  0.00  0.00    +0.024 A 
ATOM     14  C   UNL     1       3.793  -5.399  -0.411  0.00  0.00    +0.044 C 
ATOM     15  C   UNL     1       1.939   0.469   1.523  0.00  0.00    +0.286 C 
ATOM     16  O   UNL     1       1.684   1.650   1.667  0.00  0.00    -0.266 OA
ATOM     17  C   UNL     1       0.822   1.963  -0.443  0.00  0.00    +0.028 C 
BRANCH  15  18
ATOM     18  C   UNL     1       2.174  -0.379   2.696  0.00  0.00    +0.190 A 
ATOM     19  C   UNL     1       3.071  -0.135   3.696  0.00  0.00    +0.054 A 
ATOM     20  C   UNL     1       2.960  -1.198   4.606  0.00  0.00    +0.042 A 
ATOM     21  C   UNL     1       2.012  -2.033   4.127  0.00  0.00    +0.196 A 
ATOM     22  O   UNL     1       1.537  -1.534   2.979  0.00  0.00    -0.458 OA
ENDBRANCH  15  18
ENDBRANCH   1   4
BRANCH   1  27
ATOM     23  C   UNL     1       1.365  -3.184  -8.537  0.00  0.00    +0.044 C 
ATOM     24  C   UNL     1       1.195  -2.945  -7.059  0.00  0.00    -0.050 A 
ATOM     25  C   UNL     1       0.796  -1.702  -6.602  0.00  0.00    +0.005 A 
ATOM     26  C   UNL     1       0.638  -1.480  -5.248  0.00  0.00    +0.024 A 
ATOM     27  C   UNL     1       0.880  -2.507  -4.345  0.00  0.00    +0.037 A 
ATOM     28  C   UNL     1       1.285  -3.752  -4.806  0.00  0.00    +0.024 A 
ATOM     29  C   UNL     1       1.436  -3.970  -6.162  0.00  0.00    +0.005 A 
ENDBRANCH   1  27
BRANCH   2  30
ATOM     30  C   UNL     1      -1.047  -4.016  -2.975  0.00  0.00    +0.019 C 
BRANCH  30  36
ATOM     31  C   UNL     1      -2.938  -3.333  -1.626  0.00  0.00    -0.077 C 
ATOM     32  C   UNL     1      -3.949  -3.815  -0.584  0.00  0.00    -0.006 C 
ATOM     33  C   UNL     1      -4.839  -4.895  -1.206  0.00  0.00    +0.071 C 
ATOM     34  C   UNL     1      -3.959  -6.042  -1.712  0.00  0.00    -0.006 C 
ATOM     35  C   UNL     1      -2.947  -5.494  -2.721  0.00  0.00    -0.077 C 
ATOM     36  N   UNL     1      -2.106  -4.478  -2.054  0.00  0.00    +0.385 N 
ATOM     37  H   UNL     1      -1.668  -4.899  -1.227  0.00  0.00    -0.081 HD
BRANCH  33  38
ATOM     38  C   UNL     1      -5.798  -5.417  -0.167  0.00  0.00    +0.213 C 
ATOM     39  O   UNL     1      -5.781  -6.590   0.139  0.00  0.00    -0.276 OA
ATOM     40  N   UNL     1      -6.675  -4.580   0.421  0.00  0.00    -0.329 N 
ATOM     41  H   UNL     1      -6.689  -3.642   0.176  0.00  0.00    +0.145 HD
ATOM     42  H   UNL     1      -7.293  -4.916   1.090  0.00  0.00    +0.145 HD
ENDBRANCH  33  38
ENDBRANCH  30  36
ENDBRANCH   2  30
TORSDOF 6
