REMARK  Name = ZINC15086113
REMARK  6 active torsions:
REMARK  status: ('A' for Active; 'I' for Inactive)
REMARK    1  A    between atoms: C_1  and  C_2
REMARK    2  A    between atoms: C_4  and  C_22
REMARK    3  A    between atoms: N_5  and  C_7
REMARK    4  A    between atoms: C_7  and  C_8
REMARK    5  A    between atoms: N_10  and  C_11
REMARK    6  A    between atoms: C_14  and  N_18
REMARK                            x       y       z     vdW  Elec       q    Type
REMARK                         _______ _______ _______ _____ _____    ______ ____
ROOT
ATOM      1  C   UNL     1       4.742  -0.019  -0.443  0.00  0.00    +0.239 C 
ATOM      2  O   UNL     1       4.708   1.164  -0.709  0.00  0.00    -0.273 OA
ATOM      3  N   UNL     1       3.623  -0.651  -0.037  0.00  0.00    -0.282 N 
ATOM      4  H   UNL     1       3.665  -1.579   0.245  0.00  0.00    +0.155 HD
ENDROOT
BRANCH   3   5
ATOM      5  C   UNL     1       2.401   0.031  -0.021  0.00  0.00    +0.062 A 
ATOM      6  C   UNL     1       1.593   0.038  -1.151  0.00  0.00    +0.042 A 
ATOM      7  C   UNL     1       0.386   0.712  -1.131  0.00  0.00    +0.050 A 
ATOM      8  C   UNL     1      -0.017   1.379   0.011  0.00  0.00    +0.128 A 
ATOM      9  C   UNL     1       0.785   1.374   1.137  0.00  0.00    +0.050 A 
ATOM     10  C   UNL     1       1.993   0.702   1.125  0.00  0.00    +0.042 A 
ATOM     11 BR   UNL     1       3.089   0.696   2.666  0.00  0.00    -0.048 Br
ATOM     12 BR   UNL     1       2.142  -0.875  -2.713  0.00  0.00    -0.048 Br
BRANCH   8  13
ATOM     13  N   UNL     1      -1.306   2.105   0.026  0.00  0.00    +0.056 N 
ATOM     14  O   UNL     1      -2.011   2.114  -0.967  0.00  0.00    -0.126 OA
ATOM     15  O   UNL     1      -1.662   2.693   1.031  0.00  0.00    -0.126 OA
ENDBRANCH   8  13
ENDBRANCH   3   5
BRANCH   1  16
ATOM     16  C   UNL     1       6.036  -0.782  -0.567  0.00  0.00    +0.239 C 
BRANCH  16  21
ATOM     17  C   UNL     1       9.111   1.790  -3.588  0.00  0.00    +0.068 C 
ATOM     18  C   UNL     1       8.429   1.238  -2.363  0.00  0.00    +0.074 A 
ATOM     19  C   UNL     1       8.745   1.552  -1.036  0.00  0.00    +0.061 A 
ATOM     20  C   UNL     1       7.910   0.852  -0.233  0.00  0.00    +0.051 A 
ATOM     21  N   UNL     1       7.095   0.122  -1.023  0.00  0.00    -0.258 N 
ATOM     22  N   UNL     1       7.444   0.377  -2.356  0.00  0.00    -0.175 NA
ATOM     23  C   UNL     1       7.893   0.884   1.274  0.00  0.00    +0.066 C 
ATOM     24 BR   UNL     1      10.099   2.743  -0.467  0.00  0.00    -0.047 Br
ENDBRANCH  16  21
ENDBRANCH   1  16
TORSDOF 4
