REMARK  Name = ZINC12042711
REMARK  10 active torsions:
REMARK  status: ('A' for Active; 'I' for Inactive)
REMARK    1  A    between atoms: C_1  and  C_2
REMARK    2  A    between atoms: C_3  and  C_36
REMARK    3  A    between atoms: C_5  and  N_28
REMARK    4  A    between atoms: C_6  and  C_7
REMARK    5  A    between atoms: C_7  and  C_9
REMARK    6  A    between atoms: C_7  and  N_67
REMARK    7  A    between atoms: C_12  and  S_15
REMARK    8  A    between atoms: S_15  and  C_16
REMARK    9  A    between atoms: N_19  and  C_22
REMARK   10  A    between atoms: C_29  and  C_31
REMARK                            x       y       z     vdW  Elec       q    Type
REMARK                         _______ _______ _______ _____ _____    ______ ____
ROOT
ATOM      1  C   UNL     1       7.471  -2.116   1.028  0.00  0.00    -0.004 C 
ENDROOT
BRANCH   1   7
ATOM      2  C   UNL     1       8.278  -4.770   0.137  0.00  0.00    +0.045 C 
ATOM      3  C   UNL     1       8.033  -4.496   1.598  0.00  0.00    -0.037 A 
ATOM      4  C   UNL     1       8.184  -5.480   2.516  0.00  0.00    -0.008 A 
ATOM      5  S   UNL     1       7.780  -4.638   4.037  0.00  0.00    -0.078 S 
ATOM      6  C   UNL     1       7.440  -3.025   3.350  0.00  0.00    +0.074 A 
ATOM      7  C   UNL     1       7.649  -3.236   2.020  0.00  0.00    -0.025 A 
ATOM      8  C   UNL     1       8.588  -6.917   2.307  0.00  0.00    +0.052 C 
BRANCH   6   9
ATOM      9  N   UNL     1       7.059  -1.852   4.005  0.00  0.00    -0.273 N 
ATOM     10  C   UNL     1       7.020  -1.815   5.352  0.00  0.00    +0.284 C 
ATOM     11  O   UNL     1       7.317  -2.804   5.997  0.00  0.00    -0.266 OA
ATOM     12  H   UNL     1       6.822  -1.065   3.491  0.00  0.00    +0.156 HD
BRANCH  10  13
ATOM     13  C   UNL     1       6.620  -0.584   6.040  0.00  0.00    +0.189 A 
ATOM     14  C   UNL     1       6.538  -0.410   7.392  0.00  0.00    +0.054 A 
ATOM     15  C   UNL     1       6.119   0.912   7.604  0.00  0.00    +0.042 A 
ATOM     16  C   UNL     1       5.965   1.481   6.388  0.00  0.00    +0.196 A 
ATOM     17  O   UNL     1       6.273   0.578   5.448  0.00  0.00    -0.458 OA
ENDBRANCH  10  13
ENDBRANCH   6   9
ENDBRANCH   1   7
BRANCH   1  23
ATOM     18  C   UNL     1       6.050  -0.256   0.408  0.00  0.00    -0.058 C 
ATOM     19  C   UNL     1       4.821   0.554   0.830  0.00  0.00    +0.086 C 
ATOM     20  N   UNL     1       3.647  -0.329   0.871  0.00  0.00    -0.333 N 
ATOM     21  C   UNL     1       3.853  -1.432   1.819  0.00  0.00    +0.086 C 
ATOM     22  C   UNL     1       5.081  -2.241   1.397  0.00  0.00    -0.058 C 
ATOM     23  N   UNL     1       6.258  -1.348   1.382  0.00  0.00    +0.389 N 
ATOM     24  H   UNL     1       6.381  -0.942   2.317  0.00  0.00    -0.080 HD
BRANCH  20  25
ATOM     25  C   UNL     1       2.491   0.391   1.183  0.00  0.00    +0.030 A 
ATOM     26  C   UNL     1       1.267  -0.262   1.271  0.00  0.00    +0.023 A 
ATOM     27  C   UNL     1       0.126   0.453   1.579  0.00  0.00    +0.002 A 
ATOM     28  C   UNL     1       0.201   1.816   1.801  0.00  0.00    +0.000 A 
ATOM     29  C   UNL     1       1.417   2.468   1.714  0.00  0.00    +0.002 A 
ATOM     30  C   UNL     1       2.562   1.760   1.406  0.00  0.00    +0.023 A 
ENDBRANCH  20  25
ENDBRANCH   1  23
BRANCH   1  31
ATOM     31  C   UNL     1       8.665  -1.198   1.087  0.00  0.00    -0.057 A 
ATOM     32  C   UNL     1       8.699  -0.168   2.010  0.00  0.00    +0.003 A 
ATOM     33  C   UNL     1       9.793   0.672   2.070  0.00  0.00    +0.015 A 
ATOM     34  C   UNL     1      10.857   0.487   1.196  0.00  0.00    +0.008 A 
ATOM     35  C   UNL     1      10.818  -0.546   0.267  0.00  0.00    +0.015 A 
ATOM     36  C   UNL     1       9.723  -1.385   0.215  0.00  0.00    +0.003 A 
BRANCH  34  37
ATOM     37  S   UNL     1      12.253   1.561   1.264  0.00  0.00    -0.129 S 
ATOM     38  C   UNL     1      11.851   2.719   2.601  0.00  0.00    +0.090 C 
ENDBRANCH  34  37
ENDBRANCH   1  31
TORSDOF 7
