REMARK  Name = ZINC08739272
REMARK  14 active torsions:
REMARK  status: ('A' for Active; 'I' for Inactive)
REMARK    1  A    between atoms: C_3  and  C_29
REMARK    2  A    between atoms: C_6  and  C_7
REMARK    3  A    between atoms: N_9  and  C_10
REMARK    4  A    between atoms: C_10  and  C_11
REMARK    5  A    between atoms: C_11  and  C_12
REMARK    6  A    between atoms: C_12  and  N_13
REMARK    7  A    between atoms: N_13  and  C_14
REMARK    8  A    between atoms: C_14  and  C_15
REMARK    9  A    between atoms: C_15  and  C_16
REMARK   10  A    between atoms: C_16  and  N_17
REMARK   11  A    between atoms: C_18  and  C_20
REMARK   12  A    between atoms: C_23  and  C_26
REMARK   13  A    between atoms: N_27  and  O_28
REMARK   14  A    between atoms: N_30  and  O_31
REMARK                            x       y       z     vdW  Elec       q    Type
REMARK                         _______ _______ _______ _____ _____    ______ ____
ROOT
ATOM      1  N   UNL     1      -3.183  -6.606  -0.003  0.00  0.00    +0.379 N 
ATOM      2  H   UNL     1      -2.657  -6.834  -0.833  0.00  0.00    -0.086 HD
ATOM      3  H   UNL     1      -2.641  -6.843   0.814  0.00  0.00    -0.086 HD
ENDROOT
BRANCH   1   4
ATOM      4  C   UNL     1      -3.482  -5.168   0.008  0.00  0.00    -0.081 C 
BRANCH   4   5
ATOM      5  C   UNL     1      -2.174  -4.375  -0.001  0.00  0.00    -0.000 C 
BRANCH   5   6
ATOM      6  C   UNL     1      -2.486  -2.877   0.010  0.00  0.00    +0.102 C 
BRANCH   6   9
ATOM      7  C   UNL     1      -1.262  -0.770   0.010  0.00  0.00    +0.246 C 
ATOM      8  O   UNL     1      -2.327  -0.185   0.023  0.00  0.00    -0.270 OA
ATOM      9  N   UNL     1      -1.233  -2.118   0.003  0.00  0.00    -0.311 N 
ATOM     10  H   UNL     1      -0.383  -2.584  -0.008  0.00  0.00    +0.149 HD
BRANCH   7  16
ATOM     11  C   UNL     1      -0.017   1.397   0.010  0.00  0.00    +0.016 A 
ATOM     12  C   UNL     1       1.189   2.070   0.002  0.00  0.00    +0.030 A 
ATOM     13  C   UNL     1       2.378   1.338  -0.013  0.00  0.00    +0.085 A 
ATOM     14  N   UNL     1       2.359   0.009  -0.021  0.00  0.00    -0.253 NA
ATOM     15  C   UNL     1       1.232  -0.667  -0.014  0.00  0.00    +0.124 A 
ATOM     16  C   UNL     1       0.002  -0.004   0.002  0.00  0.00    +0.055 A 
BRANCH  13  17
ATOM     17  C   UNL     1       3.672   2.049  -0.022  0.00  0.00    +0.180 C 
ATOM     18  N   UNL     1       4.778   1.378  -0.036  0.00  0.00    -0.093 NA
BRANCH  18  19
ATOM     19  O   UNL     1       6.019   2.060  -0.044  0.00  0.00    -0.409 OA
ATOM     20  H   UNL     1       6.789   1.475  -0.055  0.00  0.00    +0.328 HD
ENDBRANCH  18  19
ENDBRANCH  13  17
ENDBRANCH   7  16
ENDBRANCH   6   9
ENDBRANCH   5   6
ENDBRANCH   4   5
ENDBRANCH   1   4
BRANCH   1  21
ATOM     21  C   UNL     1      -4.440  -7.368   0.005  0.00  0.00    -0.081 C 
BRANCH  21  22
ATOM     22  C   UNL     1      -4.128  -8.866  -0.006  0.00  0.00    -0.000 C 
BRANCH  22  23
ATOM     23  C   UNL     1      -5.436  -9.659   0.002  0.00  0.00    +0.102 C 
BRANCH  23  24
ATOM     24  N   UNL     1      -5.138 -11.093  -0.009  0.00  0.00    -0.311 N 
ATOM     25  C   UNL     1      -6.144 -11.990  -0.004  0.00  0.00    +0.246 C 
ATOM     26  O   UNL     1      -7.298 -11.610   0.009  0.00  0.00    -0.270 OA
ATOM     27  H   UNL     1      -4.217 -11.397  -0.019  0.00  0.00    +0.149 HD
BRANCH  25  28
ATOM     28  C   UNL     1      -5.843 -13.437  -0.014  0.00  0.00    +0.055 A 
ATOM     29  C   UNL     1      -6.881 -14.378  -0.015  0.00  0.00    +0.016 A 
ATOM     30  C   UNL     1      -6.551 -15.720  -0.026  0.00  0.00    +0.030 A 
ATOM     31  C   UNL     1      -5.205 -16.090  -0.035  0.00  0.00    +0.085 A 
ATOM     32  N   UNL     1      -4.245 -15.170  -0.034  0.00  0.00    -0.253 NA
ATOM     33  C   UNL     1      -4.519 -13.885  -0.029  0.00  0.00    +0.124 A 
BRANCH  31  34
ATOM     34  C   UNL     1      -4.843 -17.521  -0.046  0.00  0.00    +0.180 C 
ATOM     35  N   UNL     1      -3.599 -17.874  -0.055  0.00  0.00    -0.093 NA
BRANCH  35  36
ATOM     36  O   UNL     1      -3.252 -19.246  -0.065  0.00  0.00    -0.409 OA
ATOM     37  H   UNL     1      -2.299 -19.411  -0.071  0.00  0.00    +0.328 HD
ENDBRANCH  35  36
ENDBRANCH  31  34
ENDBRANCH  25  28
ENDBRANCH  23  24
ENDBRANCH  22  23
ENDBRANCH  21  22
ENDBRANCH   1  21
TORSDOF 14
