REMARK  Name = ZINC39301723
REMARK  6 active torsions:
REMARK  status: ('A' for Active; 'I' for Inactive)
REMARK    1  A    between atoms: C_5  and  C_7
REMARK    2  A    between atoms: C_7  and  C_9
REMARK    3  A    between atoms: C_7  and  C_11
REMARK    4  A    between atoms: N_20  and  C_23
REMARK    5  A    between atoms: C_23  and  C_24
REMARK    6  A    between atoms: N_26  and  C_27
REMARK                            x       y       z     vdW  Elec       q    Type
REMARK                         _______ _______ _______ _____ _____    ______ ____
ROOT
ATOM      1  C   UNL     1       1.166  -2.675   1.379  0.00  0.00    +0.069 A 
ATOM      2  C   UNL     1      -0.075  -2.837   1.976  0.00  0.00    +0.045 A 
ATOM      3  C   UNL     1      -0.126  -3.306   3.279  0.00  0.00    +0.116 A 
ATOM      4  N   UNL     1       1.003  -3.584   3.910  0.00  0.00    -0.223 NA
ATOM      5  C   UNL     1       2.173  -3.418   3.310  0.00  0.00    +0.218 A 
ATOM      6  N   UNL     1       2.256  -2.976   2.064  0.00  0.00    -0.218 NA
ATOM      7  N   UNL     1       3.334  -3.718   4.000  0.00  0.00    -0.303 N 
ATOM      8  C   UNL     1       4.653  -3.542   3.373  0.00  0.00    +0.089 C 
ATOM      9  C   UNL     1       5.540  -2.733   4.325  0.00  0.00    -0.059 C 
ATOM     10  N   UNL     1       5.576  -3.392   5.637  0.00  0.00    +0.387 N 
ATOM     11  C   UNL     1       4.237  -3.381   6.239  0.00  0.00    -0.059 C 
ATOM     12  C   UNL     1       3.286  -4.216   5.383  0.00  0.00    +0.089 C 
ATOM     13  H   UNL     1       5.885  -4.345   5.525  0.00  0.00    -0.081 HD
ENDROOT
BRANCH   1  14
ATOM     14  C   UNL     1       1.270  -2.167  -0.037  0.00  0.00    +0.188 C 
BRANCH  14  19
ATOM     15  C   UNL     1       0.022   1.390  -0.020  0.00  0.00    +0.003 A 
ATOM     16  C   UNL     1       1.237   2.059  -0.028  0.00  0.00    +0.020 A 
ATOM     17  C   UNL     1       2.409   1.328  -0.039  0.00  0.00    +0.111 A 
ATOM     18  N   UNL     1       2.382   0.009  -0.041  0.00  0.00    -0.258 NA
ATOM     19  C   UNL     1       1.246  -0.660  -0.033  0.00  0.00    +0.064 A 
ATOM     20  C   UNL     1       0.034   0.004  -0.022  0.00  0.00    +0.025 A 
ENDBRANCH  14  19
BRANCH  14  21
ATOM     21  C   UNL     1       0.135  -2.674  -0.825  0.00  0.00    +0.078 C 
ATOM     22  N   UNL     1      -0.742  -3.065  -1.433  0.00  0.00    -0.195 NA
ENDBRANCH  14  21
ENDBRANCH   1  14
BRANCH  10  23
ATOM     23  C   UNL     1       6.512  -2.678   6.516  0.00  0.00    +0.019 C 
BRANCH  23  24
ATOM     24  C   UNL     1       6.643  -3.421   7.820  0.00  0.00    +0.201 C 
ATOM     25  O   UNL     1       6.019  -4.446   7.999  0.00  0.00    -0.278 OA
ATOM     26  N   UNL     1       7.454  -2.949   8.787  0.00  0.00    -0.287 N 
ATOM     27  H   UNL     1       8.005  -2.168   8.619  0.00  0.00    +0.155 HD
BRANCH  26  28
ATOM     28  C   UNL     1       7.503  -3.585  10.032  0.00  0.00    +0.036 A 
ATOM     29  C   UNL     1       7.378  -4.965  10.114  0.00  0.00    +0.043 A 
ATOM     30  C   UNL     1       7.426  -5.591  11.345  0.00  0.00    +0.044 A 
ATOM     31  C   UNL     1       7.600  -4.843  12.496  0.00  0.00    +0.040 A 
ATOM     32  C   UNL     1       7.725  -3.467  12.418  0.00  0.00    +0.044 A 
ATOM     33  C   UNL     1       7.682  -2.837  11.188  0.00  0.00    +0.043 A 
ATOM     34 CL   UNL     1       7.942  -2.532  13.865  0.00  0.00    -0.083 Cl
ATOM     35 CL   UNL     1       7.269  -7.317  11.448  0.00  0.00    -0.083 Cl
ENDBRANCH  26  28
ENDBRANCH  23  24
ENDBRANCH  10  23
TORSDOF 6
