REMARK  Name = ZINC58988590
REMARK  6 active torsions:
REMARK  status: ('A' for Active; 'I' for Inactive)
REMARK    1  A    between atoms: C_1  and  C_2
REMARK    2  A    between atoms: N_8  and  C_9
REMARK    3  A    between atoms: C_9  and  C_10
REMARK    4  A    between atoms: N_12  and  C_13
REMARK    5  A    between atoms: C_17  and  N_19
REMARK    6  A    between atoms: C_20  and  C_22
REMARK                            x       y       z     vdW  Elec       q    Type
REMARK                         _______ _______ _______ _____ _____    ______ ____
ROOT
ATOM      1  C   UNL     1       1.131  -0.397   5.979  0.00  0.00    +0.035 A 
ATOM      2  C   UNL     1       2.507  -0.575   5.934  0.00  0.00    +0.026 A 
ATOM      3  C   UNL     1       3.184  -1.025   7.051  0.00  0.00    +0.042 A 
ATOM      4  C   UNL     1       2.493  -1.300   8.218  0.00  0.00    +0.145 A 
ATOM      5  C   UNL     1       1.115  -1.124   8.268  0.00  0.00    +0.071 A 
ATOM      6  C   UNL     1       0.434  -0.666   7.149  0.00  0.00    +0.049 A 
ATOM      7  F   UNL     1       3.158  -1.741   9.308  0.00  0.00    -0.204 F 
ENDROOT
BRANCH   1  10
ATOM      8  C   UNL     1       0.848  -0.320   3.617  0.00  0.00    +0.201 C 
ATOM      9  O   UNL     1       1.851  -0.989   3.487  0.00  0.00    -0.278 OA
ATOM     10  N   UNL     1       0.446   0.060   4.846  0.00  0.00    -0.287 N 
ATOM     11  H   UNL     1      -0.318   0.650   4.946  0.00  0.00    +0.155 HD
BRANCH   8  12
ATOM     12  C   UNL     1       0.052   0.087   2.404  0.00  0.00    +0.019 C 
BRANCH  12  19
ATOM     13  C   UNL     1      -0.029   1.578   0.026  0.00  0.00    -0.013 C 
ATOM     14  C   UNL     1      -0.014   0.048   0.008  0.00  0.00    -0.071 C 
ATOM     15  C   UNL     1       0.699  -0.439  -1.255  0.00  0.00    -0.016 C 
ATOM     16  C   UNL     1       0.711  -1.971  -1.268  0.00  0.00    -0.003 C 
ATOM     17  C   UNL     1       1.384  -2.477   0.011  0.00  0.00    -0.019 C 
ATOM     18  C   UNL     1       0.646  -1.914   1.227  0.00  0.00    -0.078 C 
ATOM     19  N   UNL     1       0.693  -0.447   1.195  0.00  0.00    +0.387 N 
ATOM     20  H   UNL     1       1.655  -0.143   1.165  0.00  0.00    -0.081 HD
ENDBRANCH  12  19
ENDBRANCH   8  12
ENDBRANCH   1  10
BRANCH   5  21
ATOM     21  N   UNL     1       0.415  -1.402   9.448  0.00  0.00    -0.279 N 
ATOM     22  C   UNL     1      -0.833  -1.908   9.388  0.00  0.00    +0.251 C 
ATOM     23  O   UNL     1      -1.382  -2.045   8.312  0.00  0.00    -0.270 OA
ATOM     24  H   UNL     1       0.828  -1.231  10.309  0.00  0.00    +0.155 HD
BRANCH  22  25
ATOM     25  C   UNL     1      -1.533  -2.296  10.629  0.00  0.00    +0.074 A 
ATOM     26  C   UNL     1      -0.907  -2.136  11.867  0.00  0.00    +0.036 A 
ATOM     27  C   UNL     1      -1.566  -2.500  13.023  0.00  0.00    +0.042 A 
ATOM     28  C   UNL     1      -2.847  -3.026  12.958  0.00  0.00    +0.023 A 
ATOM     29  C   UNL     1      -3.473  -3.188  11.737  0.00  0.00    +0.040 A 
ATOM     30  C   UNL     1      -2.827  -2.821  10.570  0.00  0.00    +0.136 A 
ATOM     31  F   UNL     1      -3.443  -2.976   9.378  0.00  0.00    -0.205 F 
ATOM     32 CL   UNL     1      -0.789  -2.301  14.562  0.00  0.00    -0.084 Cl
ENDBRANCH  22  25
ENDBRANCH   5  21
TORSDOF 5
