REMARK  Name = ZINC21306105
REMARK  8 active torsions:
REMARK  status: ('A' for Active; 'I' for Inactive)
REMARK    1  A    between atoms: C_1  and  C_2
REMARK    2  A    between atoms: C_2  and  C_4
REMARK    3  A    between atoms: C_2  and  N_21
REMARK    4  A    between atoms: C_4  and  C_5
REMARK    5  A    between atoms: N_7  and  C_8
REMARK    6  A    between atoms: C_8  and  C_9
REMARK    7  A    between atoms: C_8  and  C_15
REMARK    8  A    between atoms: C_22  and  C_24
REMARK                            x       y       z     vdW  Elec       q    Type
REMARK                         _______ _______ _______ _____ _____    ______ ____
ROOT
ATOM      1  C   UNL     1       2.187   1.018   1.151  0.00  0.00    +0.215 C 
ATOM      2  O   UNL     1       1.638   0.246   1.907  0.00  0.00    -0.276 OA
ATOM      3  N   UNL     1       3.481   1.343   1.342  0.00  0.00    -0.304 N 
ATOM      4  H   UNL     1       3.979   2.045   0.656  0.00  0.00    +0.150 HD
ENDROOT
BRANCH   1   5
ATOM      5  C   UNL     1       1.423   1.615  -0.003  0.00  0.00    +0.117 C 
BRANCH   5   7
ATOM      6  C   UNL     1      -0.753   1.593  -1.232  0.00  0.00    +0.028 C 
ATOM      7  C   UNL     1      -0.013   1.086   0.008  0.00  0.00    +0.079 C 
BRANCH   7   8
ATOM      8  N   UNL     1      -0.698   1.558   1.213  0.00  0.00    -0.308 N 
ATOM      9  C   UNL     1      -1.741   0.865   1.711  0.00  0.00    +0.244 C 
ATOM     10  O   UNL     1      -2.113  -0.153   1.160  0.00  0.00    -0.270 OA
ATOM     11  H   UNL     1      -0.362   2.479   1.712  0.00  0.00    +0.149 HD
BRANCH   9  12
ATOM     12  C   UNL     1      -2.433   1.341   2.928  0.00  0.00    +0.037 A 
ATOM     13  C   UNL     1      -2.006   2.506   3.566  0.00  0.00    +0.013 A 
ATOM     14  C   UNL     1      -2.659   2.949   4.698  0.00  0.00    +0.001 A 
ATOM     15  C   UNL     1      -3.729   2.234   5.206  0.00  0.00    +0.000 A 
ATOM     16  C   UNL     1      -4.154   1.075   4.581  0.00  0.00    +0.001 A 
ATOM     17  C   UNL     1      -3.514   0.625   3.446  0.00  0.00    +0.013 A 
ENDBRANCH   9  12
ENDBRANCH   7   8
ENDBRANCH   5   7
ENDBRANCH   1   5
BRANCH   3  18
ATOM     18  C   UNL     1       4.224   0.763   2.463  0.00  0.00    +0.134 C 
BRANCH  18  19
ATOM     19  C   UNL     1       5.696   0.758   2.141  0.00  0.00    -0.023 A 
ATOM     20  C   UNL     1       6.265   1.836   1.488  0.00  0.00    +0.006 A 
ATOM     21  C   UNL     1       7.616   1.833   1.197  0.00  0.00    +0.000 A 
ATOM     22  C   UNL     1       8.397   0.748   1.550  0.00  0.00    +0.000 A 
ATOM     23  C   UNL     1       7.827  -0.333   2.197  0.00  0.00    +0.000 A 
ATOM     24  C   UNL     1       6.477  -0.328   2.493  0.00  0.00    +0.006 A 
ENDBRANCH  18  19
BRANCH  18  25
ATOM     25  C   UNL     1       3.984   1.585   3.703  0.00  0.00    -0.023 A 
ATOM     26  C   UNL     1       3.942   2.964   3.621  0.00  0.00    +0.006 A 
ATOM     27  C   UNL     1       3.717   3.717   4.758  0.00  0.00    +0.000 A 
ATOM     28  C   UNL     1       3.545   3.092   5.979  0.00  0.00    +0.000 A 
ATOM     29  C   UNL     1       3.593   1.713   6.062  0.00  0.00    +0.000 A 
ATOM     30  C   UNL     1       3.813   0.959   4.924  0.00  0.00    +0.006 A 
ENDBRANCH  18  25
ENDBRANCH   3  18
TORSDOF 7
