REMARK  Name = ZINC63135202
REMARK  7 active torsions:
REMARK  status: ('A' for Active; 'I' for Inactive)
REMARK    1  A    between atoms: C_7  and  C_10
REMARK    2  A    between atoms: C_13  and  S_22
REMARK    3  A    between atoms: N_14  and  C_15
REMARK    4  A    between atoms: S_22  and  C_23
REMARK    5  A    between atoms: C_23  and  C_24
REMARK    6  A    between atoms: N_26  and  C_27
REMARK    7  A    between atoms: C_32  and  C_33
REMARK                            x       y       z     vdW  Elec       q    Type
REMARK                         _______ _______ _______ _____ _____    ______ ____
ROOT
ATOM      1  C   UNL     1       0.674  -3.130  -0.055  0.00  0.00    +0.168 A 
ATOM      2  N   UNL     1      -0.650  -3.067  -0.058  0.00  0.00    -0.128 NA
ATOM      3  N   UNL     1      -1.142  -4.254  -0.050  0.00  0.00    -0.122 NA
ATOM      4  C   UNL     1      -0.168  -5.152  -0.042  0.00  0.00    +0.197 A 
ATOM      5  N   UNL     1       1.014  -4.473  -0.051  0.00  0.00    -0.270 N 
ENDROOT
BRANCH   1  12
ATOM      6  C   UNL     1      -0.017   1.354  -0.074  0.00  0.00    +0.001 A 
ATOM      7  C   UNL     1       1.163   2.101  -0.081  0.00  0.00    +0.002 A 
ATOM      8  C   UNL     1       2.383   1.511  -0.082  0.00  0.00    +0.026 A 
ATOM      9  C   UNL     1       2.483   0.096  -0.076  0.00  0.00    +0.043 A 
ATOM     10  N   UNL     1       3.530  -0.705  -0.075  0.00  0.00    -0.380 N 
ATOM     11  C   UNL     1       3.074  -2.098  -0.068  0.00  0.00    +0.152 C 
ATOM     12  C   UNL     1       1.562  -2.043  -0.063  0.00  0.00    +0.025 C 
ATOM     13  C   UNL     1       1.236  -0.687  -0.068  0.00  0.00    +0.006 A 
ATOM     14  C   UNL     1       0.001  -0.004  -0.067  0.00  0.00    +0.010 A 
ATOM     15  H   UNL     1       4.457  -0.417  -0.080  0.00  0.00    +0.160 HD
ENDBRANCH   1  12
BRANCH   5  16
ATOM     16  C   UNL     1       2.304  -5.020  -0.052  0.00  0.00    +0.051 A 
ATOM     17  C   UNL     1       3.141  -4.824  -1.142  0.00  0.00    +0.028 A 
ATOM     18  C   UNL     1       4.412  -5.364  -1.141  0.00  0.00    +0.022 A 
ATOM     19  C   UNL     1       4.852  -6.100  -0.055  0.00  0.00    +0.041 A 
ATOM     20  C   UNL     1       4.019  -6.297   1.033  0.00  0.00    +0.022 A 
ATOM     21  C   UNL     1       2.749  -5.754   1.039  0.00  0.00    +0.028 A 
ATOM     22 CL   UNL     1       6.450  -6.777  -0.057  0.00  0.00    -0.084 Cl
ENDBRANCH   5  16
BRANCH   4  23
ATOM     23  S   UNL     1      -0.365  -6.903  -0.029  0.00  0.00    -0.076 S 
BRANCH  23  24
ATOM     24  C   UNL     1      -2.163  -7.143  -0.031  0.00  0.00    +0.173 C 
BRANCH  24  25
ATOM     25  C   UNL     1      -2.473  -8.617  -0.020  0.00  0.00    +0.228 C 
ATOM     26  O   UNL     1      -1.570  -9.427  -0.013  0.00  0.00    -0.275 OA
ATOM     27  N   UNL     1      -3.754  -9.036  -0.019  0.00  0.00    -0.284 N 
ATOM     28  H   UNL     1      -4.475  -8.392   0.056  0.00  0.00    +0.155 HD
BRANCH  27  29
ATOM     29  C   UNL     1      -4.043 -10.395  -0.126  0.00  0.00    +0.046 A 
ATOM     30  C   UNL     1      -3.139 -11.254  -0.738  0.00  0.00    +0.024 A 
ATOM     31  C   UNL     1      -3.427 -12.600  -0.844  0.00  0.00    +0.002 A 
ATOM     32  C   UNL     1      -4.616 -13.104  -0.341  0.00  0.00    +0.001 A 
ATOM     33  C   UNL     1      -5.524 -12.267   0.270  0.00  0.00    +0.015 A 
ATOM     34  C   UNL     1      -5.244 -10.903   0.389  0.00  0.00    +0.058 A 
BRANCH  34  35
ATOM     35  C   UNL     1      -6.209 -10.002   1.048  0.00  0.00    +0.243 C 
ATOM     36  O   UNL     1      -6.007  -8.803   1.065  0.00  0.00    -0.270 OA
ATOM     37  N   UNL     1      -7.314 -10.508   1.629  0.00  0.00    -0.325 N 
ATOM     38  H   UNL     1      -7.476 -11.464   1.615  0.00  0.00    +0.145 HD
ATOM     39  H   UNL     1      -7.949  -9.916   2.062  0.00  0.00    +0.145 HD
ENDBRANCH  34  35
ENDBRANCH  27  29
ENDBRANCH  24  25
ENDBRANCH  23  24
ENDBRANCH   4  23
TORSDOF 7
