REMARK  Name = ZINC64053818
REMARK  9 active torsions:
REMARK  status: ('A' for Active; 'I' for Inactive)
REMARK    1  A    between atoms: C_1  and  C_2
REMARK    2  A    between atoms: C_3  and  C_25
REMARK    3  A    between atoms: C_5  and  C_8
REMARK    4  A    between atoms: C_12  and  N_14
REMARK    5  A    between atoms: C_15  and  C_17
REMARK    6  A    between atoms: C_17  and  C_18
REMARK    7  A    between atoms: C_18  and  C_19
REMARK    8  A    between atoms: C_25  and  N_26
REMARK    9  A    between atoms: C_27  and  C_29
REMARK                            x       y       z     vdW  Elec       q    Type
REMARK                         _______ _______ _______ _____ _____    ______ ____
ROOT
ATOM      1  C   UNL     1      -0.131   1.584  -0.303  0.00  0.00    +0.044 C 
ATOM      2  C   UNL     1      -1.022   1.984  -1.481  0.00  0.00    +0.164 C 
ATOM      3  C   UNL     1      -0.412   1.517  -2.784  0.00  0.00    +0.062 C 
ATOM      4  N   UNL     1      -1.336   0.998  -3.503  0.00  0.00    -0.253 NA
ATOM      5  C   UNL     1      -2.615   1.062  -2.787  0.00  0.00    +0.267 C 
ATOM      6  O   UNL     1      -2.292   1.304  -1.405  0.00  0.00    -0.342 OA
ENDROOT
BRANCH   5   7
ATOM      7  C   UNL     1      -3.352  -0.245  -2.927  0.00  0.00    +0.005 A 
ATOM      8  C   UNL     1      -4.099  -0.734  -1.870  0.00  0.00    +0.008 A 
ATOM      9  C   UNL     1      -4.776  -1.932  -1.994  0.00  0.00    +0.002 A 
ATOM     10  C   UNL     1      -4.710  -2.646  -3.175  0.00  0.00    +0.023 A 
ATOM     11  C   UNL     1      -3.961  -2.159  -4.237  0.00  0.00    +0.034 A 
ATOM     12  C   UNL     1      -3.285  -0.952  -4.111  0.00  0.00    +0.031 A 
BRANCH  11  13
ATOM     13  N   UNL     1      -3.890  -2.880  -5.435  0.00  0.00    -0.285 N 
ATOM     14  C   UNL     1      -4.951  -3.601  -5.850  0.00  0.00    +0.218 C 
ATOM     15  O   UNL     1      -5.997  -3.549  -5.239  0.00  0.00    -0.275 OA
ATOM     16  H   UNL     1      -3.079  -2.861  -5.965  0.00  0.00    +0.155 HD
BRANCH  14  17
ATOM     17  C   UNL     1      -4.837  -4.471  -7.075  0.00  0.00    +0.101 C 
BRANCH  17  18
ATOM     18  C   UNL     1      -6.171  -5.175  -7.327  0.00  0.00    +0.046 C 
BRANCH  18  19
ATOM     19  C   UNL     1      -6.057  -6.046  -8.552  0.00  0.00    -0.029 A 
ATOM     20  C   UNL     1      -6.353  -5.534  -9.806  0.00  0.00    +0.006 A 
ATOM     21  C   UNL     1      -6.234  -6.372 -10.905  0.00  0.00    +0.020 A 
ATOM     22  C   UNL     1      -5.827  -7.679 -10.714  0.00  0.00    +0.111 A 
ATOM     23  N   UNL     1      -5.555  -8.131  -9.506  0.00  0.00    -0.263 NA
ATOM     24  C   UNL     1      -5.651  -7.362  -8.439  0.00  0.00    +0.114 A 
ENDBRANCH  18  19
ENDBRANCH  17  18
ENDBRANCH  14  17
ENDBRANCH  11  13
ENDBRANCH   5   7
BRANCH   3  25
ATOM     25  C   UNL     1       1.039   1.643  -3.172  0.00  0.00    +0.157 C 
BRANCH  25  26
ATOM     26  N   UNL     1       1.238   1.076  -4.508  0.00  0.00    -0.308 N 
ATOM     27  C   UNL     1       2.465   1.078  -5.065  0.00  0.00    +0.240 C 
ATOM     28  O   UNL     1       3.405   1.549  -4.460  0.00  0.00    -0.273 OA
ATOM     29  H   UNL     1       0.486   0.699  -4.992  0.00  0.00    +0.149 HD
BRANCH  27  30
ATOM     30  C   UNL     1       2.670   0.495  -6.439  0.00  0.00    +0.190 C 
ATOM     31  C   UNL     1       1.868   1.270  -7.460  0.00  0.00    +0.016 C 
ATOM     32  C   UNL     1       2.765   1.779  -8.334  0.00  0.00    -0.001 A 
ATOM     33  C   UNL     1       2.621   2.613  -9.534  0.00  0.00    +0.048 A 
ATOM     34  C   UNL     1       3.731   2.973 -10.220  0.00  0.00    +0.124 A 
ATOM     35  C   UNL     1       5.013   2.569  -9.813  0.00  0.00    +0.040 A 
ATOM     36  C   UNL     1       5.223   1.803  -8.722  0.00  0.00    +0.029 A 
ATOM     37  C   UNL     1       4.127   1.367  -7.927  0.00  0.00    +0.043 A 
ATOM     38  N   UNL     1       4.075   0.631  -6.842  0.00  0.00    -0.370 N 
ATOM     39  F   UNL     1       3.602   3.739 -11.325  0.00  0.00    -0.205 F 
ATOM     40  H   UNL     1       4.835   0.242  -6.383  0.00  0.00    +0.161 HD
ENDBRANCH  27  30
ENDBRANCH  25  26
ENDBRANCH   3  25
TORSDOF 8
