REMARK  Name = ZINC34749450
REMARK  9 active torsions:
REMARK  status: ('A' for Active; 'I' for Inactive)
REMARK    1  A    between atoms: C_1  and  C_2
REMARK    2  A    between atoms: C_2  and  C_3
REMARK    3  A    between atoms: C_4  and  C_34
REMARK    4  A    between atoms: N_10  and  C_30
REMARK    5  A    between atoms: N_16  and  C_19
REMARK    6  A    between atoms: C_19  and  C_20
REMARK    7  A    between atoms: N_22  and  C_23
REMARK    8  A    between atoms: C_26  and  C_29
REMARK    9  A    between atoms: C_30  and  C_31
REMARK                            x       y       z     vdW  Elec       q    Type
REMARK                         _______ _______ _______ _____ _____    ______ ____
ROOT
ATOM      1  C   UNL     1       0.486  -0.756   1.037  0.00  0.00    -0.023 A 
ATOM      2  C   UNL     1       0.446  -1.837   0.244  0.00  0.00    -0.007 A 
ATOM      3  S   UNL     1      -0.263  -3.093   1.293  0.00  0.00    -0.073 S 
ATOM      4  C   UNL     1      -0.484  -2.128   2.766  0.00  0.00    +0.117 A 
ATOM      5  C   UNL     1       0.004  -0.859   2.403  0.00  0.00    +0.076 A 
ATOM      6  C   UNL     1      -0.048   0.142   3.424  0.00  0.00    +0.264 A 
ATOM      7  O   UNL     1       0.349   1.273   3.200  0.00  0.00    -0.267 OA
ATOM      8  N   UNL     1      -0.541  -0.180   4.633  0.00  0.00    -0.271 N 
ATOM      9  C   UNL     1      -0.989  -1.440   4.902  0.00  0.00    +0.202 A 
ATOM     10  N   UNL     1      -0.963  -2.379   3.979  0.00  0.00    -0.208 NA
ATOM     11  N   UNL     1      -1.485  -1.730   6.149  0.00  0.00    -0.304 N 
ATOM     12  C   UNL     1      -2.928  -1.659   6.425  0.00  0.00    +0.089 C 
ATOM     13  C   UNL     1      -3.359  -2.966   7.098  0.00  0.00    -0.059 C 
ATOM     14  N   UNL     1      -2.527  -3.203   8.284  0.00  0.00    +0.387 N 
ATOM     15  C   UNL     1      -1.130  -3.408   7.881  0.00  0.00    -0.059 C 
ATOM     16  C   UNL     1      -0.588  -2.128   7.245  0.00  0.00    +0.089 C 
ATOM     17  C   UNL     1       0.892  -1.961  -1.190  0.00  0.00    +0.052 C 
ATOM     18  H   UNL     1      -2.584  -2.405   8.898  0.00  0.00    -0.081 HD
ENDROOT
BRANCH   1  20
ATOM     19  C   UNL     1       2.537   0.614   0.779  0.00  0.00    +0.009 C 
ATOM     20  C   UNL     1       1.031   0.550   0.517  0.00  0.00    +0.033 C 
ENDBRANCH   1  20
BRANCH  14  21
ATOM     21  C   UNL     1      -3.011  -4.396   8.990  0.00  0.00    +0.019 C 
BRANCH  21  22
ATOM     22  C   UNL     1      -2.238  -4.571  10.271  0.00  0.00    +0.201 C 
ATOM     23  O   UNL     1      -1.368  -3.779  10.567  0.00  0.00    -0.278 OA
ATOM     24  N   UNL     1      -2.512  -5.607  11.088  0.00  0.00    -0.287 N 
ATOM     25  H   UNL     1      -3.147  -6.286  10.813  0.00  0.00    +0.155 HD
BRANCH  24  26
ATOM     26  C   UNL     1      -1.881  -5.702  12.333  0.00  0.00    +0.033 A 
ATOM     27  C   UNL     1      -1.426  -4.556  12.973  0.00  0.00    +0.023 A 
ATOM     28  C   UNL     1      -0.803  -4.654  14.201  0.00  0.00    +0.005 A 
ATOM     29  C   UNL     1      -0.632  -5.891  14.795  0.00  0.00    -0.050 A 
ATOM     30  C   UNL     1      -1.083  -7.034  14.161  0.00  0.00    +0.005 A 
ATOM     31  C   UNL     1      -1.712  -6.942  12.935  0.00  0.00    +0.023 A 
ATOM     32  C   UNL     1       0.048  -5.994  16.136  0.00  0.00    +0.044 C 
ENDBRANCH  24  26
ENDBRANCH  21  22
ENDBRANCH  14  21
BRANCH   8  33
ATOM     33  C   UNL     1      -0.597   0.841   5.682  0.00  0.00    +0.223 C 
BRANCH  33  34
ATOM     34  C   UNL     1      -1.863   1.644   5.534  0.00  0.00    +0.230 C 
ATOM     35  O   UNL     1      -2.643   1.388   4.641  0.00  0.00    -0.274 OA
ATOM     36  N   UNL     1      -2.130   2.646   6.395  0.00  0.00    -0.328 N 
ATOM     37  H   UNL     1      -1.507   2.851   7.109  0.00  0.00    +0.145 HD
ATOM     38  H   UNL     1      -2.946   3.163   6.300  0.00  0.00    +0.145 HD
ENDBRANCH  33  34
ENDBRANCH   8  33
TORSDOF 6
