REMARK  Name = ZINC13284348
REMARK  10 active torsions:
REMARK  status: ('A' for Active; 'I' for Inactive)
REMARK    1  A    between atoms: C_3  and  N_20
REMARK    2  A    between atoms: C_6  and  C_7
REMARK    3  A    between atoms: N_9  and  CA_10
REMARK    4  A    between atoms: CA_10  and  CB_12
REMARK    5  A    between atoms: CA_10  and  C_17
REMARK    6  A    between atoms: CB_12  and  CG_13
REMARK    7  A    between atoms: CG_13  and  CD_14
REMARK    8  A    between atoms: N_20  and  C_21
REMARK    9  A    between atoms: C_21  and  C_22
REMARK   10  A    between atoms: C_29  and  N_34
REMARK                            x       y       z     vdW  Elec       q    Type
REMARK                         _______ _______ _______ _____ _____    ______ ____
ROOT
ATOM      1  N   UNK A   0       4.239   1.148   0.091  0.00  0.00    -0.340 N 
ATOM      2  H   UNK A   0       4.041   2.093   0.001  0.00  0.00    +0.146 HD
ENDROOT
BRANCH   1   5
ATOM      3  C   UNK A   0       0.855  -0.263   0.077  0.00  0.00    +0.015 A 
ATOM      4  C   UNK A   0       1.882   0.651   0.039  0.00  0.00    +0.023 A 
ATOM      5  C   UNK A   0       3.203   0.221   0.130  0.00  0.00    +0.027 A 
ATOM      6  C   UNK A   0       3.489  -1.135   0.260  0.00  0.00    +0.023 A 
ATOM      7  C   UNK A   0       2.466  -2.055   0.298  0.00  0.00    +0.015 A 
ATOM      8  C   UNK A   0       1.138  -1.626   0.207  0.00  0.00    +0.037 A 
BRANCH   8   9
ATOM      9  C   UNK A   0       0.039  -2.609   0.249  0.00  0.00    +0.245 C 
ATOM     10  O   UNK A   0      -1.115  -2.235   0.170  0.00  0.00    -0.270 OA
ATOM     11  N   GLU A   1       0.315  -3.922   0.374  0.00  0.00    -0.298 N 
ATOM     12  H   GLU A   1       1.235  -4.221   0.437  0.00  0.00    +0.150 HD
BRANCH  11  13
ATOM     13  CA  GLU A   1      -0.777  -4.899   0.415  0.00  0.00    +0.187 C 
BRANCH  13  14
ATOM     14  C   GLU A   1      -1.290  -5.019   1.827  0.00  0.00    +0.376 C 
ATOM     15  O   GLU A   1      -0.791  -4.351   2.716  0.00  0.00    -0.244 OA
ATOM     16  OXT GLU A   1      -2.205  -5.785   2.080  0.00  0.00    -0.244 OA
ENDBRANCH  13  14
BRANCH  13  17
ATOM     17  CB  GLU A   1      -0.262  -6.260  -0.058  0.00  0.00    +0.045 C 
BRANCH  17  18
ATOM     18  CG  GLU A   1       0.143  -6.168  -1.530  0.00  0.00    +0.127 C 
BRANCH  18  19
ATOM     19  CD  GLU A   1       0.651  -7.508  -1.996  0.00  0.00    +0.356 C 
ATOM     20  OE1 GLU A   1       0.685  -8.450  -1.223  0.00  0.00    -0.246 OA
ATOM     21  OE2 GLU A   1       1.027  -7.651  -3.147  0.00  0.00    -0.246 OA
ENDBRANCH  18  19
ENDBRANCH  17  18
ENDBRANCH  13  17
ENDBRANCH  11  13
ENDBRANCH   8   9
ENDBRANCH   1   5
BRANCH   1  22
ATOM     22  C   UNK A   0       5.629   0.697   0.187  0.00  0.00    +0.138 C 
BRANCH  22  23
ATOM     23  C   UNK A   0       6.550   1.888   0.120  0.00  0.00    -0.011 A 
ATOM     24  C   UNK A   0       7.179   2.203  -1.080  0.00  0.00    +0.008 A 
ATOM     25  C   UNK A   0       8.018   3.274  -1.174  0.00  0.00    +0.027 A 
ATOM     26  C   UNK A   0       8.252   4.072  -0.046  0.00  0.00    +0.054 A 
ATOM     27  C   UNK A   0       7.611   3.751   1.175  0.00  0.00    +0.057 A 
ATOM     28  C   UNK A   0       6.751   2.647   1.237  0.00  0.00    +0.058 A 
ATOM     29 CL   UNK A   0       5.952   2.244   2.725  0.00  0.00    -0.082 Cl
ATOM     30  C   UNK A   0       7.862   4.572   2.302  0.00  0.00    +0.130 A 
ATOM     31  N   UNK A   0       8.685   5.601   2.159  0.00  0.00    -0.201 NA
ATOM     32  C   UNK A   0       9.266   5.867   0.993  0.00  0.00    +0.192 A 
ATOM     33  N   UNK A   0       9.068   5.136  -0.088  0.00  0.00    -0.327 N 
ATOM     34  N   UNK A   0      10.115   6.956   0.909  0.00  0.00    -0.329 N 
ATOM     35  H   UNK A   0      10.275   7.507   1.690  0.00  0.00    +0.145 HD
ATOM     36  H   UNK A   0      10.550   7.168   0.068  0.00  0.00    +0.145 HD
ATOM     37  H   UNK A   0       9.514   5.369  -0.916  0.00  0.00    +0.169 HD
BRANCH  30  38
ATOM     38  N   UNK A   0       7.265   4.308   3.516  0.00  0.00    -0.342 N 
ATOM     39  H   UNK A   0       7.205   3.395   3.838  0.00  0.00    +0.144 HD
ATOM     40  H   UNK A   0       6.906   5.034   4.048  0.00  0.00    +0.144 HD
ENDBRANCH  30  38
ENDBRANCH  22  23
ENDBRANCH   1  22
TORSDOF 10
