REMARK  Name = ZINC36897272
REMARK  5 active torsions:
REMARK  status: ('A' for Active; 'I' for Inactive)
REMARK    1  A    between atoms: C_1  and  C_2
REMARK    2  A    between atoms: C_2  and  C_4
REMARK    3  A    between atoms: C_2  and  N_17
REMARK    4  A    between atoms: C_4  and  C_6
REMARK    5  A    between atoms: C_4  and  O_16
REMARK                            x       y       z     vdW  Elec       q    Type
REMARK                         _______ _______ _______ _____ _____    ______ ____
ROOT
ATOM      1  C   UNL     1       0.762  -2.018   1.233  0.00  0.00    -0.016 A 
ATOM      2  C   UNL     1      -0.206  -2.724   1.921  0.00  0.00    +0.055 A 
ATOM      3  C   UNL     1      -0.190  -4.110   1.915  0.00  0.00    +0.168 A 
ATOM      4  C   UNL     1       0.804  -4.788   1.215  0.00  0.00    +0.180 A 
ATOM      5  C   UNL     1       1.773  -4.073   0.528  0.00  0.00    +0.064 A 
ATOM      6  C   UNL     1       1.746  -2.690   0.533  0.00  0.00    +0.025 A 
ATOM      7 BR   UNL     1       3.125  -4.989  -0.425  0.00  0.00    -0.046 Br
ATOM      8  O   UNL     1       0.604  -6.130   1.362  0.00  0.00    -0.451 OA
ATOM      9  C   UNL     1      -0.279  -6.265   2.492  0.00  0.00    +0.466 C 
ATOM     10  O   UNL     1      -1.014  -5.027   2.501  0.00  0.00    -0.453 OA
ENDROOT
BRANCH   1  11
ATOM     11  C   UNL     1       0.742  -0.511   1.242  0.00  0.00    +0.130 C 
BRANCH  11  13
ATOM     12  C   UNL     1      -0.019   1.526   0.010  0.00  0.00    -0.011 C 
ATOM     13  C   UNL     1       0.002  -0.004   0.002  0.00  0.00    -0.045 C 
BRANCH  13  14
ATOM     14  N   UNL     1      -1.376  -0.512   0.012  0.00  0.00    +0.382 N 
ATOM     15  H   UNL     1      -1.864  -0.178  -0.805  0.00  0.00    -0.090 HD
ATOM     16  H   UNL     1      -1.362  -1.521   0.007  0.00  0.00    -0.090 HD
ATOM     17  H   UNL     1      -1.848  -0.187   0.843  0.00  0.00    -0.090 HD
ENDBRANCH  13  14
ENDBRANCH  11  13
BRANCH  11  18
ATOM     18  O   UNL     1       2.083  -0.016   1.231  0.00  0.00    -0.389 OA
ATOM     19  H   UNL     1       2.597  -0.290   0.460  0.00  0.00    +0.210 HD
ENDBRANCH  11  18
ENDBRANCH   1  11
TORSDOF 4
