REMARK  Name = ZINC01507221
REMARK  6 active torsions:
REMARK  status: ('A' for Active; 'I' for Inactive)
REMARK    1  A    between atoms: C_1  and  C_2
REMARK    2  A    between atoms: C_2  and  N_11
REMARK    3  A    between atoms: C_3  and  C_9
REMARK    4  A    between atoms: C_3  and  C_10
REMARK    5  A    between atoms: N_4  and  C_8
REMARK    6  A    between atoms: N_14  and  C_18
REMARK                            x       y       z     vdW  Elec       q    Type
REMARK                         _______ _______ _______ _____ _____    ______ ____
ROOT
ATOM      1  N   UNL     1      -1.347  -0.561  -0.053  0.00  0.00    -0.132 N 
ATOM      2  C   UNL     1      -1.900  -1.443   0.804  0.00  0.00    +0.369 A 
ATOM      3  O   UNL     1      -1.357  -1.927   1.779  0.00  0.00    -0.243 OA
ATOM      4  N   UNL     1      -3.157  -1.697   0.395  0.00  0.00    -0.194 N 
ATOM      5  C   UNL     1      -3.420  -0.987  -0.717  0.00  0.00    +0.448 A 
ATOM      6  O   UNL     1      -4.468  -0.994  -1.333  0.00  0.00    -0.220 OA
ATOM      7  O   UNL     1      -2.332  -0.265  -1.030  0.00  0.00    -0.314 OA
ENDROOT
BRANCH   1   9
ATOM      8  C   UNL     1      -0.013   1.521   0.026  0.00  0.00    +0.052 C 
ATOM      9  C   UNL     1       0.009  -0.009   0.015  0.00  0.00    +0.152 C 
ATOM     10  C   UNL     1       0.906  -0.557  -1.125  0.00  0.00    +0.066 C 
ATOM     11  N   UNL     1       2.263  -0.787  -0.666  0.00  0.00    -0.314 N 
ATOM     12  C   UNL     1       2.514  -0.925   0.651  0.00  0.00    +0.112 C 
ATOM     13  S   UNL     1       4.021  -1.261   1.392  0.00  0.00    -0.028 S 
ATOM     14  S   UNL     1       0.940  -0.681   1.457  0.00  0.00    -0.069 S 
ATOM     15  C   UNL     1       3.360  -0.871  -1.634  0.00  0.00    +0.131 C 
ATOM     16  C   UNL     1       0.319  -1.874  -1.635  0.00  0.00    +0.035 C 
ATOM     17  C   UNL     1       0.930   0.455  -2.273  0.00  0.00    +0.035 C 
ENDBRANCH   1   9
BRANCH   4  18
ATOM     18  C   UNL     1      -4.054  -2.568   1.030  0.00  0.00    +0.059 A 
ATOM     19  C   UNL     1      -3.670  -3.245   2.179  0.00  0.00    +0.028 A 
ATOM     20  C   UNL     1      -4.556  -4.102   2.804  0.00  0.00    +0.023 A 
ATOM     21  C   UNL     1      -5.825  -4.287   2.284  0.00  0.00    +0.059 A 
ATOM     22  C   UNL     1      -6.210  -3.613   1.138  0.00  0.00    +0.061 A 
ATOM     23  C   UNL     1      -5.330  -2.750   0.513  0.00  0.00    +0.048 A 
ATOM     24 CL   UNL     1      -7.803  -3.847   0.488  0.00  0.00    -0.082 Cl
ATOM     25 CL   UNL     1      -6.934  -5.366   3.070  0.00  0.00    -0.082 Cl
ENDBRANCH   4  18
TORSDOF 2
