REMARK  Name = ZINC40688249
REMARK  10 active torsions:
REMARK  status: ('A' for Active; 'I' for Inactive)
REMARK    1  A    between atoms: C_1  and  C_2
REMARK    2  A    between atoms: C_2  and  C_3
REMARK    3  A    between atoms: C_8  and  N_9
REMARK    4  A    between atoms: C_11  and  N_27
REMARK    5  A    between atoms: C_12  and  N_16
REMARK    6  A    between atoms: N_16  and  C_17
REMARK    7  A    between atoms: C_19  and  C_25
REMARK    8  A    between atoms: C_19  and  C_26
REMARK    9  A    between atoms: C_21  and  C_23
REMARK   10  A    between atoms: C_21  and  C_24
REMARK                            x       y       z     vdW  Elec       q    Type
REMARK                         _______ _______ _______ _____ _____    ______ ____
ROOT
ATOM      1  N   UNL     1      -2.117   0.346  -2.900  0.00  0.00    -0.298 N 
ATOM      2  C   UNL     1      -2.693  -0.074  -4.094  0.00  0.00    +0.149 A 
ATOM      3  C   UNL     1      -2.010   0.079  -5.303  0.00  0.00    +0.105 A 
ATOM      4  C   UNL     1      -2.634  -0.360  -6.472  0.00  0.00    +0.145 A 
ATOM      5  N   UNL     1      -3.847  -0.903  -6.391  0.00  0.00    -0.219 NA
ATOM      6  C   UNL     1      -4.457  -1.028  -5.230  0.00  0.00    +0.225 A 
ATOM      7  N   UNL     1      -3.901  -0.632  -4.103  0.00  0.00    -0.219 NA
ATOM      8  H   UNL     1      -1.202   0.667  -2.890  0.00  0.00    +0.154 HD
ENDROOT
BRANCH   1  14
ATOM      9  C   UNL     1      -2.211   0.154  -0.496  0.00  0.00    -0.026 A 
ATOM     10  C   UNL     1      -2.946   0.121   0.674  0.00  0.00    +0.005 A 
ATOM     11  C   UNL     1      -4.323   0.234   0.630  0.00  0.00    +0.000 A 
ATOM     12  C   UNL     1      -4.970   0.380  -0.583  0.00  0.00    +0.002 A 
ATOM     13  C   UNL     1      -4.242   0.414  -1.756  0.00  0.00    +0.023 A 
ATOM     14  C   UNL     1      -2.858   0.306  -1.716  0.00  0.00    +0.036 A 
BRANCH   9  16
ATOM     15  C   UNL     1      -0.085   1.428  -0.438  0.00  0.00    +0.009 C 
ATOM     16  C   UNL     1      -0.710   0.032  -0.448  0.00  0.00    +0.033 C 
ENDBRANCH   9  16
ENDBRANCH   1  14
BRANCH   3  17
ATOM     17  N   UNL     1      -0.732   0.658  -5.341  0.00  0.00    -0.353 N 
ATOM     18  H   UNL     1      -0.311   0.959  -4.520  0.00  0.00    +0.143 HD
ATOM     19  H   UNL     1      -0.270   0.758  -6.188  0.00  0.00    +0.143 HD
ENDBRANCH   3  17
BRANCH   4  20
ATOM     20  N   UNL     1      -1.999  -0.231  -7.702  0.00  0.00    -0.325 N 
ATOM     21  H   UNL     1      -1.116   0.166  -7.752  0.00  0.00    +0.148 HD
BRANCH  20  22
ATOM     22  C   UNL     1      -2.666  -0.696  -8.924  0.00  0.00    +0.069 C 
ATOM     23  C   UNL     1      -2.363  -2.182  -9.127  0.00  0.00    +0.009 C 
ATOM     24  C   UNL     1      -3.040  -2.679 -10.404  0.00  0.00    -0.072 C 
ATOM     25  N   UNL     1      -2.684  -1.874 -11.563  0.00  0.00    +0.386 N 
ATOM     26  C   UNL     1      -2.737  -0.427 -11.422  0.00  0.00    -0.072 C 
ATOM     27  C   UNL     1      -2.113   0.074 -10.123  0.00  0.00    +0.009 C 
ATOM     28  C   UNL     1      -4.167   0.103 -11.553  0.00  0.00    -0.010 C 
ATOM     29  C   UNL     1      -1.921   0.182 -12.587  0.00  0.00    -0.010 C 
ATOM     30  C   UNL     1      -4.553  -2.760 -10.203  0.00  0.00    -0.010 C 
ATOM     31  C   UNL     1      -2.534  -4.117 -10.662  0.00  0.00    -0.010 C 
ATOM     32  H   UNL     1      -1.739  -2.134 -11.856  0.00  0.00    -0.084 HD
ATOM     33  H   UNL     1      -3.291  -2.144 -12.341  0.00  0.00    -0.084 HD
ENDBRANCH  20  22
ENDBRANCH   4  20
TORSDOF 5
