REMARK  Name = ZINC26571842
REMARK  5 active torsions:
REMARK  status: ('A' for Active; 'I' for Inactive)
REMARK    1  A    between atoms: C_1  and  C_2
REMARK    2  A    between atoms: C_4  and  C_7
REMARK    3  A    between atoms: C_8  and  C_17
REMARK    4  A    between atoms: C_12  and  C_13
REMARK    5  A    between atoms: C_22  and  O_23
REMARK                            x       y       z     vdW  Elec       q    Type
REMARK                         _______ _______ _______ _____ _____    ______ ____
ROOT
ATOM      1  C   UNL     1      -1.785  -4.024   4.139  0.00  0.00    +0.058 A 
ATOM      2  C   UNL     1      -1.845  -2.672   3.718  0.00  0.00    +0.106 A 
ATOM      3  N   UNL     1      -3.095  -2.275   3.815  0.00  0.00    -0.173 NA
ATOM      4  N   UNL     1      -3.864  -3.346   4.285  0.00  0.00    -0.272 N 
ATOM      5  H   UNL     1      -4.948  -3.223   4.430  0.00  0.00    +0.189 HD
ATOM      6  C   UNL     1      -3.048  -4.404   4.480  0.00  0.00    +0.148 A 
ENDROOT
BRANCH   2   7
ATOM      7  C   UNL     1      -0.701  -1.850   3.256  0.00  0.00    +0.048 A 
ATOM      8  C   UNL     1       0.442  -1.738   4.046  0.00  0.00    +0.017 A 
ATOM      9  C   UNL     1       1.508  -0.972   3.618  0.00  0.00    +0.050 A 
ATOM     10  C   UNL     1       1.442  -0.313   2.399  0.00  0.00    +0.166 A 
ATOM     11  C   UNL     1       0.310  -0.419   1.606  0.00  0.00    +0.204 A 
ATOM     12  C   UNL     1      -0.767  -1.185   2.027  0.00  0.00    +0.172 A 
ATOM     13  O   UNL     1       0.261   0.236   0.408  0.00  0.00    -0.485 OA
ATOM     14  C   UNL     1       0.206   1.662   0.477  0.00  0.00    +0.232 C 
ATOM     15  C   UNL     1       1.602   2.249   0.614  0.00  0.00    +0.082 C 
ATOM     16  C   UNL     1       2.269   1.855   1.923  0.00  0.00    +0.232 C 
ATOM     17  O   UNL     1       2.494   0.445   1.972  0.00  0.00    -0.488 OA
BRANCH  12  18
ATOM     18  O   UNL     1      -1.878  -1.289   1.251  0.00  0.00    -0.503 OA
ATOM     19  H   UNL     1      -1.926  -0.764   0.286  0.00  0.00    +0.292 HD
ENDBRANCH  12  18
ENDBRANCH   2   7
BRANCH   1  23
ATOM     20  C   UNL     1       3.103  -4.779   3.490  0.00  0.00    +0.073 C 
ATOM     21  C   UNL     1       1.691  -5.142   3.871  0.00  0.00    +0.076 A 
ATOM     22  N   UNL     1       0.610  -4.402   3.817  0.00  0.00    -0.244 NA
ATOM     23  C   UNL     1      -0.568  -4.872   4.197  0.00  0.00    +0.083 A 
ATOM     24  C   UNL     1      -0.629  -6.165   4.640  0.00  0.00    +0.075 A 
ATOM     25  S   UNL     1       1.084  -6.648   4.486  0.00  0.00    -0.080 S 
ENDBRANCH   1  23
BRANCH   6  26
ATOM     26  C   UNL     1      -3.460  -5.762   4.986  0.00  0.00    +0.434 C 
ATOM     27  F   UNL     1      -4.838  -5.771   5.228  0.00  0.00    -0.164 F 
ATOM     28  F   UNL     1      -3.150  -6.731   4.025  0.00  0.00    -0.164 F 
ATOM     29  F   UNL     1      -2.776  -6.046   6.172  0.00  0.00    -0.164 F 
ENDBRANCH   6  26
TORSDOF 4
