REMARK  Name = ZINC56689757
REMARK  5 active torsions:
REMARK  status: ('A' for Active; 'I' for Inactive)
REMARK    1  A    between atoms: N_9  and  C_10
REMARK    2  A    between atoms: C_10  and  C_11
REMARK    3  A    between atoms: C_16  and  N_17
REMARK    4  A    between atoms: N_20  and  C_21
REMARK    5  A    between atoms: N_24  and  C_27
REMARK                            x       y       z     vdW  Elec       q    Type
REMARK                         _______ _______ _______ _____ _____    ______ ____
ROOT
ATOM      1  C   UNL     1       4.913  -0.406   1.697  0.00  0.00    -0.009 A 
ATOM      2  C   UNL     1       4.995   0.842   2.283  0.00  0.00    +0.007 A 
ATOM      3  C   UNL     1       5.957   1.095   3.243  0.00  0.00    +0.000 A 
ATOM      4  C   UNL     1       6.840   0.099   3.621  0.00  0.00    +0.002 A 
ATOM      5  C   UNL     1       6.763  -1.151   3.039  0.00  0.00    +0.023 A 
ATOM      6  C   UNL     1       5.794  -1.410   2.078  0.00  0.00    +0.039 A 
ENDROOT
BRANCH   6   7
ATOM      7  N   UNL     1       5.710  -2.677   1.491  0.00  0.00    -0.269 N 
ATOM      8  C   UNL     1       6.176  -3.757   2.149  0.00  0.00    +0.304 C 
ATOM      9  O   UNL     1       6.576  -3.647   3.292  0.00  0.00    -0.253 OA
ATOM     10  N   UNL     1       6.200  -4.959   1.540  0.00  0.00    -0.296 N 
ATOM     11  H   UNL     1       5.316  -2.779   0.611  0.00  0.00    +0.156 HD
ATOM     12  H   UNL     1       5.881  -5.047   0.628  0.00  0.00    +0.151 HD
BRANCH  10  13
ATOM     13  C   UNL     1       6.707  -6.133   2.255  0.00  0.00    +0.071 C 
ATOM     14  C   UNL     1       8.229  -6.204   2.108  0.00  0.00    +0.004 C 
ATOM     15  C   UNL     1       8.744  -7.474   2.789  0.00  0.00    -0.077 C 
ATOM     16  N   UNL     1       8.134  -8.652   2.160  0.00  0.00    +0.382 N 
ATOM     17  C   UNL     1       6.681  -8.627   2.359  0.00  0.00    -0.077 C 
ATOM     18  C   UNL     1       6.087  -7.401   1.661  0.00  0.00    +0.004 C 
ATOM     19  H   UNL     1       8.338  -8.647   1.172  0.00  0.00    -0.081 HD
BRANCH  16  20
ATOM     20  C   UNL     1       8.690  -9.870   2.765  0.00  0.00    -0.069 C 
ATOM     21  C   UNL     1       9.592 -10.744   1.891  0.00  0.00    -0.017 C 
ATOM     22  C   UNL     1       8.179 -11.214   2.242  0.00  0.00    -0.017 C 
ENDBRANCH  16  20
ENDBRANCH  10  13
ENDBRANCH   6   7
BRANCH   1  23
ATOM     23  C   UNL     1       3.865  -0.681   0.650  0.00  0.00    +0.142 C 
BRANCH  23  32
ATOM     24  C   UNL     1      -0.733   0.058   3.053  0.00  0.00    +0.000 A 
ATOM     25  C   UNL     1       0.158   0.994   2.561  0.00  0.00    +0.002 A 
ATOM     26  C   UNL     1       1.327   0.588   1.955  0.00  0.00    +0.023 A 
ATOM     27  C   UNL     1       1.622  -0.772   1.833  0.00  0.00    +0.033 A 
ATOM     28  C   UNL     1       0.723  -1.702   2.330  0.00  0.00    -0.025 A 
ATOM     29  C   UNL     1      -0.449  -1.290   2.936  0.00  0.00    +0.005 A 
ATOM     30  C   UNL     1       1.273  -3.087   2.075  0.00  0.00    +0.056 C 
ATOM     31  C   UNL     1       2.614  -2.845   1.364  0.00  0.00    +0.110 C 
ATOM     32  N   UNL     1       2.737  -1.388   1.262  0.00  0.00    -0.325 N 
ENDBRANCH  23  32
ENDBRANCH   1  23
TORSDOF 5
