REMARK  Name = ZINC00850176
REMARK  14 active torsions:
REMARK  status: ('A' for Active; 'I' for Inactive)
REMARK    1  A    between atoms: C_1  and  C_2
REMARK    2  A    between atoms: C_3  and  C_26
REMARK    3  A    between atoms: C_15  and  C_19
REMARK    4  A    between atoms: C_16  and  N_18
REMARK    5  A    between atoms: C_19  and  O_21
REMARK    6  A    between atoms: O_21  and  C_22
REMARK    7  A    between atoms: C_22  and  C_23
REMARK    8  A    between atoms: C_22  and  C_24
REMARK    9  A    between atoms: C_22  and  C_25
REMARK   10  A    between atoms: C_26  and  O_28
REMARK   11  A    between atoms: O_28  and  C_29
REMARK   12  A    between atoms: C_29  and  C_30
REMARK   13  A    between atoms: C_29  and  C_31
REMARK   14  A    between atoms: C_29  and  C_32
REMARK                            x       y       z     vdW  Elec       q    Type
REMARK                         _______ _______ _______ _____ _____    ______ ____
ROOT
ATOM      1  C   UNL     1       2.481   4.455  -2.497  0.00  0.00    +0.087 C 
ATOM      2  C   UNL     1       2.337   3.705  -1.198  0.00  0.00    +0.116 C 
ATOM      3  C   UNL     1       1.472   2.683  -1.132  0.00  0.00    +0.098 C 
ATOM      4  C   UNL     1       1.292   1.908   0.140  0.00  0.00    +0.145 C 
ATOM      5  C   UNL     1       1.921   0.543   0.023  0.00  0.00    -0.001 A 
ATOM      6  C   UNL     1       3.212   0.117  -0.197  0.00  0.00    +0.022 A 
ATOM      7  C   UNL     1       3.493  -1.237  -0.256  0.00  0.00    +0.018 A 
ATOM      8  C   UNL     1       2.474  -2.159  -0.094  0.00  0.00    +0.017 A 
ATOM      9  C   UNL     1       1.180  -1.736   0.126  0.00  0.00    +0.025 A 
ATOM     10  C   UNL     1       0.889  -0.374   0.186  0.00  0.00    +0.038 A 
ATOM     11  N   UNL     1      -0.321   0.292   0.394  0.00  0.00    -0.284 N 
ATOM     12  C   UNL     1      -0.173   1.628   0.381  0.00  0.00    +0.237 C 
ATOM     13  O   UNL     1      -1.050   2.453   0.530  0.00  0.00    -0.274 OA
ATOM     14 BR   UNL     1       5.265  -1.825  -0.556  0.00  0.00    -0.050 Br
ATOM     15  C   UNL     1       1.877   2.659   1.301  0.00  0.00    +0.117 C 
ATOM     16  C   UNL     1       2.729   3.698   1.090  0.00  0.00    +0.195 C 
ATOM     17  O   UNL     1       3.080   4.083  -0.147  0.00  0.00    -0.446 OA
ATOM     18  H   UNL     1      -1.169  -0.158   0.532  0.00  0.00    +0.155 HD
ENDROOT
BRANCH  16  19
ATOM     19  N   UNL     1       3.243   4.367   2.168  0.00  0.00    -0.329 N 
ATOM     20  H   UNL     1       3.775   5.167   2.033  0.00  0.00    +0.145 HD
ATOM     21  H   UNL     1       3.075   4.042   3.066  0.00  0.00    +0.145 HD
ENDBRANCH  16  19
BRANCH  15  22
ATOM     22  C   UNL     1       1.542   2.288   2.612  0.00  0.00    +0.342 C 
ATOM     23  O   UNL     1       2.095   1.337   3.136  0.00  0.00    -0.245 OA
BRANCH  22  24
ATOM     24  O   UNL     1       0.606   2.984   3.293  0.00  0.00    -0.455 OA
BRANCH  24  25
ATOM     25  C   UNL     1       0.315   2.551   4.623  0.00  0.00    +0.106 C 
ATOM     26  C   UNL     1       1.584   2.627   5.474  0.00  0.00    +0.055 C 
ATOM     27  C   UNL     1      -0.761   3.454   5.230  0.00  0.00    +0.055 C 
ATOM     28  C   UNL     1      -0.191   1.107   4.590  0.00  0.00    +0.055 C 
ENDBRANCH  24  25
ENDBRANCH  22  24
ENDBRANCH  15  22
BRANCH   3  29
ATOM     29  C   UNL     1       0.718   2.331  -2.279  0.00  0.00    +0.341 C 
ATOM     30  O   UNL     1       1.026   1.352  -2.932  0.00  0.00    -0.245 OA
BRANCH  29  31
ATOM     31  O   UNL     1      -0.341   3.082  -2.647  0.00  0.00    -0.456 OA
BRANCH  31  32
ATOM     32  C   UNL     1      -1.056   2.668  -3.813  0.00  0.00    +0.106 C 
ATOM     33  C   UNL     1      -1.606   1.257  -3.600  0.00  0.00    +0.055 C 
ATOM     34  C   UNL     1      -2.214   3.634  -4.070  0.00  0.00    +0.055 C 
ATOM     35  C   UNL     1      -0.112   2.671  -5.017  0.00  0.00    +0.055 C 
ENDBRANCH  31  32
ENDBRANCH  29  31
ENDBRANCH   3  29
TORSDOF 7
