REMARK  Name = ZINC02867779
REMARK  3 active torsions:
REMARK  status: ('A' for Active; 'I' for Inactive)
REMARK    1  A    between atoms: C_1  and  C_2
REMARK    2  A    between atoms: C_5  and  C_7
REMARK    3  A    between atoms: C_9  and  C_18
REMARK                            x       y       z     vdW  Elec       q    Type
REMARK                         _______ _______ _______ _____ _____    ______ ____
ROOT
ATOM      1  C   UNL     1       1.664  -3.223  -0.009  0.00  0.00    +0.107 A 
ATOM      2  C   UNL     1       3.050  -2.986  -0.007  0.00  0.00    +0.045 A 
ATOM      3  C   UNL     1       3.924  -4.062  -0.031  0.00  0.00    +0.048 A 
ATOM      4  C   UNL     1       3.339  -5.404  -0.056  0.00  0.00    +0.014 A 
ATOM      5  C   UNL     1       4.141  -6.550  -0.081  0.00  0.00    +0.026 A 
ATOM      6  C   UNL     1       3.555  -7.782  -0.103  0.00  0.00    +0.019 A 
ATOM      7  C   UNL     1       2.168  -7.913  -0.103  0.00  0.00    +0.017 A 
ATOM      8  C   UNL     1       1.359  -6.819  -0.080  0.00  0.00    +0.029 A 
ATOM      9  C   UNL     1       1.927  -5.532  -0.055  0.00  0.00    +0.073 A 
ATOM     10  N   UNL     1       1.159  -4.441  -0.026  0.00  0.00    -0.244 NA
ATOM     11 BR   UNL     1       4.640  -9.331  -0.136  0.00  0.00    -0.050 Br
ENDROOT
BRANCH   3  12
ATOM     12  C   UNL     1       5.389  -3.863  -0.031  0.00  0.00    +0.250 C 
ATOM     13  O   UNL     1       6.133  -4.820   0.052  0.00  0.00    -0.270 OA
ATOM     14  N   UNL     1       5.899  -2.619  -0.124  0.00  0.00    -0.261 N 
ATOM     15  C   UNL     1       7.267  -2.432  -0.125  0.00  0.00    +0.156 C 
ATOM     16  N   UNL     1       8.188  -3.349  -0.048  0.00  0.00    -0.262 NA
ATOM     17  C   UNL     1       9.597  -3.003  -0.035  0.00  0.00    +0.155 C 
ATOM     18  C   UNL     1       9.825  -1.564  -0.573  0.00  0.00    +0.100 C 
ATOM     19  S   UNL     1       8.147  -0.882  -0.238  0.00  0.00    -0.089 S 
ATOM     20  H   UNL     1       5.305  -1.855  -0.191  0.00  0.00    +0.157 HD
ENDBRANCH   3  12
BRANCH   1  25
ATOM     21  C   UNL     1      -0.018   1.502   0.085  0.00  0.00    +0.086 C 
ATOM     22  C   UNL     1       0.002  -0.005   0.058  0.00  0.00    +0.103 A 
ATOM     23  C   UNL     1      -1.083  -0.806   0.051  0.00  0.00    +0.045 A 
ATOM     24  C   UNL     1      -0.616  -2.133   0.024  0.00  0.00    +0.052 A 
ATOM     25  C   UNL     1       0.744  -2.070   0.017  0.00  0.00    +0.153 A 
ATOM     26  O   UNL     1       1.103  -0.772   0.032  0.00  0.00    -0.458 OA
ENDBRANCH   1  25
TORSDOF 2
