REMARK  Name = ZINC03360277
REMARK  6 active torsions:
REMARK  status: ('A' for Active; 'I' for Inactive)
REMARK    1  A    between atoms: C_1  and  C_2
REMARK    2  A    between atoms: C_3  and  N_15
REMARK    3  A    between atoms: N_6  and  C_9
REMARK    4  A    between atoms: N_7  and  C_8
REMARK    5  A    between atoms: C_16  and  C_18
REMARK    6  A    between atoms: C_18  and  C_19
REMARK                            x       y       z     vdW  Elec       q    Type
REMARK                         _______ _______ _______ _____ _____    ______ ____
ROOT
ATOM      1  C   UNL     1      -6.099  -1.503   2.296  0.00  0.00    +0.067 C 
ATOM      2  C   UNL     1      -5.401  -0.613   3.292  0.00  0.00    +0.059 A 
ATOM      3  C   UNL     1      -4.716   0.515   2.998  0.00  0.00    +0.121 A 
ATOM      4  C   UNL     1      -4.214   1.059   4.260  0.00  0.00    +0.293 A 
ATOM      5  O   UNL     1      -3.554   2.072   4.402  0.00  0.00    -0.264 OA
ATOM      6  N   UNL     1      -4.621   0.223   5.238  0.00  0.00    -0.216 N 
ATOM      7  N   UNL     1      -5.352  -0.814   4.646  0.00  0.00    -0.282 N 
ATOM      8  C   UNL     1      -5.972  -1.931   5.362  0.00  0.00    +0.171 C 
ENDROOT
BRANCH   6   9
ATOM      9  C   UNL     1      -4.360   0.368   6.604  0.00  0.00    +0.067 A 
ATOM     10  C   UNL     1      -5.394   0.263   7.525  0.00  0.00    +0.028 A 
ATOM     11  C   UNL     1      -5.132   0.401   8.874  0.00  0.00    +0.002 A 
ATOM     12  C   UNL     1      -3.843   0.655   9.307  0.00  0.00    +0.000 A 
ATOM     13  C   UNL     1      -2.812   0.764   8.392  0.00  0.00    +0.002 A 
ATOM     14  C   UNL     1      -3.067   0.622   7.042  0.00  0.00    +0.028 A 
ENDBRANCH   6   9
BRANCH   3  15
ATOM     15  N   UNL     1      -4.526   1.067   1.716  0.00  0.00    -0.280 N 
ATOM     16  C   UNL     1      -3.285   1.382   1.294  0.00  0.00    +0.222 C 
ATOM     17  O   UNL     1      -2.343   1.279   2.052  0.00  0.00    -0.275 OA
ATOM     18  H   UNL     1      -5.288   1.221   1.136  0.00  0.00    +0.155 HD
BRANCH  16  19
ATOM     19  C   UNL     1      -3.067   1.861  -0.118  0.00  0.00    +0.134 C 
BRANCH  19  20
ATOM     20  C   UNL     1      -1.602   2.143  -0.332  0.00  0.00    -0.002 A 
ATOM     21  C   UNL     1      -1.094   3.402  -0.068  0.00  0.00    +0.046 A 
ATOM     22  C   UNL     1       0.249   3.662  -0.271  0.00  0.00    +0.020 A 
ATOM     23  C   UNL     1       1.085   2.663  -0.732  0.00  0.00    +0.003 A 
ATOM     24  C   UNL     1       0.579   1.403  -0.991  0.00  0.00    +0.020 A 
ATOM     25  C   UNL     1      -0.765   1.142  -0.789  0.00  0.00    +0.046 A 
ATOM     26 CL   UNL     1      -1.400  -0.440  -1.116  0.00  0.00    -0.083 Cl
ATOM     27 CL   UNL     1      -2.144   4.658   0.512  0.00  0.00    -0.083 Cl
ENDBRANCH  19  20
ENDBRANCH  16  19
ENDBRANCH   3  15
TORSDOF 4
