REMARK  Name = ZINC36359952
REMARK  2 active torsions:
REMARK  status: ('A' for Active; 'I' for Inactive)
REMARK    1  A    between atoms: C_3  and  C_9
REMARK    2  A    between atoms: C_12  and  O_25
REMARK                            x       y       z     vdW  Elec       q    Type
REMARK                         _______ _______ _______ _____ _____    ______ ____
ROOT
ATOM      1  C   UNL     1       3.671   2.186  -0.023  0.00  0.00    +0.070 C 
ATOM      2  C   UNL     1       3.726   3.099  -1.259  0.00  0.00    +0.109 C 
ATOM      3  C   UNL     1       4.717   4.207  -1.053  0.00  0.00    +0.190 C 
ATOM      4  N   UNL     1       4.984   4.752   0.086  0.00  0.00    -0.197 NA
ATOM      5  C   UNL     1       4.371   4.284   1.244  0.00  0.00    +0.169 A 
ATOM      6  C   UNL     1       3.748   3.058   1.182  0.00  0.00    +0.045 A 
ATOM      7  S   UNL     1       3.124   2.850   2.822  0.00  0.00    -0.054 S 
ATOM      8  C   UNL     1       3.754   4.389   3.485  0.00  0.00    +0.163 A 
ATOM      9  N   UNL     1       4.353   4.909   2.426  0.00  0.00    -0.206 NA
ATOM     10  N   UNL     1       3.641   4.902   4.767  0.00  0.00    -0.305 N 
ATOM     11  C   UNL     1       2.927   4.161   5.819  0.00  0.00    +0.135 C 
ATOM     12  C   UNL     1       3.832   4.084   7.055  0.00  0.00    +0.179 C 
ATOM     13  O   UNL     1       4.276   5.400   7.395  0.00  0.00    -0.377 OA
ATOM     14  C   UNL     1       5.072   6.027   6.387  0.00  0.00    +0.179 C 
ATOM     15  C   UNL     1       4.236   6.201   5.119  0.00  0.00    +0.135 C 
ENDROOT
BRANCH   1  18
ATOM     16  C   UNL     1      -0.017   1.380   0.010  0.00  0.00    +0.039 A 
ATOM     17  C   UNL     1       1.171   2.088   0.002  0.00  0.00    +0.008 A 
ATOM     18  C   UNL     1       2.377   1.414  -0.013  0.00  0.00    -0.020 A 
ATOM     19  C   UNL     1       2.398   0.030  -0.021  0.00  0.00    +0.047 A 
ATOM     20  C   UNL     1       1.211  -0.679  -0.013  0.00  0.00    +0.058 A 
ATOM     21  C   UNL     1       0.002  -0.004   0.002  0.00  0.00    +0.125 A 
ATOM     22  F   UNL     1      -1.158  -0.696   0.010  0.00  0.00    -0.205 F 
ATOM     23 CL   UNL     1       3.914  -0.815  -0.041  0.00  0.00    -0.083 Cl
ENDBRANCH   1  18
BRANCH   3  24
ATOM     24  O   UNL     1       5.377   4.667  -2.138  0.00  0.00    -0.495 OA
ATOM     25  H   UNL     1       6.002   5.380  -1.945  0.00  0.00    +0.293 HD
ENDBRANCH   3  24
TORSDOF 2
