REMARK  Name = ZINC40744511
REMARK  9 active torsions:
REMARK  status: ('A' for Active; 'I' for Inactive)
REMARK    1  A    between atoms: C_3  and  C_17
REMARK    2  A    between atoms: C_5  and  O_7
REMARK    3  A    between atoms: O_7  and  C_8
REMARK    4  A    between atoms: C_8  and  C_9
REMARK    5  A    between atoms: C_17  and  N_18
REMARK    6  A    between atoms: N_18  and  C_19
REMARK    7  A    between atoms: C_19  and  C_20
REMARK    8  A    between atoms: C_20  and  N_21
REMARK    9  A    between atoms: C_22  and  C_24
REMARK                            x       y       z     vdW  Elec       q    Type
REMARK                         _______ _______ _______ _____ _____    ______ ____
ROOT
ATOM      1  C   UNL     1       3.671   2.190  -0.021  0.00  0.00    -0.047 C 
ENDROOT
BRANCH   1   4
ATOM      2  C   UNL     1      -0.017   1.377   0.010  0.00  0.00    +0.004 A 
ATOM      3  C   UNL     1       1.171   2.086   0.002  0.00  0.00    +0.002 A 
ATOM      4  C   UNL     1       2.379   1.415  -0.013  0.00  0.00    -0.061 A 
ATOM      5  C   UNL     1       2.403   0.033  -0.021  0.00  0.00    +0.047 A 
ATOM      6  C   UNL     1       1.214  -0.680  -0.013  0.00  0.00    +0.121 A 
ATOM      7  C   UNL     1       0.002  -0.004   0.002  0.00  0.00    +0.045 A 
BRANCH   6   8
ATOM      8  O   UNL     1       1.235  -2.039  -0.021  0.00  0.00    -0.487 OA
BRANCH   8   9
ATOM      9  C   UNL     1      -0.028  -2.708  -0.013  0.00  0.00    +0.266 C 
BRANCH   9  10
ATOM     10  C   UNL     1       0.192  -4.198  -0.024  0.00  0.00    +0.008 A 
ATOM     11  C   UNL     1       1.478  -4.706  -0.033  0.00  0.00    +0.011 A 
ATOM     12  C   UNL     1       1.682  -6.073  -0.043  0.00  0.00    +0.039 A 
ATOM     13  C   UNL     1       0.598  -6.935  -0.043  0.00  0.00    +0.125 A 
ATOM     14  C   UNL     1      -0.690  -6.426  -0.033  0.00  0.00    +0.058 A 
ATOM     15  C   UNL     1      -0.892  -5.058  -0.018  0.00  0.00    +0.050 A 
ATOM     16 CL   UNL     1      -2.506  -4.419   0.001  0.00  0.00    -0.083 Cl
ATOM     17  F   UNL     1       0.796  -8.271  -0.053  0.00  0.00    -0.205 F 
ENDBRANCH   9  10
ENDBRANCH   8   9
ENDBRANCH   6   8
ENDBRANCH   1   4
BRANCH   1  18
ATOM     18  N   UNL     1       4.104   2.435   1.361  0.00  0.00    +0.383 N 
ATOM     19  H   UNL     1       3.396   2.965   1.846  0.00  0.00    -0.085 HD
ATOM     20  H   UNL     1       4.244   1.553   1.831  0.00  0.00    -0.085 HD
BRANCH  18  21
ATOM     21  C   UNL     1       5.364   3.191   1.353  0.00  0.00    -0.063 C 
BRANCH  21  22
ATOM     22  C   UNL     1       5.815   3.446   2.793  0.00  0.00    +0.085 C 
BRANCH  22  23
ATOM     23  N   UNL     1       7.071   4.199   2.785  0.00  0.00    -0.312 N 
ATOM     24  C   UNL     1       7.660   4.540   3.948  0.00  0.00    +0.269 C 
ATOM     25  O   UNL     1       7.149   4.222   5.004  0.00  0.00    -0.268 OA
ATOM     26  H   UNL     1       7.479   4.454   1.942  0.00  0.00    +0.149 HD
BRANCH  24  27
ATOM     27  C   UNL     1       8.930   5.303   3.940  0.00  0.00    +0.209 A 
ATOM     28  C   UNL     1       9.681   5.734   5.125  0.00  0.00    +0.192 A 
ATOM     29  N   UNL     1      10.743   6.378   4.724  0.00  0.00    -0.033 NA
ATOM     30  O   UNL     1      10.734   6.396   3.308  0.00  0.00    -0.240 OA
ATOM     31  N   UNL     1       9.577   5.702   2.877  0.00  0.00    -0.042 NA
ATOM     32  N   UNL     1       9.324   5.497   6.445  0.00  0.00    -0.339 N 
ATOM     33  H   UNL     1       8.512   5.006   6.647  0.00  0.00    +0.144 HD
ATOM     34  H   UNL     1       9.886   5.822   7.165  0.00  0.00    +0.144 HD
ENDBRANCH  24  27
ENDBRANCH  22  23
ENDBRANCH  21  22
ENDBRANCH  18  21
ENDBRANCH   1  18
TORSDOF 9
