REMARK  Name = ZINC20571948
REMARK  5 active torsions:
REMARK  status: ('A' for Active; 'I' for Inactive)
REMARK    1  A    between atoms: C_1  and  C_2
REMARK    2  A    between atoms: C_17  and  C_19
REMARK    3  A    between atoms: C_23  and  N_25
REMARK    4  A    between atoms: N_25  and  S_26
REMARK    5  A    between atoms: S_26  and  C_29
REMARK                            x       y       z     vdW  Elec       q    Type
REMARK                         _______ _______ _______ _____ _____    ______ ____
ROOT
ATOM      1  C   UNL     1       0.395  -1.258   6.203  0.00  0.00    +0.044 C 
ATOM      2  C   UNL     1       1.440  -0.451   5.476  0.00  0.00    -0.049 A 
ATOM      3  C   UNL     1       1.417   0.935   5.529  0.00  0.00    +0.005 A 
ATOM      4  C   UNL     1       2.355   1.692   4.877  0.00  0.00    +0.029 A 
ATOM      5  C   UNL     1       3.384   1.078   4.126  0.00  0.00    +0.080 A 
ATOM      6  C   UNL     1       3.376  -0.335   4.095  0.00  0.00    +0.041 A 
ATOM      7  C   UNL     1       2.432  -1.085   4.750  0.00  0.00    +0.020 A 
ATOM      8  S   UNL     1       4.786  -0.699   3.077  0.00  0.00    -0.052 S 
ATOM      9  C   UNL     1       5.281   0.989   2.766  0.00  0.00    +0.162 A 
ATOM     10  N   UNL     1       4.378   1.673   3.430  0.00  0.00    -0.225 NA
ATOM     11  N   UNL     1       6.343   1.456   2.019  0.00  0.00    -0.307 N 
ATOM     12  C   UNL     1       7.611   0.883   2.491  0.00  0.00    +0.126 C 
ATOM     13  C   UNL     1       8.736   1.280   1.529  0.00  0.00    +0.127 C 
ATOM     14  N   UNL     1       8.732   2.743   1.383  0.00  0.00    -0.295 N 
ATOM     15  C   UNL     1       7.462   3.405   1.045  0.00  0.00    +0.127 C 
ATOM     16  C   UNL     1       6.387   2.924   2.025  0.00  0.00    +0.126 C 
ATOM     17  C   UNL     1       9.861   3.459   1.553  0.00  0.00    +0.247 C 
ATOM     18  O   UNL     1      10.881   2.908   1.918  0.00  0.00    -0.270 OA
ENDROOT
BRANCH  17  19
ATOM     19  C   UNL     1       9.859   4.916   1.296  0.00  0.00    +0.039 A 
ATOM     20  C   UNL     1       9.048   5.448   0.291  0.00  0.00    +0.013 A 
ATOM     21  C   UNL     1       9.044   6.808   0.057  0.00  0.00    +0.003 A 
ATOM     22  C   UNL     1       9.849   7.646   0.806  0.00  0.00    +0.024 A 
ATOM     23  C   UNL     1      10.664   7.125   1.804  0.00  0.00    +0.049 A 
ATOM     24  C   UNL     1      10.671   5.761   2.051  0.00  0.00    +0.037 A 
BRANCH  23  25
ATOM     25  N   UNL     1      11.476   7.976   2.558  0.00  0.00    -0.216 N 
ATOM     26  H   UNL     1      11.510   7.877   3.653  0.00  0.00    +0.174 HD
BRANCH  25  27
ATOM     27  S   UNL     1      12.387   9.135   1.803  0.00  0.00    +0.072 S 
ATOM     28  O   UNL     1      11.499   9.874   0.976  0.00  0.00    -0.150 OA
ATOM     29  O   UNL     1      13.179   9.749   2.811  0.00  0.00    -0.150 OA
BRANCH  27  30
ATOM     30  C   UNL     1      13.502   8.300   0.725  0.00  0.00    +0.109 A 
ATOM     31  C   UNL     1      14.705   7.821   1.211  0.00  0.00    +0.031 A 
ATOM     32  C   UNL     1      15.578   7.162   0.367  0.00  0.00    +0.040 A 
ATOM     33  C   UNL     1      15.253   6.990  -0.968  0.00  0.00    +0.124 A 
ATOM     34  C   UNL     1      14.051   7.474  -1.455  0.00  0.00    +0.040 A 
ATOM     35  C   UNL     1      13.177   8.128  -0.608  0.00  0.00    +0.031 A 
ATOM     36  F   UNL     1      16.109   6.349  -1.795  0.00  0.00    -0.205 F 
ENDBRANCH  27  30
ENDBRANCH  25  27
ENDBRANCH  23  25
ENDBRANCH  17  19
TORSDOF 4
