REMARK  Name = ZINC02396418
REMARK  6 active torsions:
REMARK  status: ('A' for Active; 'I' for Inactive)
REMARK    1  A    between atoms: C_1  and  C_2
REMARK    2  A    between atoms: C_5  and  S_8
REMARK    3  A    between atoms: S_8  and  C_11
REMARK    4  A    between atoms: N_24  and  C_27
REMARK    5  A    between atoms: C_25  and  N_26
REMARK    6  A    between atoms: C_27  and  C_28
REMARK                            x       y       z     vdW  Elec       q    Type
REMARK                         _______ _______ _______ _____ _____    ______ ____
ROOT
ATOM      1  C   UNL     1      -2.168   2.131  -3.291  0.00  0.00    +0.132 A 
ATOM      2  C   UNL     1      -1.675   3.363  -3.565  0.00  0.00    +0.047 A 
ATOM      3  C   UNL     1      -0.708   3.933  -2.707  0.00  0.00    +0.084 A 
ATOM      4  C   UNL     1      -0.263   3.222  -1.574  0.00  0.00    +0.150 A 
ATOM      5  N   UNL     1       0.645   3.768  -0.775  0.00  0.00    -0.211 NA
ATOM      6  C   UNL     1       1.149   4.977  -1.020  0.00  0.00    +0.143 A 
ATOM      7  C   UNL     1       2.110   5.507  -0.138  0.00  0.00    +0.047 A 
ATOM      8  C   UNL     1       2.633   6.743  -0.378  0.00  0.00    +0.005 A 
ATOM      9  C   UNL     1       2.206   7.469  -1.499  0.00  0.00    +0.018 A 
ATOM     10  C   UNL     1       1.282   6.945  -2.335  0.00  0.00    +0.096 A 
ATOM     11  N   UNL     1       0.753   5.710  -2.105  0.00  0.00    -0.268 N 
ATOM     12  C   UNL     1      -0.169   5.215  -2.961  0.00  0.00    +0.268 A 
ATOM     13  O   UNL     1      -0.527   5.860  -3.931  0.00  0.00    -0.267 OA
ATOM     14  N   UNL     1      -0.775   1.974  -1.310  0.00  0.00    -0.308 N 
ATOM     15  C   UNL     1      -1.715   1.421  -2.153  0.00  0.00    +0.124 A 
ENDROOT
BRANCH   1  16
ATOM     16  S   UNL     1      -3.374   1.409  -4.354  0.00  0.00    +0.028 S 
ATOM     17  O   UNL     1      -3.627   2.357  -5.383  0.00  0.00    -0.164 OA
ATOM     18  O   UNL     1      -2.934   0.086  -4.628  0.00  0.00    -0.164 OA
BRANCH  16  23
ATOM     19  C   UNL     1      -8.481   0.908  -1.181  0.00  0.00    +0.044 C 
ATOM     20  C   UNL     1      -7.206   1.033  -1.974  0.00  0.00    -0.050 A 
ATOM     21  C   UNL     1      -6.889   2.230  -2.588  0.00  0.00    +0.005 A 
ATOM     22  C   UNL     1      -5.719   2.345  -3.315  0.00  0.00    +0.027 A 
ATOM     23  C   UNL     1      -4.865   1.263  -3.427  0.00  0.00    +0.094 A 
ATOM     24  C   UNL     1      -5.185   0.065  -2.817  0.00  0.00    +0.027 A 
ATOM     25  C   UNL     1      -6.353  -0.049  -2.086  0.00  0.00    +0.005 A 
ENDBRANCH  16  23
ENDBRANCH   1  16
BRANCH  15  26
ATOM     26  N   UNL     1      -2.195   0.226  -1.897  0.00  0.00    -0.343 N 
ATOM     27  H   UNL     1      -1.846  -0.330  -1.014  0.00  0.00    +0.144 HD
ATOM     28  H   UNL     1      -2.947  -0.220  -2.565  0.00  0.00    +0.144 HD
ENDBRANCH  15  26
BRANCH  14  29
ATOM     29  C   UNL     1      -0.318   1.230  -0.134  0.00  0.00    +0.161 C 
BRANCH  29  30
ATOM     30  C   UNL     1       0.952   0.490  -0.471  0.00  0.00    -0.009 A 
ATOM     31  C   UNL     1       2.179   1.095  -0.267  0.00  0.00    +0.007 A 
ATOM     32  C   UNL     1       3.343   0.417  -0.576  0.00  0.00    +0.000 A 
ATOM     33  C   UNL     1       3.282  -0.866  -1.089  0.00  0.00    +0.001 A 
ATOM     34  C   UNL     1       2.056  -1.471  -1.293  0.00  0.00    +0.020 A 
ATOM     35  C   UNL     1       0.890  -0.795  -0.979  0.00  0.00    +0.046 A 
ATOM     36 CL   UNL     1      -0.649  -1.557  -1.228  0.00  0.00    -0.083 Cl
ENDBRANCH  29  30
ENDBRANCH  14  29
TORSDOF 5
