REMARK  Name = ZINC41300909
REMARK  8 active torsions:
REMARK  status: ('A' for Active; 'I' for Inactive)
REMARK    1  A    between atoms: C_1  and  C_2
REMARK    2  A    between atoms: C_2  and  C_3
REMARK    3  A    between atoms: C_3  and  C_5
REMARK    4  A    between atoms: C_3  and  N_6
REMARK    5  A    between atoms: C_10  and  N_23
REMARK    6  A    between atoms: C_11  and  N_13
REMARK    7  A    between atoms: N_13  and  C_14
REMARK    8  A    between atoms: C_17  and  C_20
REMARK                            x       y       z     vdW  Elec       q    Type
REMARK                         _______ _______ _______ _____ _____    ______ ____
ROOT
ATOM      1  N   UNL     1      -0.110  -0.655  -2.592  0.00  0.00    -0.311 N 
ATOM      2  C   UNL     1       0.547  -0.263  -3.745  0.00  0.00    +0.219 A 
ATOM      3  N   UNL     1       1.871  -0.281  -3.770  0.00  0.00    -0.197 NA
ATOM      4  C   UNL     1       2.538   0.089  -4.862  0.00  0.00    +0.154 A 
ATOM      5  C   UNL     1       1.824   0.498  -5.985  0.00  0.00    +0.205 A 
ATOM      6  C   UNL     1       0.434   0.503  -5.921  0.00  0.00    +0.160 A 
ATOM      7  N   UNL     1      -0.164   0.115  -4.796  0.00  0.00    -0.197 NA
ATOM      8  N   UNL     1       3.923   0.068  -4.879  0.00  0.00    -0.341 N 
ATOM      9  H   UNL     1      -1.080  -0.651  -2.562  0.00  0.00    +0.149 HD
ATOM     10  H   UNL     1       4.414  -0.217  -4.093  0.00  0.00    +0.144 HD
ATOM     11  H   UNL     1       4.402   0.339  -5.678  0.00  0.00    +0.144 HD
ENDROOT
BRANCH   5  12
ATOM     12  N   UNL     1       2.527   0.917  -7.218  0.00  0.00    +0.063 N 
ATOM     13  O   UNL     1       2.795   0.101  -8.069  0.00  0.00    -0.126 OA
ATOM     14  O   UNL     1       2.833   2.076  -7.375  0.00  0.00    -0.126 OA
ENDBRANCH   5  12
BRANCH   1  15
ATOM     15  C   UNL     1       0.658  -1.077  -1.418  0.00  0.00    +0.070 C 
ATOM     16  C   UNL     1       1.012  -2.560  -1.546  0.00  0.00    +0.028 C 
BRANCH  15  18
ATOM     17  C   UNL     1      -0.427   0.639   0.039  0.00  0.00    +0.005 C 
ATOM     18  C   UNL     1      -0.179  -0.858  -0.156  0.00  0.00    +0.018 C 
ENDBRANCH  15  18
ENDBRANCH   1  15
BRANCH   6  19
ATOM     19  N   UNL     1      -0.319   0.903  -7.016  0.00  0.00    -0.297 N 
ATOM     20  H   UNL     1       0.118   1.101  -7.859  0.00  0.00    +0.154 HD
BRANCH  19  21
ATOM     21  C   UNL     1      -1.702   1.018  -6.905  0.00  0.00    +0.032 A 
ATOM     22  C   UNL     1      -2.267   1.491  -5.723  0.00  0.00    +0.024 A 
ATOM     23  C   UNL     1      -3.633   1.607  -5.611  0.00  0.00    +0.015 A 
ATOM     24  C   UNL     1      -4.454   1.250  -6.684  0.00  0.00    +0.037 A 
ATOM     25  C   UNL     1      -3.884   0.776  -7.869  0.00  0.00    +0.015 A 
ATOM     26  C   UNL     1      -2.516   0.667  -7.977  0.00  0.00    +0.024 A 
BRANCH  24  27
ATOM     27  C   UNL     1      -5.920   1.373  -6.567  0.00  0.00    +0.242 C 
ATOM     28  O   UNL     1      -6.415   1.785  -5.535  0.00  0.00    -0.270 OA
ATOM     29  N   UNL     1      -6.710   1.028  -7.602  0.00  0.00    -0.325 N 
ATOM     30  H   UNL     1      -6.316   0.699  -8.425  0.00  0.00    +0.145 HD
ATOM     31  H   UNL     1      -7.674   1.109  -7.525  0.00  0.00    +0.145 HD
ENDBRANCH  24  27
ENDBRANCH  19  21
ENDBRANCH   6  19
TORSDOF 6
