REMARK  Name = ZINC59463240
REMARK  3 active torsions:
REMARK  status: ('A' for Active; 'I' for Inactive)
REMARK    1  A    between atoms: C_5  and  O_27
REMARK    2  A    between atoms: C_6  and  C_7
REMARK    3  A    between atoms: N_8  and  N_9
REMARK                            x       y       z     vdW  Elec       q    Type
REMARK                         _______ _______ _______ _____ _____    ______ ____
ROOT
ATOM      1  N   UNL     1      -2.440  -2.776  -0.095  0.00  0.00    -0.127 N 
ATOM      2  C   UNL     1      -3.633  -2.178  -0.190  0.00  0.00    +0.246 C 
ATOM      3  O   UNL     1      -3.816  -0.980  -0.201  0.00  0.00    -0.273 OA
ATOM      4  C   UNL     1      -4.717  -3.228  -0.280  0.00  0.00    +0.097 C 
ATOM      5  C   UNL     1      -5.531  -3.200   1.058  0.00  0.00    +0.031 C 
ATOM      6  C   UNL     1      -6.541  -4.347   0.878  0.00  0.00    -0.026 C 
ATOM      7  C   UNL     1      -5.885  -5.492   0.941  0.00  0.00    -0.026 C 
ATOM      8  C   UNL     1      -4.394  -5.183   1.167  0.00  0.00    +0.031 C 
ATOM      9  C   UNL     1      -3.922  -4.568  -0.219  0.00  0.00    +0.097 C 
ATOM     10  C   UNL     1      -2.485  -4.113  -0.108  0.00  0.00    +0.246 C 
ATOM     11  O   UNL     1      -1.523  -4.846  -0.038  0.00  0.00    -0.273 OA
ATOM     12  C   UNL     1      -4.515  -3.869   2.013  0.00  0.00    -0.015 C 
ATOM     13  C   UNL     1      -3.398  -3.163   2.719  0.00  0.00    +0.009 C 
ATOM     14  C   UNL     1      -4.554  -3.798   3.508  0.00  0.00    +0.009 C 
ENDROOT
BRANCH   1  16
ATOM     15  C   UNL     1      -0.105  -2.689  -0.024  0.00  0.00    +0.142 C 
ATOM     16  N   UNL     1      -1.240  -2.060   0.003  0.00  0.00    -0.178 NA
BRANCH  15  22
ATOM     17  C   UNL     1       2.382  -2.603  -0.062  0.00  0.00    +0.028 A 
ATOM     18  C   UNL     1       3.561  -1.886  -0.071  0.00  0.00    +0.020 A 
ATOM     19  C   UNL     1       3.537  -0.501  -0.051  0.00  0.00    +0.034 A 
ATOM     20  C   UNL     1       2.332   0.176  -0.022  0.00  0.00    +0.061 A 
ATOM     21  C   UNL     1       1.138  -0.528  -0.013  0.00  0.00    +0.139 A 
ATOM     22  C   UNL     1       1.158  -1.930  -0.034  0.00  0.00    +0.038 A 
ATOM     23 BR   UNL     1       2.312   2.067   0.006  0.00  0.00    -0.046 Br
ATOM     24 BR   UNL     1       5.217  -2.798  -0.110  0.00  0.00    -0.050 Br
BRANCH  21  25
ATOM     25  O   UNL     1      -0.046   0.136   0.016  0.00  0.00    -0.505 OA
ATOM     26  H   UNL     1      -0.403   0.342  -0.859  0.00  0.00    +0.292 HD
ENDBRANCH  21  25
ENDBRANCH  15  22
ENDBRANCH   1  16
TORSDOF 3
