REMARK  Name = ZINC33512472
REMARK  7 active torsions:
REMARK  status: ('A' for Active; 'I' for Inactive)
REMARK    1  A    between atoms: C_1  and  C_2
REMARK    2  A    between atoms: C_4  and  C_21
REMARK    3  A    between atoms: C_5  and  N_9
REMARK    4  A    between atoms: C_6  and  C_8
REMARK    5  A    between atoms: C_10  and  C_12
REMARK    6  A    between atoms: C_12  and  N_13
REMARK    7  A    between atoms: C_15  and  N_20
REMARK                            x       y       z     vdW  Elec       q    Type
REMARK                         _______ _______ _______ _____ _____    ______ ____
ROOT
ATOM      1  N   UNL     1       5.206  -1.690  -1.709  0.00  0.00    -0.284 N 
ATOM      2  C   UNL     1       4.683  -0.494  -1.372  0.00  0.00    +0.237 C 
ATOM      3  O   UNL     1       4.588   0.383  -2.205  0.00  0.00    -0.274 OA
ATOM      4  H   UNL     1       5.348  -2.465  -0.942  0.00  0.00    +0.155 HD
ENDROOT
BRANCH   1   9
ATOM      5  C   UNL     1       6.680  -2.725  -7.089  0.00  0.00    +0.044 C 
ATOM      6  C   UNL     1       6.288  -2.450  -5.660  0.00  0.00    -0.050 A 
ATOM      7  C   UNL     1       7.197  -2.669  -4.641  0.00  0.00    +0.008 A 
ATOM      8  C   UNL     1       6.842  -2.418  -3.331  0.00  0.00    -0.029 A 
ATOM      9  C   UNL     1       5.570  -1.945  -3.036  0.00  0.00    +0.039 A 
ATOM     10  C   UNL     1       4.657  -1.732  -4.061  0.00  0.00    -0.029 A 
ATOM     11  C   UNL     1       5.021  -1.978  -5.370  0.00  0.00    +0.008 A 
ATOM     12  C   UNL     1       3.274  -1.224  -3.746  0.00  0.00    +0.045 C 
ATOM     13  C   UNL     1       7.833  -2.656  -2.221  0.00  0.00    +0.045 C 
ENDBRANCH   1   9
BRANCH   2  14
ATOM     14  C   UNL     1       4.216  -0.248   0.039  0.00  0.00    +0.220 C 
BRANCH  14  15
ATOM     15  N   UNL     1       3.692   1.116   0.149  0.00  0.00    -0.305 N 
ATOM     16  C   UNL     1       4.530   2.133   0.487  0.00  0.00    +0.112 A 
ATOM     17  C   UNL     1       4.066   3.405   0.595  0.00  0.00    +0.041 A 
ATOM     18  C   UNL     1       2.707   3.676   0.354  0.00  0.00    +0.029 A 
ATOM     19  C   UNL     1       1.873   2.652   0.015  0.00  0.00    +0.072 A 
ATOM     20  C   UNL     1       2.387   1.349  -0.087  0.00  0.00    +0.252 A 
ATOM     21  O   UNL     1       1.649   0.424  -0.390  0.00  0.00    -0.268 OA
BRANCH  17  22
ATOM     22  N   UNL     1       4.939   4.446   0.944  0.00  0.00    -0.357 N 
ATOM     23  H   UNL     1       4.561   5.476   1.031  0.00  0.00    +0.142 HD
ATOM     24  H   UNL     1       6.002   4.233   1.131  0.00  0.00    +0.142 HD
ENDBRANCH  17  22
ENDBRANCH  14  15
ENDBRANCH   2  14
TORSDOF 4
