REMARK  Name = ZINC10386959
REMARK  4 active torsions:
REMARK  status: ('A' for Active; 'I' for Inactive)
REMARK    1  A    between atoms: C_6  and  N_7
REMARK    2  A    between atoms: C_12  and  N_16
REMARK    3  A    between atoms: N_16  and  N_17
REMARK    4  A    between atoms: C_18  and  C_20
REMARK                            x       y       z     vdW  Elec       q    Type
REMARK                         _______ _______ _______ _____ _____    ______ ____
ROOT
ATOM      1  N   UNL     1       1.431   3.336   0.007  0.00  0.00    -0.214 N 
ATOM      2  C   UNL     1       1.120   2.006   0.002  0.00  0.00    +0.168 A 
ATOM      3  C   UNL     1       2.344   1.308  -0.013  0.00  0.00    +0.080 A 
ATOM      4  C   UNL     1       3.372   2.276  -0.018  0.00  0.00    +0.148 A 
ATOM      5  N   UNL     1       2.826   3.459  -0.006  0.00  0.00    -0.172 NA
ATOM      6  C   UNL     1       2.308  -0.100  -0.021  0.00  0.00    +0.149 A 
ATOM      7  N   UNL     1       1.124  -0.702  -0.013  0.00  0.00    -0.219 NA
ATOM      8  C   UNL     1       0.002  -0.004   0.002  0.00  0.00    +0.225 A 
ATOM      9  N   UNL     1      -0.016   1.311   0.009  0.00  0.00    -0.216 NA
ENDROOT
BRANCH   1  15
ATOM     10  C   UNL     1      -0.691   4.281  -0.660  0.00  0.00    +0.030 A 
ATOM     11  C   UNL     1      -1.597   5.323  -0.639  0.00  0.00    +0.040 A 
ATOM     12  C   UNL     1      -1.300   6.485   0.053  0.00  0.00    +0.124 A 
ATOM     13  C   UNL     1      -0.098   6.603   0.730  0.00  0.00    +0.040 A 
ATOM     14  C   UNL     1       0.808   5.561   0.716  0.00  0.00    +0.030 A 
ATOM     15  C   UNL     1       0.513   4.394   0.023  0.00  0.00    +0.068 A 
ATOM     16  F   UNL     1      -2.186   7.506   0.068  0.00  0.00    -0.205 F 
ENDBRANCH   1  15
BRANCH   6  17
ATOM     17  N   UNL     1       3.477  -0.836  -0.036  0.00  0.00    -0.247 N 
ATOM     18  H   UNL     1       4.335  -0.385  -0.042  0.00  0.00    +0.172 HD
BRANCH  17  19
ATOM     19  N   UNL     1       3.422  -2.236  -0.043  0.00  0.00    -0.231 N 
ATOM     20  C   UNL     1       4.562  -2.955  -0.058  0.00  0.00    +0.260 C 
ATOM     21  O   UNL     1       5.637  -2.389  -0.065  0.00  0.00    -0.269 OA
ATOM     22  H   UNL     1       2.563  -2.688  -0.037  0.00  0.00    +0.173 HD
BRANCH  20  23
ATOM     23  C   UNL     1       4.504  -4.432  -0.065  0.00  0.00    +0.040 A 
ATOM     24  C   UNL     1       3.270  -5.085  -0.051  0.00  0.00    +0.014 A 
ATOM     25  C   UNL     1       3.221  -6.463  -0.063  0.00  0.00    +0.022 A 
ATOM     26  C   UNL     1       4.394  -7.200  -0.078  0.00  0.00    +0.059 A 
ATOM     27  C   UNL     1       5.622  -6.558  -0.087  0.00  0.00    +0.060 A 
ATOM     28  C   UNL     1       5.683  -5.179  -0.081  0.00  0.00    +0.034 A 
ATOM     29 CL   UNL     1       7.087  -7.490  -0.106  0.00  0.00    -0.082 Cl
ATOM     30 CL   UNL     1       4.324  -8.935  -0.087  0.00  0.00    -0.082 Cl
ENDBRANCH  20  23
ENDBRANCH  17  19
ENDBRANCH   6  17
TORSDOF 4
