REMARK  Name = ZINC61563857
REMARK  2 active torsions:
REMARK  status: ('A' for Active; 'I' for Inactive)
REMARK    1  A    between atoms: C_9  and  C_11
REMARK    2  A    between atoms: C_16  and  N_17
REMARK                            x       y       z     vdW  Elec       q    Type
REMARK                         _______ _______ _______ _____ _____    ______ ____
ROOT
ATOM      1  C   UNL     1       6.161  -0.254  -0.084  0.00  0.00    +0.031 A 
ATOM      2  C   UNL     1       6.482  -1.610   0.006  0.00  0.00    +0.053 A 
ATOM      3  C   UNL     1       7.803  -2.006   0.016  0.00  0.00    +0.159 A 
ATOM      4  C   UNL     1       8.818  -1.059  -0.062  0.00  0.00    +0.160 A 
ATOM      5  C   UNL     1       8.511   0.286  -0.152  0.00  0.00    +0.064 A 
ATOM      6  C   UNL     1       7.186   0.698  -0.170  0.00  0.00    +0.037 A 
ATOM      7  F   UNL     1      10.109  -1.455  -0.052  0.00  0.00    -0.202 F 
ATOM      8  F   UNL     1       8.113  -3.318   0.103  0.00  0.00    -0.202 F 
ENDROOT
BRANCH   1  17
ATOM      9  C   UNL     1       0.093   1.741  -0.317  0.00  0.00    +0.021 A 
ATOM     10  C   UNL     1       0.803   0.859   0.477  0.00  0.00    +0.018 A 
ATOM     11  C   UNL     1       2.141   0.662   0.241  0.00  0.00    +0.040 A 
ATOM     12  C   UNL     1       2.841   1.328  -0.792  0.00  0.00    +0.080 A 
ATOM     13  C   UNL     1       2.083   2.223  -1.584  0.00  0.00    +0.049 A 
ATOM     14  C   UNL     1       0.747   2.413  -1.341  0.00  0.00    +0.043 A 
ATOM     15 CL   UNL     1      -0.147   3.520  -2.336  0.00  0.00    -0.083 Cl
ATOM     16  N   UNL     1       4.151   1.030  -0.897  0.00  0.00    -0.239 NA
ATOM     17  C   UNL     1       4.748   0.174  -0.095  0.00  0.00    +0.111 A 
ATOM     18  S   UNL     1       3.413  -0.337   0.977  0.00  0.00    -0.067 S 
ENDBRANCH   1  17
BRANCH   6  19
ATOM     19  N   UNL     1       6.876   2.053  -0.266  0.00  0.00    -0.357 N 
ATOM     20  H   UNL     1       5.956   2.347  -0.183  0.00  0.00    +0.142 HD
ATOM     21  H   UNL     1       7.581   2.703  -0.415  0.00  0.00    +0.142 HD
ENDBRANCH   6  19
TORSDOF 2
