REMARK  Name = ZINC39325398
REMARK  8 active torsions:
REMARK  status: ('A' for Active; 'I' for Inactive)
REMARK    1  A    between atoms: C_1  and  C_2
REMARK    2  A    between atoms: C_4  and  C_36
REMARK    3  A    between atoms: C_7  and  C_14
REMARK    4  A    between atoms: C_14  and  N_15
REMARK    5  A    between atoms: N_15  and  C_16
REMARK    6  A    between atoms: N_15  and  S_24
REMARK    7  A    between atoms: C_16  and  C_17
REMARK    8  A    between atoms: S_24  and  C_27
REMARK                            x       y       z     vdW  Elec       q    Type
REMARK                         _______ _______ _______ _____ _____    ______ ____
ROOT
ATOM      1  N   UNL     1       1.339  -6.499   2.603  0.00  0.00    -0.171 NA
ENDROOT
BRANCH   1   2
ATOM      2  S   UNL     1       2.077  -5.776   3.898  0.00  0.00    +0.063 S 
ATOM      3  O   UNL     1       1.439  -4.519   4.079  0.00  0.00    -0.153 OA
ATOM      4  O   UNL     1       2.140  -6.754   4.927  0.00  0.00    -0.153 OA
BRANCH   2   5
ATOM      5  C   UNL     1       3.740  -5.434   3.426  0.00  0.00    +0.134 A 
ATOM      6  C   UNL     1       4.147  -4.152   3.270  0.00  0.00    +0.031 A 
ATOM      7  C   UNL     1       5.456  -3.844   2.898  0.00  0.00    +0.004 A 
ATOM      8  C   UNL     1       6.375  -4.812   2.676  0.00  0.00    +0.031 A 
ATOM      9  C   UNL     1       6.019  -6.181   2.821  0.00  0.00    +0.102 A 
ATOM     10  C   UNL     1       4.652  -6.503   3.216  0.00  0.00    +0.126 A 
ATOM     11  N   UNL     1       4.433  -7.814   3.326  0.00  0.00    -0.189 NA
ATOM     12  S   UNL     1       5.834  -8.519   2.968  0.00  0.00    +0.117 S 
ATOM     13  N   UNL     1       6.782  -7.260   2.647  0.00  0.00    -0.191 NA
ENDBRANCH   2   5
ENDBRANCH   1   2
BRANCH   1  14
ATOM     14  C   UNL     1       1.298  -5.815   1.308  0.00  0.00    +0.126 C 
BRANCH  14  21
ATOM     15  C   UNL     1      -2.456   0.275  -0.933  0.00  0.00    +0.044 C 
ATOM     16  C   UNL     1      -1.849  -1.097  -0.787  0.00  0.00    -0.048 A 
ATOM     17  C   UNL     1      -1.322  -1.720  -1.919  0.00  0.00    +0.007 A 
ATOM     18  C   UNL     1      -0.762  -2.955  -1.850  0.00  0.00    -0.042 A 
ATOM     19  C   UNL     1      -0.714  -3.637  -0.557  0.00  0.00    -0.004 A 
ATOM     20  C   UNL     1      -0.161  -4.878  -0.440  0.00  0.00    -0.003 C 
ATOM     21  C   UNL     1      -0.154  -5.509   0.939  0.00  0.00    +0.114 C 
ATOM     22  C   UNL     1      -0.762  -4.712   2.071  0.00  0.00    +0.225 C 
ATOM     23  O   UNL     1      -0.783  -5.170   3.198  0.00  0.00    -0.275 OA
ATOM     24  N   UNL     1      -1.270  -3.514   1.832  0.00  0.00    -0.284 N 
ATOM     25  C   UNL     1      -1.277  -2.955   0.622  0.00  0.00    +0.041 A 
ATOM     26  C   UNL     1      -1.831  -1.674   0.442  0.00  0.00    +0.027 A 
ATOM     27  C   UNL     1      -0.199  -3.611  -3.085  0.00  0.00    +0.044 C 
ATOM     28  H   UNL     1      -1.654  -3.019   2.572  0.00  0.00    +0.155 HD
ENDBRANCH  14  21
ENDBRANCH   1  14
BRANCH   1  29
ATOM     29  C   UNL     1       0.728  -7.822   2.752  0.00  0.00    +0.144 C 
BRANCH  29  30
ATOM     30  C   UNL     1       1.712  -8.881   2.325  0.00  0.00    -0.031 A 
ATOM     31  C   UNL     1       1.750  -9.296   1.007  0.00  0.00    +0.008 A 
ATOM     32  C   UNL     1       2.652 -10.267   0.614  0.00  0.00    +0.038 A 
ATOM     33  C   UNL     1       3.517 -10.823   1.540  0.00  0.00    +0.123 A 
ATOM     34  C   UNL     1       3.478 -10.406   2.860  0.00  0.00    +0.038 A 
ATOM     35  C   UNL     1       2.579  -9.432   3.250  0.00  0.00    +0.008 A 
ATOM     36  F   UNL     1       4.399 -11.772   1.157  0.00  0.00    -0.205 F 
ENDBRANCH  29  30
ENDBRANCH   1  29
TORSDOF 6
