REMARK  Name = ZINC39479729
REMARK  6 active torsions:
REMARK  status: ('A' for Active; 'I' for Inactive)
REMARK    1  A    between atoms: C_1  and  N_2
REMARK    2  A    between atoms: C_6  and  O_16
REMARK    3  A    between atoms: C_8  and  C_9
REMARK    4  A    between atoms: C_14  and  O_15
REMARK    5  A    between atoms: C_18  and  O_27
REMARK    6  A    between atoms: O_27  and  C_28
REMARK                            x       y       z     vdW  Elec       q    Type
REMARK                         _______ _______ _______ _____ _____    ______ ____
ROOT
ATOM      1  C   UNL     1      -0.810   2.084   1.196  0.00  0.00    +0.137 C 
ATOM      2  N   UNL     1      -0.751   0.715   0.680  0.00  0.00    -0.286 N 
ATOM      3  C   UNL     1      -1.811  -0.076   1.054  0.00  0.00    +0.047 A 
ATOM      4  C   UNL     1      -2.405   0.217   2.265  0.00  0.00    -0.013 A 
ATOM      5  C   UNL     1      -3.684  -0.043   2.591  0.00  0.00    +0.051 A 
ATOM      6  C   UNL     1      -4.358  -0.950   1.755  0.00  0.00    +0.118 A 
ATOM      7  C   UNL     1      -3.693  -1.503   0.671  0.00  0.00    +0.056 A 
ATOM      8  C   UNL     1      -2.416  -1.079   0.295  0.00  0.00    +0.011 A 
ATOM      9  C   UNL     1      -1.296   0.352   3.359  0.00  0.00    +0.132 C 
ATOM     10  C   UNL     1      -0.088   0.051   2.478  0.00  0.00    +0.194 C 
ATOM     11  N   UNL     1       0.830   0.880   2.099  0.00  0.00    -0.211 NA
ATOM     12  C   UNL     1       1.430   0.560   0.918  0.00  0.00    +0.144 A 
ATOM     13  C   UNL     1       0.348   0.452  -0.092  0.00  0.00    +0.156 A 
ATOM     14  N   UNL     1       0.650   0.169  -1.300  0.00  0.00    -0.218 NA
ATOM     15  C   UNL     1       1.916  -0.030  -1.654  0.00  0.00    +0.225 A 
ATOM     16  N   UNL     1       2.911   0.051  -0.792  0.00  0.00    -0.222 NA
ATOM     17  C   UNL     1       2.700   0.341   0.507  0.00  0.00    +0.160 A 
ATOM     18 CL   UNL     1       4.022   0.441   1.627  0.00  0.00    -0.060 Cl
ENDROOT
BRANCH   8  19
ATOM     19  C   UNL     1      -1.726  -1.675  -0.874  0.00  0.00    +0.025 A 
ATOM     20  C   UNL     1      -1.657  -0.976  -2.077  0.00  0.00    +0.012 A 
ATOM     21  C   UNL     1      -1.013  -1.535  -3.163  0.00  0.00    +0.001 A 
ATOM     22  C   UNL     1      -0.435  -2.788  -3.060  0.00  0.00    +0.004 A 
ATOM     23  C   UNL     1      -0.498  -3.490  -1.871  0.00  0.00    +0.046 A 
ATOM     24  C   UNL     1      -1.136  -2.938  -0.772  0.00  0.00    +0.125 A 
BRANCH  24  25
ATOM     25  O   UNL     1      -1.192  -3.625   0.399  0.00  0.00    -0.506 OA
ATOM     26  H   UNL     1      -1.967  -4.198   0.482  0.00  0.00    +0.292 HD
ENDBRANCH  24  25
ENDBRANCH   8  19
BRANCH   6  27
ATOM     27  O   UNL     1      -5.652  -1.283   2.008  0.00  0.00    -0.507 OA
ATOM     28  H   UNL     1      -6.298  -0.710   1.572  0.00  0.00    +0.292 HD
ENDBRANCH   6  27
BRANCH  10  29
ATOM     29  O   UNL     1       0.038  -1.221   2.047  0.00  0.00    -0.482 OA
ATOM     30  C   UNL     1       1.336  -1.812   2.138  0.00  0.00    +0.278 C 
ENDBRANCH  10  29
TORSDOF 4
