REMARK  Name = ZINC47932404
REMARK  6 active torsions:
REMARK  status: ('A' for Active; 'I' for Inactive)
REMARK    1  A    between atoms: C_1  and  C_2
REMARK    2  A    between atoms: C_2  and  C_3
REMARK    3  A    between atoms: C_2  and  N_4
REMARK    4  A    between atoms: C_5  and  C_7
REMARK    5  A    between atoms: C_7  and  N_8
REMARK    6  A    between atoms: C_9  and  C_11
REMARK                            x       y       z     vdW  Elec       q    Type
REMARK                         _______ _______ _______ _____ _____    ______ ____
ROOT
ATOM      1  C   UNL     1      -5.749  -1.700  -4.128  0.00  0.00    +0.039 A 
ATOM      2  C   UNL     1      -4.928  -1.295  -5.192  0.00  0.00    +0.014 A 
ATOM      3  C   UNL     1      -5.382  -1.331  -6.475  0.00  0.00    +0.016 A 
ATOM      4  C   UNL     1      -6.684  -1.777  -6.744  0.00  0.00    +0.065 A 
ATOM      5  C   UNL     1      -7.525  -2.189  -5.677  0.00  0.00    +0.080 A 
ATOM      6  C   UNL     1      -7.038  -2.150  -4.363  0.00  0.00    +0.041 A 
ATOM      7  N   UNL     1      -8.767  -2.613  -5.951  0.00  0.00    -0.223 NA
ATOM      8  C   UNL     1      -9.210  -2.649  -7.198  0.00  0.00    +0.180 A 
ATOM      9  N   UNL     1      -8.454  -2.271  -8.242  0.00  0.00    -0.301 N 
ATOM     10  H   UNL     1      -8.821  -2.314  -9.139  0.00  0.00    +0.171 HD
ATOM     11  C   UNL     1      -7.191  -1.829  -8.059  0.00  0.00    +0.260 A 
ATOM     12  O   UNL     1      -6.435  -1.450  -9.105  0.00  0.00    -0.267 OA
ATOM     13  S   UNL     1     -10.805  -3.200  -7.491  0.00  0.00    -0.011 S 
ENDROOT
BRANCH   1  15
ATOM     14  N   UNL     1      -3.978  -1.213  -2.505  0.00  0.00    -0.303 N 
ATOM     15  C   UNL     1      -5.231  -1.650  -2.741  0.00  0.00    +0.245 C 
ATOM     16  O   UNL     1      -5.935  -2.004  -1.816  0.00  0.00    -0.270 OA
ATOM     17  H   UNL     1      -3.416  -0.931  -3.244  0.00  0.00    +0.150 HD
BRANCH  14  18
ATOM     18  C   UNL     1      -3.465  -1.164  -1.134  0.00  0.00    +0.200 C 
BRANCH  18  20
ATOM     19  N   UNL     1      -1.372  -0.511   0.012  0.00  0.00    -0.312 N 
ATOM     20  C   UNL     1      -2.051  -0.643  -1.145  0.00  0.00    +0.230 C 
ATOM     21  O   UNL     1      -1.524  -0.341  -2.194  0.00  0.00    -0.274 OA
ATOM     22  H   UNL     1      -1.794  -0.752   0.852  0.00  0.00    +0.149 HD
BRANCH  19  24
ATOM     23  C   UNL     1      -0.019   1.526   0.010  0.00  0.00    +0.027 C 
ATOM     24  C   UNL     1       0.002  -0.004   0.002  0.00  0.00    +0.067 C 
ATOM     25  C   UNL     1       0.742  -0.511   1.242  0.00  0.00    +0.027 C 
ENDBRANCH  19  24
ENDBRANCH  18  20
ENDBRANCH  14  18
ENDBRANCH   1  15
TORSDOF 4
