REMARK  Name = ZINC41588693
REMARK  4 active torsions:
REMARK  status: ('A' for Active; 'I' for Inactive)
REMARK    1  A    between atoms: C_1  and  C_2
REMARK    2  A    between atoms: C_10  and  C_11
REMARK    3  A    between atoms: C_14  and  C_17
REMARK    4  A    between atoms: N_26  and  C_29
REMARK                            x       y       z     vdW  Elec       q    Type
REMARK                         _______ _______ _______ _____ _____    ______ ____
ROOT
ATOM      1  C   UNL     1       0.077   1.496   0.006  0.00  0.00    +0.051 C 
ATOM      2  C   UNL     1       0.090  -0.010   0.000  0.00  0.00    +0.034 A 
ATOM      3  C   UNL     1       0.112  -0.697  -1.206  0.00  0.00    +0.133 A 
ATOM      4  C   UNL     1       0.126  -2.088  -1.224  0.00  0.00    +0.010 A 
ATOM      5  C   UNL     1       0.115  -2.789  -0.049  0.00  0.00    +0.024 A 
ATOM      6  C   UNL     1       0.093  -2.111   1.169  0.00  0.00    +0.068 A 
ATOM      7  C   UNL     1       0.087  -0.707   1.201  0.00  0.00    +0.146 A 
ATOM      8  O   UNL     1       0.074  -0.280   2.482  0.00  0.00    -0.451 OA
ATOM      9  C   UNL     1       0.074  -1.312   3.357  0.00  0.00    +0.176 C 
ATOM     10  C   UNL     1       0.061  -1.216   4.711  0.00  0.00    +0.058 C 
ATOM     11  C   UNL     1       0.077  -2.558   2.574  0.00  0.00    +0.231 C 
ATOM     12  O   UNL     1       0.080  -3.703   2.993  0.00  0.00    -0.283 OA
ATOM     13  C   UNL     1       0.157  -2.842  -2.529  0.00  0.00    +0.126 C 
ATOM     14  N   UNL     1      -0.248  -1.949  -3.623  0.00  0.00    -0.262 NA
ATOM     15  C   UNL     1       0.504  -0.686  -3.553  0.00  0.00    +0.319 C 
ATOM     16  O   UNL     1       0.117   0.011  -2.366  0.00  0.00    -0.476 OA
ENDROOT
BRANCH  14  17
ATOM     17  C   UNL     1      -0.066  -2.599  -4.928  0.00  0.00    +0.083 C 
ATOM     18  C   UNL     1       1.433  -2.825  -5.190  0.00  0.00    +0.043 C 
ATOM     19  C   UNL     1       1.657  -3.207  -6.673  0.00  0.00    +0.167 C 
ATOM     20  S   UNL     1       0.248  -2.382  -7.520  0.00  0.00    -0.029 S 
ATOM     21  O   UNL     1      -0.577  -3.374  -8.116  0.00  0.00    -0.174 OA
ATOM     22  O   UNL     1       0.747  -1.317  -8.317  0.00  0.00    -0.174 OA
ATOM     23  C   UNL     1      -0.620  -1.681  -6.055  0.00  0.00    +0.184 C 
ENDBRANCH  14  17
BRANCH  10  24
ATOM     24  C   UNL     1       0.162   0.099   5.355  0.00  0.00    -0.021 A 
ATOM     25  C   UNL     1       0.284   0.192   6.747  0.00  0.00    +0.008 A 
ATOM     26  C   UNL     1       0.378   1.417   7.343  0.00  0.00    +0.009 A 
ATOM     27  C   UNL     1       0.352   2.576   6.567  0.00  0.00    -0.018 A 
ATOM     28  C   UNL     1       0.230   2.487   5.179  0.00  0.00    +0.009 A 
ATOM     29  C   UNL     1       0.141   1.264   4.577  0.00  0.00    +0.008 A 
BRANCH  27  30
ATOM     30  C   UNL     1       0.454   3.905   7.216  0.00  0.00    -0.018 A 
ATOM     31  C   UNL     1       0.581   3.998   8.602  0.00  0.00    +0.008 A 
ATOM     32  C   UNL     1       0.675   5.238   9.201  0.00  0.00    +0.001 A 
ATOM     33  C   UNL     1       0.644   6.386   8.430  0.00  0.00    +0.000 A 
ATOM     34  C   UNL     1       0.518   6.299   7.055  0.00  0.00    +0.001 A 
ATOM     35  C   UNL     1       0.428   5.065   6.444  0.00  0.00    +0.008 A 
ENDBRANCH  27  30
ENDBRANCH  10  24
TORSDOF 3
