REMARK  Name = ZINC02127339
REMARK  7 active torsions:
REMARK  status: ('A' for Active; 'I' for Inactive)
REMARK    1  A    between atoms: C_1  and  C_2
REMARK    2  A    between atoms: C_7  and  C_8
REMARK    3  A    between atoms: C_17  and  C_19
REMARK    4  A    between atoms: C_19  and  C_20
REMARK    5  A    between atoms: C_20  and  C_21
REMARK    6  A    between atoms: N_25  and  C_28
REMARK    7  A    between atoms: C_28  and  C_29
REMARK                            x       y       z     vdW  Elec       q    Type
REMARK                         _______ _______ _______ _____ _____    ______ ____
ROOT
ATOM      1  C   UNL     1      -1.884   4.720   0.131  0.00  0.00    +0.044 C 
ATOM      2  C   UNL     1      -0.739   3.741   0.102  0.00  0.00    -0.046 A 
ATOM      3  C   UNL     1       0.563   4.206   0.073  0.00  0.00    +0.004 A 
ATOM      4  C   UNL     1       1.615   3.308   0.046  0.00  0.00    +0.005 A 
ATOM      5  C   UNL     1       1.365   1.954   0.048  0.00  0.00    -0.027 A 
ATOM      6  C   UNL     1       0.059   1.474   0.076  0.00  0.00    +0.039 A 
ATOM      7  C   UNL     1      -0.994   2.385   0.099  0.00  0.00    -0.026 A 
ATOM      8  C   UNL     1      -2.417   1.889   0.123  0.00  0.00    +0.046 C 
ATOM      9  N   UNL     1       0.058   0.077   0.071  0.00  0.00    -0.286 N 
ATOM     10  C   UNL     1       1.305  -0.432   0.039  0.00  0.00    +0.211 C 
ATOM     11  O   UNL     1       1.607  -1.606   0.026  0.00  0.00    -0.277 OA
ATOM     12  C   UNL     1       2.249   0.739   0.023  0.00  0.00    +0.050 C 
ATOM     13  C   UNL     1       3.145   0.721  -1.222  0.00  0.00    +0.088 C 
ATOM     14  C   UNL     1       4.511   1.274  -0.728  0.00  0.00    +0.073 C 
ATOM     15  C   UNL     1       4.296   1.581   0.770  0.00  0.00    -0.057 C 
ATOM     16  C   UNL     1       5.452   0.100  -0.869  0.00  0.00    +0.224 C 
ATOM     17  O   UNL     1       6.630   0.108  -0.583  0.00  0.00    -0.275 OA
ATOM     18  N   UNL     1       4.782  -0.950  -1.357  0.00  0.00    -0.237 N 
ATOM     19  C   UNL     1       3.485  -0.722  -1.591  0.00  0.00    +0.225 C 
ATOM     20  O   UNL     1       2.700  -1.533  -2.034  0.00  0.00    -0.275 OA
ATOM     21  H   UNL     1      -0.747  -0.463   0.089  0.00  0.00    +0.155 HD
ATOM     22  N   UNL     1       3.167   0.728   1.148  0.00  0.00    +0.394 N 
ATOM     23  H   UNL     1       3.491  -0.228   1.333  0.00  0.00    -0.083 HD
ATOM     24  H   UNL     1       2.706   1.101   1.986  0.00  0.00    -0.083 HD
ENDROOT
BRANCH  15  25
ATOM     25  C   UNL     1       5.553   1.230   1.570  0.00  0.00    -0.004 C 
BRANCH  25  26
ATOM     26  C   UNL     1       5.336   1.587   3.042  0.00  0.00    +0.123 C 
BRANCH  26  27
ATOM     27  C   UNL     1       6.573   1.242   3.830  0.00  0.00    +0.356 C 
ATOM     28  O   UNL     1       7.530   0.760   3.271  0.00  0.00    -0.246 OA
ATOM     29  O   UNL     1       6.612   1.469   5.152  0.00  0.00    -0.246 OA
ENDBRANCH  26  27
ENDBRANCH  25  26
ENDBRANCH  15  25
BRANCH  18  30
ATOM     30  C   UNL     1       5.418  -2.245  -1.615  0.00  0.00    +0.153 C 
BRANCH  30  31
ATOM     31  C   UNL     1       5.428  -3.061  -0.348  0.00  0.00    -0.011 A 
ATOM     32  C   UNL     1       4.776  -2.596   0.778  0.00  0.00    +0.006 A 
ATOM     33  C   UNL     1       4.781  -3.346   1.939  0.00  0.00    +0.000 A 
ATOM     34  C   UNL     1       5.447  -4.557   1.977  0.00  0.00    +0.001 A 
ATOM     35  C   UNL     1       6.104  -5.020   0.853  0.00  0.00    +0.020 A 
ATOM     36  C   UNL     1       6.095  -4.272  -0.311  0.00  0.00    +0.046 A 
ATOM     37 CL   UNL     1       6.919  -4.853  -1.723  0.00  0.00    -0.083 Cl
ENDBRANCH  30  31
ENDBRANCH  18  30
TORSDOF 5
