REMARK  Name = ZINC63375131
REMARK  13 active torsions:
REMARK  status: ('A' for Active; 'I' for Inactive)
REMARK    1  A    between atoms: C_1  and  C_2
REMARK    2  A    between atoms: C_2  and  C_3
REMARK    3  A    between atoms: C_2  and  C_4
REMARK    4  A    between atoms: C_4  and  C_5
REMARK    5  A    between atoms: C_5  and  N_6
REMARK    6  A    between atoms: C_12  and  C_28
REMARK    7  A    between atoms: C_24  and  C_27
REMARK    8  A    between atoms: C_31  and  O_36
REMARK    9  A    between atoms: C_32  and  O_34
REMARK   10  A    between atoms: O_34  and  C_35
REMARK   11  A    between atoms: O_36  and  C_37
REMARK   12  A    between atoms: C_37  and  C_38
REMARK   13  A    between atoms: C_37  and  C_39
REMARK                            x       y       z     vdW  Elec       q    Type
REMARK                         _______ _______ _______ _____ _____    ______ ____
ROOT
ATOM      1  N   UNL     1       0.850  -0.340   3.617  0.00  0.00    -0.291 N 
ATOM      2  C   UNL     1       0.343  -1.560   4.223  0.00  0.00    +0.203 C 
ATOM      3  C   UNL     1       1.088  -1.925   5.464  0.00  0.00    +0.234 C 
ATOM      4  O   UNL     1       0.743  -2.928   6.052  0.00  0.00    -0.274 OA
ATOM      5  N   UNL     1       2.109  -1.228   5.975  0.00  0.00    -0.283 N 
ATOM      6  C   UNL     1       2.714  -1.704   7.234  0.00  0.00    +0.121 C 
ATOM      7  C   UNL     1       4.209  -1.986   7.005  0.00  0.00    +0.065 C 
ATOM      8  C   UNL     1       4.764  -0.800   6.257  0.00  0.00    -0.027 C 
ATOM      9  C   UNL     1       5.810  -0.019   6.494  0.00  0.00    -0.000 A 
ATOM     10  C   UNL     1       6.878  -0.091   7.504  0.00  0.00    +0.010 A 
ATOM     11  C   UNL     1       7.798   0.909   7.476  0.00  0.00    +0.001 A 
ATOM     12  C   UNL     1       7.764   1.960   6.554  0.00  0.00    +0.002 A 
ATOM     13  C   UNL     1       6.824   2.100   5.585  0.00  0.00    +0.026 A 
ATOM     14  C   UNL     1       5.807   1.105   5.508  0.00  0.00    +0.043 A 
ATOM     15  N   UNL     1       4.814   0.979   4.678  0.00  0.00    -0.375 N 
ATOM     16  C   UNL     1       4.107  -0.263   4.990  0.00  0.00    +0.139 C 
ATOM     17  C   UNL     1       2.635  -0.020   5.336  0.00  0.00    +0.135 C 
ATOM     18  C   UNL     1       1.878   0.351   4.104  0.00  0.00    +0.242 C 
ATOM     19  O   UNL     1       2.220   1.352   3.510  0.00  0.00    -0.273 OA
ATOM     20  C   UNL     1       2.546   1.142   6.327  0.00  0.00    +0.044 C 
ATOM     21  H   UNL     1       4.582   1.603   3.972  0.00  0.00    +0.160 HD
ENDROOT
BRANCH   7  22
ATOM     22  C   UNL     1       4.914  -2.139   8.329  0.00  0.00    -0.035 A 
ATOM     23  C   UNL     1       4.908  -1.097   9.237  0.00  0.00    +0.008 A 
ATOM     24  C   UNL     1       5.553  -1.232  10.453  0.00  0.00    +0.050 A 
ATOM     25  C   UNL     1       6.206  -2.413  10.763  0.00  0.00    +0.162 A 
ATOM     26  C   UNL     1       6.212  -3.462   9.849  0.00  0.00    +0.162 A 
ATOM     27  C   UNL     1       5.559  -3.322   8.634  0.00  0.00    +0.053 A 
BRANCH  26  28
ATOM     28  O   UNL     1       6.851  -4.624  10.149  0.00  0.00    -0.491 OA
ATOM     29  C   UNL     1       6.815  -5.658   9.162  0.00  0.00    +0.277 C 
ENDBRANCH  26  28
BRANCH  25  30
ATOM     30  O   UNL     1       6.841  -2.547  11.958  0.00  0.00    -0.486 OA
BRANCH  30  31
ATOM     31  C   UNL     1       6.694  -1.478  12.894  0.00  0.00    +0.167 C 
ATOM     32  C   UNL     1       6.901  -2.011  14.313  0.00  0.00    +0.051 C 
ATOM     33  C   UNL     1       7.734  -0.395  12.600  0.00  0.00    +0.051 C 
ENDBRANCH  30  31
ENDBRANCH  25  30
ENDBRANCH   7  22
BRANCH   1  34
ATOM     34  C   UNL     1       0.198   0.151   2.401  0.00  0.00    +0.108 C 
BRANCH  34  35
ATOM     35  C   UNL     1       0.879  -0.460   1.175  0.00  0.00    +0.022 C 
BRANCH  35  37
ATOM     36  C   UNL     1       0.421   1.562  -0.220  0.00  0.00    +0.007 C 
ATOM     37  C   UNL     1       0.198   0.053  -0.096  0.00  0.00    -0.016 C 
ATOM     38  C   UNL     1       0.795  -0.652  -1.315  0.00  0.00    +0.007 C 
ENDBRANCH  35  37
ENDBRANCH  34  35
ENDBRANCH   1  34
TORSDOF 7
