REMARK  Name = ZINC38532149
REMARK  8 active torsions:
REMARK  status: ('A' for Active; 'I' for Inactive)
REMARK    1  A    between atoms: C_1  and  C_2
REMARK    2  A    between atoms: C_6  and  C_7
REMARK    3  A    between atoms: C_7  and  C_8
REMARK    4  A    between atoms: C_7  and  C_27
REMARK    5  A    between atoms: N_11  and  C_18
REMARK    6  A    between atoms: C_18  and  C_19
REMARK    7  A    between atoms: C_24  and  C_25
REMARK    8  A    between atoms: C_29  and  C_34
REMARK                            x       y       z     vdW  Elec       q    Type
REMARK                         _______ _______ _______ _____ _____    ______ ____
ROOT
ATOM      1  C   UNL     1      -0.228  -0.193  -2.975  0.00  0.00    +0.072 C 
ENDROOT
BRANCH   1   2
ATOM      2  C   UNL     1       1.089  -0.912  -3.275  0.00  0.00    +0.050 C 
ATOM      3  C   UNL     1       2.222  -0.339  -2.408  0.00  0.00    +0.114 C 
ATOM      4  N   UNL     1       3.197   0.201  -3.359  0.00  0.00    -0.325 N 
ATOM      5  C   UNL     1       2.752   0.003  -4.667  0.00  0.00    +0.034 A 
ATOM      6  C   UNL     1       1.524  -0.645  -4.698  0.00  0.00    -0.021 A 
ATOM      7  C   UNL     1       0.912  -0.936  -5.902  0.00  0.00    +0.006 A 
ATOM      8  C   UNL     1       1.520  -0.584  -7.093  0.00  0.00    +0.000 A 
ATOM      9  C   UNL     1       2.743   0.061  -7.077  0.00  0.00    +0.002 A 
ATOM     10  C   UNL     1       3.361   0.357  -5.873  0.00  0.00    +0.023 A 
BRANCH   4  11
ATOM     11  C   UNL     1       4.456   0.854  -2.991  0.00  0.00    +0.141 C 
BRANCH  11  12
ATOM     12  C   UNL     1       4.207   2.319  -2.739  0.00  0.00    -0.013 A 
ATOM     13  C   UNL     1       4.474   3.246  -3.725  0.00  0.00    +0.006 A 
ATOM     14  C   UNL     1       4.246   4.591  -3.495  0.00  0.00    +0.000 A 
ATOM     15  C   UNL     1       3.749   5.016  -2.275  0.00  0.00    +0.001 A 
ATOM     16  C   UNL     1       3.478   4.100  -1.280  0.00  0.00    +0.019 A 
ATOM     17  C   UNL     1       3.700   2.740  -1.508  0.00  0.00    +0.056 A 
BRANCH  17  18
ATOM     18  C   UNL     1       3.415   1.783  -0.482  0.00  0.00    +0.099 C 
ATOM     19  N   UNL     1       3.189   1.024   0.333  0.00  0.00    -0.191 NA
ENDBRANCH  17  18
ENDBRANCH  11  12
ENDBRANCH   4  11
ENDBRANCH   1   2
BRANCH   1  20
ATOM     20  C   UNL     1      -1.314  -0.743  -3.864  0.00  0.00    +0.047 A 
ATOM     21  H   UNL     1      -3.057  -2.995  -5.260  0.00  0.00    +0.190 HD
ATOM     22  C   UNL     1      -2.179  -0.015  -4.599  0.00  0.00    +0.038 A 
ATOM     23  N   UNL     1      -3.006  -0.873  -5.266  0.00  0.00    -0.301 N 
ATOM     24  N   UNL     1      -2.640  -2.183  -4.932  0.00  0.00    -0.266 N 
ATOM     25  C   UNL     1      -1.600  -2.112  -4.077  0.00  0.00    +0.268 A 
ATOM     26  O   UNL     1      -1.014  -3.055  -3.576  0.00  0.00    -0.266 OA
ATOM     27  C   UNL     1      -2.225   1.489  -4.671  0.00  0.00    +0.065 C 
ATOM     28  H   UNL     1      -3.724  -0.619  -5.868  0.00  0.00    +0.186 HD
ENDBRANCH   1  20
BRANCH   1  34
ATOM     29  C   UNL     1      -1.013   2.062  -0.892  0.00  0.00    +0.068 C 
ATOM     30  C   UNL     1      -0.949   0.583  -0.611  0.00  0.00    +0.067 A 
ATOM     31  N   UNL     1      -1.212   0.008   0.534  0.00  0.00    -0.176 NA
ATOM     32  N   UNL     1      -1.038  -1.374   0.385  0.00  0.00    -0.243 N 
ATOM     33  C   UNL     1      -0.659  -1.610  -0.891  0.00  0.00    +0.270 A 
ATOM     34  C   UNL     1      -0.602  -0.412  -1.531  0.00  0.00    +0.049 A 
ATOM     35  O   UNL     1      -0.390  -2.823  -1.436  0.00  0.00    -0.266 OA
ATOM     36  H   UNL     1      -1.165  -2.043   1.075  0.00  0.00    +0.192 HD
ENDBRANCH   1  34
TORSDOF 6
