REMARK  Name = ZINC23966981
REMARK  6 active torsions:
REMARK  status: ('A' for Active; 'I' for Inactive)
REMARK    1  A    between atoms: C_6  and  C_7
REMARK    2  A    between atoms: C_9  and  S_12
REMARK    3  A    between atoms: S_12  and  C_13
REMARK    4  A    between atoms: C_13  and  C_14
REMARK    5  A    between atoms: N_16  and  C_17
REMARK    6  A    between atoms: N_20  and  C_23
REMARK                            x       y       z     vdW  Elec       q    Type
REMARK                         _______ _______ _______ _____ _____    ______ ____
ROOT
ATOM      1  C   UNL     1       4.031  -1.293  -0.044  0.00  0.00    +0.173 C 
ENDROOT
BRANCH   1   2
ATOM      2  C   UNL     1       5.503  -1.616  -0.060  0.00  0.00    +0.224 C 
ATOM      3  O   UNL     1       6.321  -0.720  -0.063  0.00  0.00    -0.275 OA
ATOM      4  N   UNL     1       5.912  -2.900  -0.070  0.00  0.00    -0.312 N 
ATOM      5  H   UNL     1       5.171  -3.713  -0.067  0.00  0.00    +0.149 HD
BRANCH   4   6
ATOM      6  C   UNL     1       7.343  -3.214  -0.086  0.00  0.00    +0.069 C 
ATOM      7  C   UNL     1       7.854  -3.200  -1.530  0.00  0.00    +0.003 C 
ATOM      8  C   UNL     1       9.334  -3.588  -1.545  0.00  0.00    -0.077 C 
ATOM      9  N   UNL     1       9.498  -4.926  -0.961  0.00  0.00    +0.382 N 
ATOM     10  C   UNL     1       9.057  -4.951   0.440  0.00  0.00    -0.077 C 
ATOM     11  C   UNL     1       7.569  -4.604   0.514  0.00  0.00    +0.003 C 
ATOM     12  H   UNL     1       8.857  -5.619  -1.526  0.00  0.00    -0.081 HD
BRANCH   9  13
ATOM     13  C   UNL     1      10.886  -5.388  -1.085  0.00  0.00    -0.069 C 
ATOM     14  C   UNL     1      11.922  -4.384  -1.595  0.00  0.00    -0.017 C 
ATOM     15  C   UNL     1      11.460  -5.531  -2.496  0.00  0.00    -0.017 C 
ENDBRANCH   9  13
ENDBRANCH   4   6
ENDBRANCH   1   2
BRANCH   1  16
ATOM     16  S   UNL     1       3.807   0.503  -0.032  0.00  0.00    -0.077 S 
BRANCH  16  19
ATOM     17  C   UNL     1      -0.016   1.308   0.009  0.00  0.00    +0.162 A 
ATOM     18  N   UNL     1       1.294   1.730  -0.001  0.00  0.00    -0.316 N 
ATOM     19  C   UNL     1       2.048   0.591  -0.014  0.00  0.00    +0.190 A 
ATOM     20  N   UNL     1       1.216  -0.426  -0.011  0.00  0.00    -0.122 NA
ATOM     21  N   UNL     1       0.002  -0.004   0.003  0.00  0.00    -0.129 NA
ATOM     22  H   UNL     1       1.785   2.715  -0.000  0.00  0.00    +0.169 HD
BRANCH  17  28
ATOM     23  C   UNL     1      -1.081   3.560   0.036  0.00  0.00    +0.013 A 
ATOM     24  C   UNL     1      -2.205   4.360   0.046  0.00  0.00    +0.021 A 
ATOM     25  C   UNL     1      -3.466   3.786   0.055  0.00  0.00    +0.041 A 
ATOM     26  C   UNL     1      -3.606   2.409   0.048  0.00  0.00    +0.021 A 
ATOM     27  C   UNL     1      -2.490   1.599   0.033  0.00  0.00    +0.013 A 
ATOM     28  C   UNL     1      -1.216   2.171   0.025  0.00  0.00    +0.019 A 
ATOM     29 CL   UNL     1      -4.876   4.799   0.074  0.00  0.00    -0.084 Cl
ENDBRANCH  17  28
ENDBRANCH  16  19
ENDBRANCH   1  16
TORSDOF 6
