REMARK  Name = ZINC64930771
REMARK  6 active torsions:
REMARK  status: ('A' for Active; 'I' for Inactive)
REMARK    1  A    between atoms: C_1  and  C_2
REMARK    2  A    between atoms: C_5  and  N_9
REMARK    3  A    between atoms: C_6  and  C_8
REMARK    4  A    between atoms: C_16  and  C_18
REMARK    5  A    between atoms: C_21  and  C_23
REMARK    6  A    between atoms: N_25  and  C_26
REMARK                            x       y       z     vdW  Elec       q    Type
REMARK                         _______ _______ _______ _____ _____    ______ ____
ROOT
ATOM      1  C   UNL     1      -1.502  -6.726  -3.136  0.00  0.00    +0.123 A 
ATOM      2  N   UNL     1      -2.717  -6.532  -2.662  0.00  0.00    -0.144 NA
ATOM      3  N   UNL     1      -3.694  -6.255  -3.414  0.00  0.00    -0.136 NA
ATOM      4  C   UNL     1      -3.484  -6.156  -4.724  0.00  0.00    +0.187 A 
ATOM      5  S   UNL     1      -1.731  -6.495  -4.790  0.00  0.00    -0.044 S 
ENDROOT
BRANCH   1  13
ATOM      6  N   UNL     1       0.017  -4.255   0.043  0.00  0.00    -0.269 N 
ATOM      7  C   UNL     1      -0.069  -4.894  -1.140  0.00  0.00    +0.307 C 
ATOM      8  O   UNL     1      -0.084  -4.257  -2.176  0.00  0.00    -0.252 OA
ATOM      9  N   UNL     1      -0.139  -6.240  -1.176  0.00  0.00    -0.276 N 
ATOM     10  C   UNL     1      -0.137  -7.131  -0.002  0.00  0.00    +0.110 C 
ATOM     11  C   UNL     1       0.385  -8.489  -0.535  0.00  0.00    +0.021 C 
ATOM     12  C   UNL     1      -0.261  -8.538  -1.945  0.00  0.00    +0.031 C 
ATOM     13  C   UNL     1      -0.236  -7.061  -2.391  0.00  0.00    +0.135 C 
ATOM     14  H   UNL     1       0.097  -4.764   0.865  0.00  0.00    +0.156 HD
BRANCH   6  19
ATOM     15  C   UNL     1      -0.087   1.415   0.217  0.00  0.00    +0.044 C 
ATOM     16  C   UNL     1      -0.059  -0.091   0.171  0.00  0.00    -0.050 A 
ATOM     17  C   UNL     1       0.552  -0.738  -0.888  0.00  0.00    +0.005 A 
ATOM     18  C   UNL     1       0.579  -2.118  -0.933  0.00  0.00    +0.024 A 
ATOM     19  C   UNL     1      -0.008  -2.856   0.086  0.00  0.00    +0.038 A 
ATOM     20  C   UNL     1      -0.621  -2.204   1.148  0.00  0.00    -0.029 A 
ATOM     21  C   UNL     1      -0.640  -0.823   1.190  0.00  0.00    +0.008 A 
ATOM     22  C   UNL     1      -1.260  -3.001   2.255  0.00  0.00    +0.045 C 
ENDBRANCH   6  19
ENDBRANCH   1  13
BRANCH   4  23
ATOM     23  C   UNL     1      -4.429  -5.849  -5.812  0.00  0.00    +0.275 C 
ATOM     24  O   UNL     1      -4.038  -5.805  -6.963  0.00  0.00    -0.268 OA
ATOM     25  N   UNL     1      -5.727  -5.619  -5.532  0.00  0.00    -0.280 N 
ATOM     26  H   UNL     1      -6.023  -5.570  -4.609  0.00  0.00    +0.155 HD
BRANCH  25  27
ATOM     27  C   UNL     1      -6.648  -5.448  -6.572  0.00  0.00    +0.037 A 
ATOM     28  C   UNL     1      -7.800  -4.702  -6.364  0.00  0.00    +0.027 A 
ATOM     29  C   UNL     1      -8.710  -4.533  -7.391  0.00  0.00    +0.051 A 
ATOM     30  C   UNL     1      -8.476  -5.108  -8.629  0.00  0.00    +0.166 A 
ATOM     31  C   UNL     1      -7.321  -5.857  -8.841  0.00  0.00    +0.168 A 
ATOM     32  C   UNL     1      -6.407  -6.021  -7.814  0.00  0.00    +0.072 A 
ATOM     33  O   UNL     1      -7.324  -6.311 -10.129  0.00  0.00    -0.453 OA
ATOM     34  C   UNL     1      -8.685  -6.175 -10.580  0.00  0.00    +0.466 C 
ATOM     35  O   UNL     1      -9.203  -5.092  -9.786  0.00  0.00    -0.453 OA
ENDBRANCH  25  27
ENDBRANCH   4  23
TORSDOF 4
