REMARK  Name = ZINC04831648
REMARK  15 active torsions:
REMARK  status: ('A' for Active; 'I' for Inactive)
REMARK    1  A    between atoms: C_1  and  C_2
REMARK    2  A    between atoms: C_2  and  C_3
REMARK    3  A    between atoms: C_3  and  C_4
REMARK    4  A    between atoms: C_4  and  C_5
REMARK    5  A    between atoms: C_5  and  C_6
REMARK    6  A    between atoms: C_6  and  O_7
REMARK    7  A    between atoms: O_7  and  C_8
REMARK    8  A    between atoms: C_11  and  N_21
REMARK    9  A    between atoms: C_13  and  O_14
REMARK   10  A    between atoms: O_14  and  C_15
REMARK   11  A    between atoms: C_15  and  C_16
REMARK   12  A    between atoms: C_16  and  C_17
REMARK   13  A    between atoms: C_17  and  C_18
REMARK   14  A    between atoms: C_18  and  C_19
REMARK   15  A    between atoms: C_19  and  C_20
REMARK                            x       y       z     vdW  Elec       q    Type
REMARK                         _______ _______ _______ _____ _____    ______ ____
ROOT
ATOM      1  C   UNL     1       0.002  -0.004   0.002  0.00  0.00    +0.162 A 
ATOM      2  C   UNL     1       1.210  -0.682  -0.013  0.00  0.00    +0.051 A 
ATOM      3  C   UNL     1       1.227  -2.064  -0.021  0.00  0.00    +0.036 A 
ATOM      4  C   UNL     1       0.041  -2.773  -0.013  0.00  0.00    +0.130 A 
ATOM      5  C   UNL     1      -1.168  -2.103   0.002  0.00  0.00    +0.082 A 
ATOM      6  C   UNL     1      -1.192  -0.718   0.015  0.00  0.00    +0.164 A 
ENDROOT
BRANCH   4   7
ATOM      7  N   UNL     1       0.064  -4.253  -0.020  0.00  0.00    +0.057 N 
ATOM      8  O   UNL     1       1.129  -4.845  -0.033  0.00  0.00    -0.126 OA
ATOM      9  O   UNL     1      -0.980  -4.879  -0.013  0.00  0.00    -0.126 OA
ENDBRANCH   4   7
BRANCH   1  10
ATOM     10  O   UNL     1      -0.016   1.356   0.009  0.00  0.00    -0.488 OA
BRANCH  10  11
ATOM     11  C   UNL     1       1.248   2.022   0.001  0.00  0.00    +0.229 C 
BRANCH  11  12
ATOM     12  C   UNL     1       1.027   3.536   0.011  0.00  0.00    +0.041 C 
BRANCH  12  13
ATOM     13  C   UNL     1       2.381   4.249   0.002  0.00  0.00    +0.003 C 
BRANCH  13  14
ATOM     14  C   UNL     1       2.159   5.763   0.012  0.00  0.00    -0.000 C 
BRANCH  14  16
ATOM     15  C   UNL     1       3.292   7.990   0.013  0.00  0.00    +0.004 C 
ATOM     16  C   UNL     1       3.513   6.476   0.003  0.00  0.00    -0.003 C 
ENDBRANCH  14  16
ENDBRANCH  13  14
ENDBRANCH  12  13
ENDBRANCH  11  12
ENDBRANCH  10  11
ENDBRANCH   1  10
BRANCH   6  17
ATOM     17  O   UNL     1      -2.381  -0.057   0.036  0.00  0.00    -0.488 OA
BRANCH  17  18
ATOM     18  C   UNL     1      -3.567  -0.855   0.049  0.00  0.00    +0.229 C 
BRANCH  18  19
ATOM     19  C   UNL     1      -4.795   0.058   0.071  0.00  0.00    +0.041 C 
BRANCH  19  20
ATOM     20  C   UNL     1      -6.064  -0.796   0.085  0.00  0.00    +0.003 C 
BRANCH  20  21
ATOM     21  C   UNL     1      -7.292   0.116   0.107  0.00  0.00    -0.000 C 
BRANCH  21  22
ATOM     22  C   UNL     1      -8.562  -0.738   0.121  0.00  0.00    -0.003 C 
ATOM     23  C   UNL     1      -9.790   0.174   0.143  0.00  0.00    +0.004 C 
ENDBRANCH  21  22
ENDBRANCH  20  21
ENDBRANCH  19  20
ENDBRANCH  18  19
ENDBRANCH  17  18
ENDBRANCH   6  17
TORSDOF 13
