REMARK  Name = ZINC06087275
REMARK  3 active torsions:
REMARK  status: ('A' for Active; 'I' for Inactive)
REMARK    1  A    between atoms: N_9  and  C_12
REMARK    2  A    between atoms: C_12  and  C_13
REMARK    3  A    between atoms: N_18  and  C_19
REMARK                            x       y       z     vdW  Elec       q    Type
REMARK                         _______ _______ _______ _____ _____    ______ ____
ROOT
ATOM      1  C   UNL     1      -2.450   0.911   0.019  0.00  0.00    +0.222 C 
ENDROOT
BRANCH   1  10
ATOM      2  C   UNL     1       0.013   5.194   0.030  0.00  0.00    +0.035 A 
ATOM      3  C   UNL     1       1.230   5.843   0.023  0.00  0.00    +0.043 A 
ATOM      4  C   UNL     1       2.416   5.120   0.007  0.00  0.00    +0.042 A 
ATOM      5  C   UNL     1       2.402   3.742  -0.000  0.00  0.00    +0.068 A 
ATOM      6  C   UNL     1       1.181   3.063   0.007  0.00  0.00    +0.096 A 
ATOM      7  C   UNL     1      -0.022   3.801   0.023  0.00  0.00    +0.068 A 
ATOM      8  C   UNL     1      -1.290   3.056   0.031  0.00  0.00    +0.262 A 
ATOM      9  O   UNL     1      -2.362   3.631   0.044  0.00  0.00    -0.267 OA
ATOM     10  N   UNL     1      -1.218   1.704   0.017  0.00  0.00    -0.290 N 
ATOM     11  C   UNL     1      -0.013   1.076   0.008  0.00  0.00    +0.203 A 
ATOM     12  N   UNL     1       1.122   1.707   0.001  0.00  0.00    -0.235 NA
ATOM     13 CL   UNL     1       3.894   2.855  -0.019  0.00  0.00    -0.081 Cl
ATOM     14 CL   UNL     1       1.280   7.578   0.032  0.00  0.00    -0.083 Cl
ENDBRANCH   1  10
BRANCH   1  15
ATOM     15  C   UNL     1      -2.865   0.632   1.440  0.00  0.00    +0.240 C 
ATOM     16  O   UNL     1      -2.198   1.053   2.361  0.00  0.00    -0.273 OA
ATOM     17  N   UNL     1      -3.978  -0.086   1.688  0.00  0.00    -0.239 N 
ATOM     18  C   UNL     1      -4.350  -0.337   2.959  0.00  0.00    +0.306 C 
ATOM     19  O   UNL     1      -3.681   0.086   3.882  0.00  0.00    -0.252 OA
ATOM     20  N   UNL     1      -5.463  -1.055   3.207  0.00  0.00    -0.296 N 
ATOM     21  H   UNL     1      -4.512  -0.424   0.952  0.00  0.00    +0.159 HD
ATOM     22  H   UNL     1      -5.996  -1.392   2.471  0.00  0.00    +0.151 HD
BRANCH  20  23
ATOM     23  C   UNL     1      -5.867  -1.327   4.589  0.00  0.00    +0.074 C 
ATOM     24  C   UNL     1      -5.130  -2.566   5.101  0.00  0.00    +0.022 C 
ATOM     25  C   UNL     1      -5.552  -2.849   6.545  0.00  0.00    +0.002 C 
ATOM     26  C   UNL     1      -7.061  -3.096   6.596  0.00  0.00    +0.000 C 
ATOM     27  C   UNL     1      -7.798  -1.857   6.083  0.00  0.00    +0.002 C 
ATOM     28  C   UNL     1      -7.376  -1.573   4.640  0.00  0.00    +0.022 C 
ENDBRANCH  20  23
ENDBRANCH   1  15
TORSDOF 3
