REMARK  Name = ZINC01865689
REMARK  4 active torsions:
REMARK  status: ('A' for Active; 'I' for Inactive)
REMARK    1  A    between atoms: C_1  and  C_2
REMARK    2  A    between atoms: C_2  and  C_4
REMARK    3  A    between atoms: C_6  and  C_32
REMARK    4  A    between atoms: C_35  and  N_38
REMARK                            x       y       z     vdW  Elec       q    Type
REMARK                         _______ _______ _______ _____ _____    ______ ____
ROOT
ATOM      1  C   UNL     1      -2.125   3.987   0.719  0.00  0.00    +0.168 C 
ATOM      2  C   UNL     1      -1.254   5.132   1.285  0.00  0.00    +0.078 C 
ATOM      3  C   UNL     1      -0.145   5.275   0.214  0.00  0.00    +0.196 C 
ATOM      4  C   UNL     1      -0.062   3.905  -0.455  0.00  0.00    +0.152 C 
ATOM      5  N   UNL     1      -1.142   3.078   0.118  0.00  0.00    -0.236 N 
ATOM      6  N   UNL     1      -1.182   1.681   0.082  0.00  0.00    -0.191 NA
ATOM      7  C   UNL     1      -0.043   1.052   0.057  0.00  0.00    +0.138 C 
ATOM      8  C   UNL     1       1.224   1.804  -0.017  0.00  0.00    -0.000 A 
ATOM      9  C   UNL     1       1.239   3.181  -0.276  0.00  0.00    -0.015 A 
ATOM     10  C   UNL     1       2.449   3.832  -0.382  0.00  0.00    +0.006 A 
ATOM     11  C   UNL     1       3.638   3.150  -0.185  0.00  0.00    +0.000 A 
ATOM     12  C   UNL     1       3.626   1.798   0.102  0.00  0.00    +0.001 A 
ATOM     13  C   UNL     1       2.428   1.122   0.180  0.00  0.00    +0.010 A 
ATOM     14  C   UNL     1       1.126   5.670   0.904  0.00  0.00    +0.330 C 
ATOM     15  O   UNL     1       1.541   4.971   1.825  0.00  0.00    -0.249 OA
ATOM     16  O   UNL     1       1.811   6.761   0.569  0.00  0.00    -0.421 OA
ATOM     17  C   UNL     1       1.388   7.706  -0.425  0.00  0.00    +0.259 C 
ATOM     18  C   UNL     1       1.399   9.117   0.194  0.00  0.00    +0.093 C 
ATOM     19  C   UNL     1       0.926  10.123  -0.855  0.00  0.00    +0.008 C 
ATOM     20  C   UNL     1       1.879  10.105  -2.051  0.00  0.00    +0.000 C 
ATOM     21  C   UNL     1       1.930   8.699  -2.651  0.00  0.00    +0.008 C 
ATOM     22  C   UNL     1       2.398   7.705  -1.586  0.00  0.00    +0.093 C 
ATOM     23  O   UNL     1       0.077   7.452  -0.955  0.00  0.00    -0.421 OA
ATOM     24  C   UNL     1      -0.570   6.302  -0.801  0.00  0.00    +0.330 C 
ATOM     25  O   UNL     1      -1.532   6.057  -1.523  0.00  0.00    -0.249 OA
ENDROOT
BRANCH   2  26
ATOM     26  C   UNL     1      -2.044   6.407   1.428  0.00  0.00    -0.040 A 
ATOM     27  C   UNL     1      -3.071   6.686   0.546  0.00  0.00    +0.006 A 
ATOM     28  C   UNL     1      -3.799   7.854   0.679  0.00  0.00    +0.033 A 
ATOM     29  C   UNL     1      -3.494   8.747   1.689  0.00  0.00    +0.126 A 
ATOM     30  C   UNL     1      -2.464   8.470   2.568  0.00  0.00    +0.033 A 
ATOM     31  C   UNL     1      -1.739   7.301   2.438  0.00  0.00    +0.006 A 
BRANCH  29  32
ATOM     32  N   UNL     1      -4.270  10.000   1.829  0.00  0.00    +0.056 N 
ATOM     33  O   UNL     1      -4.000  10.787   2.718  0.00  0.00    -0.126 OA
ATOM     34  O   UNL     1      -5.177  10.243   1.054  0.00  0.00    -0.126 OA
ENDBRANCH  29  32
ENDBRANCH   2  26
BRANCH   1  36
ATOM     35  C   UNL     1      -4.130   3.902   2.386  0.00  0.00    +0.088 C 
ATOM     36  C   UNL     1      -2.871   3.292   1.826  0.00  0.00    +0.153 C 
ATOM     37  O   UNL     1      -2.460   2.245   2.266  0.00  0.00    -0.296 OA
ENDBRANCH   1  36
TORSDOF 3
