REMARK  Name = ZINC31124267
REMARK  8 active torsions:
REMARK  status: ('A' for Active; 'I' for Inactive)
REMARK    1  A    between atoms: C_1  and  C_2
REMARK    2  A    between atoms: C_2  and  C_4
REMARK    3  A    between atoms: C_2  and  N_22
REMARK    4  A    between atoms: C_4  and  N_5
REMARK    5  A    between atoms: N_8  and  C_9
REMARK    6  A    between atoms: C_9  and  C_10
REMARK    7  A    between atoms: C_15  and  O_16
REMARK    8  A    between atoms: O_16  and  C_17
REMARK                            x       y       z     vdW  Elec       q    Type
REMARK                         _______ _______ _______ _____ _____    ______ ____
ROOT
ATOM      1  N   UNL     1      -3.195   5.873   2.355  0.00  0.00    -0.301 N 
ATOM      2  C   UNL     1      -2.625   4.872   3.056  0.00  0.00    +0.300 C 
ATOM      3  O   UNL     1      -1.985   5.121   4.059  0.00  0.00    -0.253 OA
ATOM      4  N   UNL     1      -2.765   3.597   2.644  0.00  0.00    -0.295 N 
ATOM      5  H   UNL     1      -3.774   5.648   1.448  0.00  0.00    +0.150 HD
ATOM      6  H   UNL     1      -3.344   3.372   1.736  0.00  0.00    +0.151 HD
ENDROOT
BRANCH   1   7
ATOM      7  C   UNL     1      -3.044   7.259   2.803  0.00  0.00    +0.090 C 
BRANCH   7   9
ATOM      8  C   UNL     1      -3.729   9.623   2.373  0.00  0.00    -0.012 C 
ATOM      9  C   UNL     1      -3.782   8.190   1.839  0.00  0.00    -0.054 C 
BRANCH   9  10
ATOM     10  N   UNL     1      -5.182   7.763   1.721  0.00  0.00    +0.385 N 
ATOM     11  C   UNL     1      -5.924   8.636   0.801  0.00  0.00    -0.073 C 
ATOM     12  C   UNL     1      -7.228   7.931   0.392  0.00  0.00    +0.024 C 
ATOM     13  C   UNL     1      -7.862   7.391   1.632  0.00  0.00    -0.011 A 
ATOM     14  C   UNL     1      -7.274   7.259   2.854  0.00  0.00    -0.054 A 
ATOM     15  C   UNL     1      -8.066   6.730   3.871  0.00  0.00    +0.009 A 
ATOM     16  C   UNL     1      -9.348   6.376   3.617  0.00  0.00    +0.045 A 
ATOM     17  S   UNL     1      -9.506   6.784   1.884  0.00  0.00    -0.101 S 
ATOM     18  C   UNL     1      -5.821   7.683   3.041  0.00  0.00    -0.042 C 
ATOM     19  H   UNL     1      -5.199   6.750   1.292  0.00  0.00    -0.081 HD
ENDBRANCH   9  10
ENDBRANCH   7   9
ENDBRANCH   1   7
BRANCH   4  20
ATOM     20  C   UNL     1      -2.145   2.509   3.405  0.00  0.00    +0.146 C 
BRANCH  20  21
ATOM     21  C   UNL     1      -2.449   1.192   2.739  0.00  0.00    +0.031 A 
ATOM     22  C   UNL     1      -3.462   0.380   3.219  0.00  0.00    +0.012 A 
ATOM     23  C   UNL     1      -3.704  -0.826   2.578  0.00  0.00    +0.020 A 
ATOM     24  C   UNL     1      -2.937  -1.175   1.484  0.00  0.00    +0.114 A 
ATOM     25  N   UNL     1      -1.982  -0.378   1.045  0.00  0.00    -0.221 NA
ATOM     26  C   UNL     1      -1.721   0.780   1.630  0.00  0.00    +0.220 A 
BRANCH  26  27
ATOM     27  O   UNL     1      -0.729   1.569   1.146  0.00  0.00    -0.473 OA
BRANCH  27  28
ATOM     28  C   UNL     1      -0.013   1.086   0.008  0.00  0.00    +0.175 C 
ATOM     29  C   UNL     1      -0.641   1.627  -1.301  0.00  0.00    +0.044 C 
ATOM     30  C   UNL     1       0.535   1.540  -2.305  0.00  0.00    +0.004 C 
ATOM     31  C   UNL     1       1.773   1.934  -1.473  0.00  0.00    +0.004 C 
ATOM     32  C   UNL     1       1.425   1.645  -0.003  0.00  0.00    +0.044 C 
ENDBRANCH  27  28
ENDBRANCH  26  27
ENDBRANCH  20  21
ENDBRANCH   4  20
TORSDOF 7
