REMARK  Name = ZINC08739415
REMARK  3 active torsions:
REMARK  status: ('A' for Active; 'I' for Inactive)
REMARK    1  A    between atoms: C_4  and  C_7
REMARK    2  A    between atoms: C_7  and  C_9
REMARK    3  A    between atoms: N_28  and  C_31
REMARK                            x       y       z     vdW  Elec       q    Type
REMARK                         _______ _______ _______ _____ _____    ______ ____
ROOT
ATOM      1  C   UNL     1       3.695  -2.157  -0.074  0.00  0.00    +0.177 C 
ATOM      2  C   UNL     1       3.483  -2.715  -1.497  0.00  0.00    +0.119 C 
ATOM      3  C   UNL     1       4.303  -4.038  -1.499  0.00  0.00    +0.116 C 
ATOM      4  C   UNL     1       5.333  -3.873  -0.380  0.00  0.00    +0.136 C 
ATOM      5  N   UNL     1       5.010  -2.629   0.350  0.00  0.00    -0.236 N 
ATOM      6  N   UNL     1       5.910  -2.020   1.240  0.00  0.00    -0.191 NA
ATOM      7  C   UNL     1       7.182  -2.142   0.967  0.00  0.00    +0.138 C 
ATOM      8  C   UNL     1       7.609  -2.873  -0.241  0.00  0.00    -0.000 A 
ATOM      9  C   UNL     1       6.730  -3.752  -0.934  0.00  0.00    -0.016 A 
ATOM     10  C   UNL     1       7.117  -4.462  -2.046  0.00  0.00    +0.006 A 
ATOM     11  C   UNL     1       8.404  -4.328  -2.540  0.00  0.00    +0.000 A 
ATOM     12  C   UNL     1       9.304  -3.480  -1.917  0.00  0.00    +0.001 A 
ATOM     13  C   UNL     1       8.907  -2.717  -0.733  0.00  0.00    +0.010 A 
ATOM     14  C   UNL     1       3.258  -5.064  -1.110  0.00  0.00    +0.232 C 
ATOM     15  O   UNL     1       3.482  -6.182  -0.699  0.00  0.00    -0.274 OA
ATOM     16  N   UNL     1       2.043  -4.527  -1.296  0.00  0.00    -0.210 N 
ATOM     17  C   UNL     1       2.053  -3.204  -1.623  0.00  0.00    +0.232 C 
ATOM     18  O   UNL     1       1.103  -2.530  -1.959  0.00  0.00    -0.274 OA
ENDROOT
BRANCH  16  19
ATOM     19  C   UNL     1       0.857  -5.264  -1.167  0.00  0.00    +0.047 A 
ATOM     20  C   UNL     1      -0.372  -4.623  -1.247  0.00  0.00    +0.044 A 
ATOM     21  C   UNL     1      -1.540  -5.351  -1.119  0.00  0.00    +0.044 A 
ATOM     22  C   UNL     1      -1.485  -6.718  -0.912  0.00  0.00    +0.040 A 
ATOM     23  C   UNL     1      -0.261  -7.359  -0.833  0.00  0.00    +0.044 A 
ATOM     24  C   UNL     1       0.909  -6.636  -0.965  0.00  0.00    +0.044 A 
ATOM     25 CL   UNL     1      -0.196  -9.075  -0.573  0.00  0.00    -0.083 Cl
ATOM     26 CL   UNL     1      -3.077  -4.551  -1.218  0.00  0.00    -0.083 Cl
ENDBRANCH  16  19
BRANCH   1  27
ATOM     27  C   UNL     1       3.667  -0.650  -0.097  0.00  0.00    +0.186 C 
ATOM     28  O   UNL     1       4.705  -0.025  -0.104  0.00  0.00    -0.290 OA
BRANCH  27  32
ATOM     29  C   UNL     1      -0.046   1.401  -0.140  0.00  0.00    +0.000 A 
ATOM     30  C   UNL     1       1.137   2.119  -0.147  0.00  0.00    +0.001 A 
ATOM     31  C   UNL     1       2.348   1.459  -0.133  0.00  0.00    +0.011 A 
ATOM     32  C   UNL     1       2.379   0.061  -0.112  0.00  0.00    +0.019 A 
ATOM     33  C   UNL     1       1.179  -0.657  -0.104  0.00  0.00    +0.011 A 
ATOM     34  C   UNL     1      -0.024   0.017  -0.119  0.00  0.00    +0.001 A 
ENDBRANCH  27  32
ENDBRANCH   1  27
TORSDOF 3
