REMARK  Name = ZINC34774542
REMARK  8 active torsions:
REMARK  status: ('A' for Active; 'I' for Inactive)
REMARK    1  A    between atoms: C_1  and  C_2
REMARK    2  A    between atoms: C_5  and  N_8
REMARK    3  A    between atoms: C_9  and  C_11
REMARK    4  A    between atoms: C_11  and  N_12
REMARK    5  A    between atoms: C_20  and  C_36
REMARK    6  A    between atoms: C_25  and  S_27
REMARK    7  A    between atoms: S_27  and  C_28
REMARK    8  A    between atoms: C_28  and  C_29
REMARK                            x       y       z     vdW  Elec       q    Type
REMARK                         _______ _______ _______ _____ _____    ______ ____
ROOT
ATOM      1  N   UNL     1       0.408  -6.833   2.504  0.00  0.00    +0.387 N 
ATOM      2  C   UNL     1      -0.834  -6.549   3.235  0.00  0.00    -0.059 C 
ATOM      3  C   UNL     1      -0.671  -6.970   4.699  0.00  0.00    +0.088 C 
ATOM      4  N   UNL     1      -0.254  -8.380   4.736  0.00  0.00    -0.318 N 
ATOM      5  C   UNL     1       0.887  -8.788   3.901  0.00  0.00    +0.088 C 
ATOM      6  C   UNL     1       0.651  -8.281   2.475  0.00  0.00    -0.059 C 
ATOM      7  C   UNL     1      -0.916  -9.297   5.532  0.00  0.00    +0.134 A 
ATOM      8  C   UNL     1      -0.567  -9.442   6.904  0.00  0.00    +0.051 A 
ATOM      9  C   UNL     1       0.442  -8.743   7.683  0.00  0.00    -0.031 A 
ATOM     10  C   UNL     1       0.596  -9.049   8.979  0.00  0.00    +0.051 A 
ATOM     11  S   UNL     1      -0.623 -10.321   9.255  0.00  0.00    -0.077 S 
ATOM     12  C   UNL     1      -1.307 -10.407   7.621  0.00  0.00    +0.115 A 
ATOM     13  N   UNL     1      -2.255 -11.118   7.042  0.00  0.00    -0.215 NA
ATOM     14  C   UNL     1      -2.537 -10.940   5.759  0.00  0.00    +0.191 A 
ATOM     15  N   UNL     1      -1.883 -10.044   5.028  0.00  0.00    -0.206 NA
ATOM     16  C   UNL     1       1.304  -7.688   7.041  0.00  0.00    +0.045 C 
ATOM     17  H   UNL     1       1.179  -6.373   2.965  0.00  0.00    -0.081 HD
ENDROOT
BRANCH   1  18
ATOM     18  C   UNL     1       0.291  -6.330   1.129  0.00  0.00    +0.019 C 
BRANCH  18  20
ATOM     19  N   UNL     1       0.044  -4.144  -0.002  0.00  0.00    -0.287 N 
ATOM     20  C   UNL     1       0.165  -4.828   1.153  0.00  0.00    +0.201 C 
ATOM     21  O   UNL     1       0.171  -4.236   2.211  0.00  0.00    -0.278 OA
ATOM     22  H   UNL     1      -0.047  -4.621  -0.841  0.00  0.00    +0.155 HD
BRANCH  19  27
ATOM     23  C   UNL     1       0.069   1.529   0.047  0.00  0.00    +0.044 C 
ATOM     24  C   UNL     1       0.062   0.022   0.034  0.00  0.00    -0.050 A 
ATOM     25  C   UNL     1       0.695  -0.679   1.044  0.00  0.00    +0.005 A 
ATOM     26  C   UNL     1       0.691  -2.061   1.035  0.00  0.00    +0.023 A 
ATOM     27  C   UNL     1       0.050  -2.745   0.010  0.00  0.00    +0.033 A 
ATOM     28  C   UNL     1      -0.585  -2.038  -1.002  0.00  0.00    +0.023 A 
ATOM     29  C   UNL     1      -0.582  -0.656  -0.985  0.00  0.00    +0.005 A 
ENDBRANCH  19  27
ENDBRANCH  18  20
ENDBRANCH   1  18
BRANCH  14  30
ATOM     30  S   UNL     1      -3.809 -11.903   5.011  0.00  0.00    -0.081 S 
BRANCH  30  31
ATOM     31  C   UNL     1      -4.412 -12.957   6.360  0.00  0.00    +0.112 C 
BRANCH  31  32
ATOM     32  C   UNL     1      -5.518 -13.843   5.849  0.00  0.00    -0.037 A 
ATOM     33  C   UNL     1      -6.830 -13.411   5.902  0.00  0.00    +0.007 A 
ATOM     34  C   UNL     1      -7.845 -14.223   5.433  0.00  0.00    +0.038 A 
ATOM     35  C   UNL     1      -7.548 -15.470   4.910  0.00  0.00    +0.123 A 
ATOM     36  C   UNL     1      -6.233 -15.902   4.857  0.00  0.00    +0.038 A 
ATOM     37  C   UNL     1      -5.219 -15.086   5.321  0.00  0.00    +0.007 A 
ATOM     38  F   UNL     1      -8.539 -16.265   4.452  0.00  0.00    -0.205 F 
ENDBRANCH  31  32
ENDBRANCH  30  31
ENDBRANCH  14  30
TORSDOF 6
