REMARK  Name = ZINC26799188
REMARK  9 active torsions:
REMARK  status: ('A' for Active; 'I' for Inactive)
REMARK    1  A    between atoms: C_1  and  C_2
REMARK    2  A    between atoms: C_2  and  C_4
REMARK    3  A    between atoms: C_2  and  N_26
REMARK    4  A    between atoms: N_6  and  C_7
REMARK    5  A    between atoms: C_10  and  O_24
REMARK    6  A    between atoms: C_11  and  S_13
REMARK    7  A    between atoms: S_13  and  N_16
REMARK    8  A    between atoms: N_16  and  C_17
REMARK    9  A    between atoms: O_24  and  C_25
REMARK                            x       y       z     vdW  Elec       q    Type
REMARK                         _______ _______ _______ _____ _____    ______ ____
ROOT
ATOM      1  C   UNL     1      -1.474   5.755  -1.440  0.00  0.00    +0.036 A 
ATOM      2  C   UNL     1      -0.289   6.181  -2.026  0.00  0.00    +0.027 A 
ATOM      3  C   UNL     1      -0.241   7.397  -2.679  0.00  0.00    +0.049 A 
ATOM      4  C   UNL     1      -1.373   8.197  -2.741  0.00  0.00    +0.147 A 
ATOM      5  C   UNL     1      -2.555   7.774  -2.151  0.00  0.00    +0.152 A 
ATOM      6  C   UNL     1      -2.606   6.556  -1.502  0.00  0.00    +0.055 A 
ENDROOT
BRANCH   1   9
ATOM      7  C   UNL     1      -2.648   3.776  -0.830  0.00  0.00    +0.237 C 
ATOM      8  O   UNL     1      -3.642   4.214  -1.369  0.00  0.00    -0.273 OA
ATOM      9  N   UNL     1      -1.525   4.520  -0.781  0.00  0.00    -0.284 N 
ATOM     10  H   UNL     1      -0.649   4.157  -0.224  0.00  0.00    +0.155 HD
BRANCH   7  12
ATOM     11  C   UNL     1      -1.614   1.523  -0.892  0.00  0.00    +0.038 C 
ATOM     12  C   UNL     1      -2.668   2.400  -0.215  0.00  0.00    +0.158 C 
BRANCH  12  13
ATOM     13  N   UNL     1      -3.993   1.802  -0.399  0.00  0.00    -0.289 N 
ATOM     14  C   UNL     1      -4.426   0.850   0.450  0.00  0.00    +0.298 C 
ATOM     15  O   UNL     1      -3.716   0.483   1.367  0.00  0.00    -0.253 OA
ATOM     16  N   UNL     1      -5.647   0.303   0.284  0.00  0.00    -0.313 N 
ATOM     17  H   UNL     1      -4.634   2.131  -1.231  0.00  0.00    +0.151 HD
ATOM     18  H   UNL     1      -6.001  -0.474   0.977  0.00  0.00    +0.146 HD
ATOM     19  H   UNL     1      -6.290   0.635  -0.545  0.00  0.00    +0.146 HD
ENDBRANCH  12  13
ENDBRANCH   7  12
ENDBRANCH   1   9
BRANCH   5  20
ATOM     20  S   UNL     1      -3.991   8.791  -2.231  0.00  0.00    +0.076 S 
ATOM     21  O   UNL     1      -4.144   9.172  -3.591  0.00  0.00    -0.150 OA
ATOM     22  O   UNL     1      -5.011   8.111  -1.511  0.00  0.00    -0.150 OA
BRANCH  20  23
ATOM     23  N   UNL     1      -3.659  10.176  -1.386  0.00  0.00    -0.216 N 
ATOM     24  H   UNL     1      -3.675  11.150  -1.898  0.00  0.00    +0.174 HD
BRANCH  23  25
ATOM     25  C   UNL     1      -3.357  10.108  -0.024  0.00  0.00    +0.048 A 
ATOM     26  C   UNL     1      -4.139   9.335   0.825  0.00  0.00    +0.026 A 
ATOM     27  C   UNL     1      -3.835   9.265   2.170  0.00  0.00    +0.022 A 
ATOM     28  C   UNL     1      -2.759   9.973   2.675  0.00  0.00    +0.041 A 
ATOM     29  C   UNL     1      -1.981  10.748   1.833  0.00  0.00    +0.022 A 
ATOM     30  C   UNL     1      -2.277  10.817   0.486  0.00  0.00    +0.026 A 
ATOM     31 CL   UNL     1      -2.384   9.888   4.368  0.00  0.00    -0.084 Cl
ENDBRANCH  23  25
ENDBRANCH  20  23
ENDBRANCH   5  20
BRANCH   4  32
ATOM     32  O   UNL     1      -1.323   9.396  -3.379  0.00  0.00    -0.493 OA
ATOM     33  C   UNL     1      -0.047   9.821  -3.863  0.00  0.00    +0.277 C 
ENDBRANCH   4  32
TORSDOF 7
