REMARK  Name = ZINC67578754
REMARK  8 active torsions:
REMARK  status: ('A' for Active; 'I' for Inactive)
REMARK    1  A    between atoms: C_1  and  C_2
REMARK    2  A    between atoms: C_2  and  C_4
REMARK    3  A    between atoms: C_2  and  S_27
REMARK    4  A    between atoms: C_8  and  N_10
REMARK    5  A    between atoms: N_13  and  C_14
REMARK    6  A    between atoms: C_14  and  C_15
REMARK    7  A    between atoms: C_20  and  N_21
REMARK    8  A    between atoms: S_27  and  C_28
REMARK                            x       y       z     vdW  Elec       q    Type
REMARK                         _______ _______ _______ _____ _____    ______ ____
ROOT
ATOM      1  N   UNL     1      -0.108  -2.253  -4.355  0.00  0.00    -0.269 N 
ATOM      2  C   UNL     1       0.535  -2.727  -5.441  0.00  0.00    +0.304 C 
ATOM      3  O   UNL     1       1.722  -2.510  -5.586  0.00  0.00    -0.252 OA
ATOM      4  N   UNL     1      -0.138  -3.440  -6.365  0.00  0.00    -0.295 N 
ATOM      5  H   UNL     1      -1.039  -2.483  -4.204  0.00  0.00    +0.156 HD
ATOM      6  H   UNL     1      -1.086  -3.612  -6.250  0.00  0.00    +0.151 HD
ENDROOT
BRANCH   1  11
ATOM      7  C   UNL     1       2.213   0.252  -2.994  0.00  0.00    -0.033 A 
ATOM      8  C   UNL     1       1.899   0.197  -1.648  0.00  0.00    +0.005 A 
ATOM      9  C   UNL     1       0.919  -0.670  -1.199  0.00  0.00    +0.002 A 
ATOM     10  C   UNL     1       0.252  -1.484  -2.095  0.00  0.00    +0.023 A 
ATOM     11  C   UNL     1       0.566  -1.430  -3.446  0.00  0.00    +0.035 A 
ATOM     12  C   UNL     1       1.546  -0.554  -3.894  0.00  0.00    +0.028 A 
BRANCH   7  14
ATOM     13  C   UNL     1       4.612   0.853  -2.807  0.00  0.00    +0.024 C 
ATOM     14  C   UNL     1       3.281   1.199  -3.478  0.00  0.00    +0.073 C 
BRANCH  14  15
ATOM     15  S   UNL     1       2.816   2.901  -3.060  0.00  0.00    -0.156 S 
ATOM     16  C   UNL     1       4.108   3.912  -3.834  0.00  0.00    +0.085 C 
ENDBRANCH  14  15
ENDBRANCH   7  14
ENDBRANCH   1  11
BRANCH   4  17
ATOM     17  C   UNL     1       0.561  -3.954  -7.545  0.00  0.00    +0.144 C 
BRANCH  17  18
ATOM     18  C   UNL     1      -0.410  -4.711  -8.415  0.00  0.00    +0.008 A 
ATOM     19  C   UNL     1      -0.441  -6.094  -8.392  0.00  0.00    +0.010 A 
ATOM     20  C   UNL     1      -1.352  -6.749  -9.210  0.00  0.00    +0.018 A 
ATOM     21  C   UNL     1      -2.194  -6.008 -10.015  0.00  0.00    +0.084 A 
ATOM     22  N   UNL     1      -2.142  -4.690 -10.016  0.00  0.00    -0.349 N 
ATOM     23  C   UNL     1      -1.292  -4.028  -9.246  0.00  0.00    +0.103 A 
ATOM     24  H   UNL     1      -2.745  -4.193 -10.591  0.00  0.00    +0.167 HD
BRANCH  23  25
ATOM     25  N   UNL     1      -1.275  -2.638  -9.274  0.00  0.00    -0.316 N 
ATOM     26  C   UNL     1      -0.343  -1.918 -10.152  0.00  0.00    +0.106 C 
ATOM     27  C   UNL     1      -1.139  -0.934 -11.015  0.00  0.00    +0.019 C 
ATOM     28  C   UNL     1      -1.976  -0.028 -10.109  0.00  0.00    +0.003 C 
ATOM     29  C   UNL     1      -2.965  -0.878  -9.309  0.00  0.00    +0.019 C 
ATOM     30  C   UNL     1      -2.194  -1.861  -8.431  0.00  0.00    +0.106 C 
ENDBRANCH  23  25
ENDBRANCH  17  18
ENDBRANCH   4  17
TORSDOF 6
