REMARK  Name = ZINC04575059
REMARK  3 active torsions:
REMARK  status: ('A' for Active; 'I' for Inactive)
REMARK    1  A    between atoms: C_4  and  N_9
REMARK    2  A    between atoms: C_10  and  C_12
REMARK    3  A    between atoms: C_12  and  C_13
REMARK                            x       y       z     vdW  Elec       q    Type
REMARK                         _______ _______ _______ _____ _____    ______ ____
ROOT
ATOM      1  N   UNL     1       3.628  -0.653  -0.037  0.00  0.00    -0.281 N 
ATOM      2  C   UNL     1       3.686  -1.942   0.354  0.00  0.00    +0.219 C 
ATOM      3  O   UNL     1       2.667  -2.537   0.634  0.00  0.00    -0.275 OA
ATOM      4  H   UNL     1       4.433  -0.199  -0.331  0.00  0.00    +0.155 HD
ENDROOT
BRANCH   1   8
ATOM      5  C   UNL     1      -0.016   1.382   0.012  0.00  0.00    +0.082 A 
ATOM      6  C   UNL     1       0.789   1.379   1.139  0.00  0.00    +0.163 A 
ATOM      7  C   UNL     1       1.999   0.704   1.125  0.00  0.00    +0.182 A 
ATOM      8  C   UNL     1       2.404   0.030  -0.021  0.00  0.00    +0.110 A 
ATOM      9  C   UNL     1       1.594   0.034  -1.149  0.00  0.00    +0.182 A 
ATOM     10  C   UNL     1       0.385   0.711  -1.130  0.00  0.00    +0.163 A 
ATOM     11  F   UNL     1      -0.403   0.716  -2.228  0.00  0.00    -0.202 F 
ATOM     12  F   UNL     1       1.985  -0.620  -2.265  0.00  0.00    -0.200 F 
ATOM     13  F   UNL     1       2.784   0.702   2.224  0.00  0.00    -0.200 F 
ATOM     14  F   UNL     1       0.395   2.034   2.252  0.00  0.00    -0.202 F 
ENDBRANCH   1   8
BRANCH   2  15
ATOM     15  C   UNL     1       5.017  -2.642   0.445  0.00  0.00    +0.120 C 
BRANCH  15  16
ATOM     16  C   UNL     1       4.804  -4.084   0.910  0.00  0.00    +0.149 C 
ATOM     17  C   UNL     1       6.127  -4.822   1.043  0.00  0.00    +0.232 C 
ATOM     18  O   UNL     1       6.983  -4.471   1.826  0.00  0.00    -0.274 OA
ATOM     19  N   UNL     1       6.284  -5.869   0.252  0.00  0.00    -0.264 N 
ATOM     20  C   UNL     1       5.312  -6.275  -0.641  0.00  0.00    +0.153 C 
ATOM     21  N   UNL     1       5.349  -7.282  -1.467  0.00  0.00    -0.280 NA
ATOM     22  S   UNL     1       3.993  -5.094  -0.399  0.00  0.00    -0.078 S 
ATOM     23  H   UNL     1       7.113  -6.371   0.302  0.00  0.00    +0.157 HD
ATOM     24  H   UNL     1       6.132  -7.853  -1.501  0.00  0.00    +0.189 HD
ENDBRANCH  15  16
ENDBRANCH   2  15
TORSDOF 3
