REMARK  Name = ZINC14067300
REMARK  3 active torsions:
REMARK  status: ('A' for Active; 'I' for Inactive)
REMARK    1  A    between atoms: C_8  and  S_10
REMARK    2  A    between atoms: S_10  and  C_11
REMARK    3  A    between atoms: C_11  and  C_12
REMARK                            x       y       z     vdW  Elec       q    Type
REMARK                         _______ _______ _______ _____ _____    ______ ____
ROOT
ATOM      1  C   UNL     1      -0.635  -4.469  -0.018  0.00  0.00    +0.002 A 
ATOM      2  C   UNL     1       0.751  -4.454  -0.032  0.00  0.00    +0.004 A 
ATOM      3  C   UNL     1       1.439  -3.257  -0.031  0.00  0.00    +0.048 A 
ATOM      4  C   UNL     1       0.741  -2.061  -0.017  0.00  0.00    +0.156 A 
ATOM      5  C   UNL     1      -0.661  -2.070  -0.004  0.00  0.00    +0.110 A 
ATOM      6  C   UNL     1      -1.344  -3.288  -0.004  0.00  0.00    +0.031 A 
ATOM      7  N   UNL     1      -1.061  -0.769   0.008  0.00  0.00    -0.203 NA
ATOM      8  C   UNL     1       0.002  -0.004   0.002  0.00  0.00    +0.258 A 
ATOM      9  O   UNL     1       1.115  -0.760  -0.018  0.00  0.00    -0.431 OA
ENDROOT
BRANCH   8  10
ATOM     10  S   UNL     1      -0.022   1.758   0.012  0.00  0.00    -0.062 S 
BRANCH  10  11
ATOM     11  C   UNL     1       1.756   2.096  -0.004  0.00  0.00    +0.114 C 
BRANCH  11  12
ATOM     12  C   UNL     1       1.984   3.586   0.002  0.00  0.00    -0.036 A 
ATOM     13  C   UNL     1       2.100   4.263   1.202  0.00  0.00    +0.004 A 
ATOM     14  C   UNL     1       2.310   5.629   1.208  0.00  0.00    +0.001 A 
ATOM     15  C   UNL     1       2.403   6.319   0.014  0.00  0.00    +0.015 A 
ATOM     16  C   UNL     1       2.287   5.643  -1.186  0.00  0.00    +0.018 A 
ATOM     17  C   UNL     1       2.083   4.274  -1.192  0.00  0.00    +0.019 A 
ATOM     18 BR   UNL     1       2.415   6.587  -2.820  0.00  0.00    -0.050 Br
ENDBRANCH  11  12
ENDBRANCH  10  11
ENDBRANCH   8  10
TORSDOF 3
