REMARK  Name = ZINC41588816
REMARK  4 active torsions:
REMARK  status: ('A' for Active; 'I' for Inactive)
REMARK    1  A    between atoms: C_1  and  C_2
REMARK    2  A    between atoms: C_10  and  C_11
REMARK    3  A    between atoms: N_23  and  C_26
REMARK    4  A    between atoms: C_26  and  C_27
REMARK                            x       y       z     vdW  Elec       q    Type
REMARK                         _______ _______ _______ _____ _____    ______ ____
ROOT
ATOM      1  C   UNL     1       0.076   1.497   0.006  0.00  0.00    +0.051 C 
ATOM      2  C   UNL     1       0.089  -0.010   0.000  0.00  0.00    +0.034 A 
ATOM      3  C   UNL     1       0.111  -0.697  -1.206  0.00  0.00    +0.133 A 
ATOM      4  C   UNL     1       0.124  -2.088  -1.224  0.00  0.00    +0.010 A 
ATOM      5  C   UNL     1       0.114  -2.789  -0.048  0.00  0.00    +0.024 A 
ATOM      6  C   UNL     1       0.092  -2.111   1.169  0.00  0.00    +0.068 A 
ATOM      7  C   UNL     1       0.086  -0.707   1.201  0.00  0.00    +0.146 A 
ATOM      8  O   UNL     1       0.074  -0.280   2.482  0.00  0.00    -0.451 OA
ATOM      9  C   UNL     1       0.074  -1.314   3.357  0.00  0.00    +0.176 C 
ATOM     10  C   UNL     1       0.061  -1.218   4.711  0.00  0.00    +0.058 C 
ATOM     11  C   UNL     1       0.076  -2.558   2.574  0.00  0.00    +0.231 C 
ATOM     12  O   UNL     1       0.079  -3.703   2.993  0.00  0.00    -0.283 OA
ATOM     13  C   UNL     1       0.155  -2.842  -2.529  0.00  0.00    +0.126 C 
ATOM     14  N   UNL     1      -0.250  -1.949  -3.623  0.00  0.00    -0.262 NA
ATOM     15  C   UNL     1       0.503  -0.686  -3.553  0.00  0.00    +0.319 C 
ATOM     16  O   UNL     1       0.116   0.011  -2.366  0.00  0.00    -0.476 OA
ENDROOT
BRANCH  10  17
ATOM     17  C   UNL     1       0.162   0.097   5.355  0.00  0.00    -0.018 A 
ATOM     18  C   UNL     1       0.284   0.190   6.748  0.00  0.00    +0.012 A 
ATOM     19  C   UNL     1       0.379   1.425   7.348  0.00  0.00    +0.050 A 
ATOM     20  C   UNL     1       0.354   2.582   6.579  0.00  0.00    +0.166 A 
ATOM     21  C   UNL     1       0.232   2.497   5.191  0.00  0.00    +0.167 A 
ATOM     22  C   UNL     1       0.142   1.263   4.580  0.00  0.00    +0.057 A 
ATOM     23  O   UNL     1       0.232   3.762   4.676  0.00  0.00    -0.453 OA
ATOM     24  C   UNL     1      -0.057   4.629   5.788  0.00  0.00    +0.466 C 
ATOM     25  O   UNL     1       0.430   3.898   6.929  0.00  0.00    -0.453 OA
ENDBRANCH  10  17
BRANCH  14  26
ATOM     26  C   UNL     1      -0.067  -2.599  -4.928  0.00  0.00    +0.123 C 
BRANCH  26  27
ATOM     27  C   UNL     1      -0.714  -1.761  -6.001  0.00  0.00    -0.032 A 
ATOM     28  C   UNL     1      -2.039  -1.970  -6.336  0.00  0.00    +0.006 A 
ATOM     29  C   UNL     1      -2.634  -1.203  -7.320  0.00  0.00    +0.022 A 
ATOM     30  C   UNL     1      -1.903  -0.226  -7.971  0.00  0.00    +0.059 A 
ATOM     31  C   UNL     1      -0.576  -0.016  -7.635  0.00  0.00    +0.060 A 
ATOM     32  C   UNL     1       0.016  -0.781  -6.646  0.00  0.00    +0.026 A 
ATOM     33 CL   UNL     1       0.343   1.210  -8.451  0.00  0.00    -0.082 Cl
ATOM     34 CL   UNL     1      -2.649   0.738  -9.207  0.00  0.00    -0.082 Cl
ENDBRANCH  26  27
ENDBRANCH  14  26
TORSDOF 3
