REMARK  Name = ZINC29040385
REMARK  11 active torsions:
REMARK  status: ('A' for Active; 'I' for Inactive)
REMARK    1  A    between atoms: C_1  and  C_2
REMARK    2  A    between atoms: N_5  and  N_23
REMARK    3  A    between atoms: C_8  and  C_9
REMARK    4  A    between atoms: C_9  and  C_10
REMARK    5  A    between atoms: N_12  and  C_13
REMARK    6  A    between atoms: C_13  and  C_14
REMARK    7  A    between atoms: C_17  and  C_20
REMARK    8  A    between atoms: N_23  and  S_24
REMARK    9  A    between atoms: S_24  and  C_27
REMARK   10  A    between atoms: C_32  and  O_33
REMARK   11  A    between atoms: O_33  and  C_34
REMARK                            x       y       z     vdW  Elec       q    Type
REMARK                         _______ _______ _______ _____ _____    ______ ____
ROOT
ATOM      1  C   UNL     1      -4.919   6.468   2.797  0.00  0.00    +0.044 C 
ATOM      2  C   UNL     1      -4.528   5.056   2.446  0.00  0.00    -0.040 A 
ATOM      3  C   UNL     1      -5.416   4.228   1.745  0.00  0.00    +0.023 A 
ATOM      4  C   UNL     1      -5.055   2.961   1.433  0.00  0.00    +0.113 A 
ATOM      5  N   UNL     1      -3.838   2.478   1.792  0.00  0.00    -0.218 N 
ATOM      6  C   UNL     1      -2.965   3.247   2.471  0.00  0.00    +0.273 A 
ATOM      7  O   UNL     1      -1.877   2.798   2.791  0.00  0.00    -0.266 OA
ATOM      8  C   UNL     1      -3.305   4.569   2.805  0.00  0.00    +0.030 A 
ENDROOT
BRANCH   5   9
ATOM      9  N   UNL     1      -3.488   1.163   1.459  0.00  0.00    -0.150 N 
ATOM     10  H   UNL     1      -3.716   0.341   2.153  0.00  0.00    +0.195 HD
BRANCH   9  11
ATOM     11  S   UNL     1      -2.732   0.848   0.020  0.00  0.00    +0.089 S 
ATOM     12  O   UNL     1      -3.545   1.415  -0.999  0.00  0.00    -0.149 OA
ATOM     13  O   UNL     1      -2.384  -0.530   0.038  0.00  0.00    -0.149 OA
BRANCH  11  14
ATOM     14  C   UNL     1      -1.219   1.750   0.017  0.00  0.00    +0.151 A 
ATOM     15  C   UNL     1      -0.013   1.076   0.008  0.00  0.00    +0.034 A 
ATOM     16  C   UNL     1       1.175   1.782   0.000  0.00  0.00    +0.022 A 
ATOM     17  C   UNL     1       1.160   3.166   0.008  0.00  0.00    +0.045 A 
ATOM     18  C   UNL     1      -0.045   3.845   0.024  0.00  0.00    +0.067 A 
ATOM     19  C   UNL     1      -1.238   3.137   0.031  0.00  0.00    +0.148 A 
ATOM     20 CL   UNL     1       2.654   4.051  -0.002  0.00  0.00    -0.083 Cl
BRANCH  19  21
ATOM     21  O   UNL     1      -2.423   3.801   0.046  0.00  0.00    -0.493 OA
ATOM     22  C   UNL     1      -2.367   5.229   0.054  0.00  0.00    +0.277 C 
ENDBRANCH  19  21
ENDBRANCH  11  14
ENDBRANCH   9  11
ENDBRANCH   5   9
BRANCH   8  23
ATOM     23  C   UNL     1      -2.332   5.438   3.559  0.00  0.00    +0.136 C 
BRANCH  23  24
ATOM     24  C   UNL     1      -2.467   5.179   5.037  0.00  0.00    +0.218 C 
ATOM     25  O   UNL     1      -3.275   4.368   5.439  0.00  0.00    -0.275 OA
ATOM     26  N   UNL     1      -1.691   5.848   5.913  0.00  0.00    -0.311 N 
ATOM     27  H   UNL     1      -0.959   6.583   5.548  0.00  0.00    +0.149 HD
BRANCH  26  28
ATOM     28  C   UNL     1      -1.823   5.596   7.350  0.00  0.00    +0.139 C 
BRANCH  28  29
ATOM     29  C   UNL     1      -0.850   6.465   8.104  0.00  0.00    -0.030 A 
ATOM     30  C   UNL     1       0.423   5.996   8.378  0.00  0.00    +0.006 A 
ATOM     31  C   UNL     1       1.320   6.789   9.064  0.00  0.00    +0.011 A 
ATOM     32  C   UNL     1       0.939   8.061   9.490  0.00  0.00    +0.012 A 
ATOM     33  C   UNL     1      -0.347   8.526   9.215  0.00  0.00    +0.011 A 
ATOM     34  C   UNL     1      -1.234   7.725   8.524  0.00  0.00    +0.006 A 
BRANCH  32  35
ATOM     35  C   UNL     1       1.895   8.915  10.230  0.00  0.00    +0.094 C 
ATOM     36  N   UNL     1       1.536  10.103  10.626  0.00  0.00    -0.387 N 
ATOM     37  N   UNL     1       3.165   8.453  10.500  0.00  0.00    -0.345 N 
ATOM     38  H   UNL     1       2.247  10.737  11.176  0.00  0.00    +0.157 HD
ATOM     39  H   UNL     1       3.876   9.088  11.050  0.00  0.00    +0.144 HD
ATOM     40  H   UNL     1       3.468   7.450  10.166  0.00  0.00    +0.144 HD
ATOM     41  H   UNL     1       0.523  10.472  10.411  0.00  0.00    +0.157 HD
ENDBRANCH  32  35
ENDBRANCH  28  29
ENDBRANCH  26  28
ENDBRANCH  23  24
ENDBRANCH   8  23
TORSDOF 9
