REMARK  Name = ZINC35673045
REMARK  3 active torsions:
REMARK  status: ('A' for Active; 'I' for Inactive)
REMARK    1  A    between atoms: C_8  and  C_10
REMARK    2  A    between atoms: C_16  and  C_18
REMARK    3  A    between atoms: C_20  and  C_23
REMARK                            x       y       z     vdW  Elec       q    Type
REMARK                         _______ _______ _______ _____ _____    ______ ____
ROOT
ATOM      1  C   UNL     1       4.039  -2.726   0.076  0.00  0.00    +0.078 C 
ATOM      2  C   UNL     1       4.830  -3.127   1.323  0.00  0.00    +0.032 C 
ATOM      3  C   UNL     1       5.330  -4.566   1.165  0.00  0.00    +0.109 C 
ATOM      4  N   UNL     1       6.087  -4.669  -0.090  0.00  0.00    -0.296 N 
ATOM      5  C   UNL     1       5.451  -4.224  -1.338  0.00  0.00    +0.109 C 
ATOM      6  C   UNL     1       4.951  -2.788  -1.152  0.00  0.00    +0.032 C 
ATOM      7  C   UNL     1       7.342  -5.161  -0.096  0.00  0.00    +0.268 C 
ATOM      8  O   UNL     1       7.903  -5.408   0.953  0.00  0.00    -0.268 OA
ENDROOT
BRANCH   1  16
ATOM      9  C   UNL     1       1.322   2.586   0.669  0.00  0.00    +0.002 A 
ATOM     10  C   UNL     1       2.619   3.061   0.797  0.00  0.00    +0.004 A 
ATOM     11  C   UNL     1       3.691   2.195   0.730  0.00  0.00    +0.048 A 
ATOM     12  C   UNL     1       3.472   0.840   0.535  0.00  0.00    +0.155 A 
ATOM     13  C   UNL     1       2.161   0.355   0.406  0.00  0.00    +0.110 A 
ATOM     14  C   UNL     1       1.087   1.244   0.475  0.00  0.00    +0.031 A 
ATOM     15  N   UNL     1       2.261  -0.990   0.227  0.00  0.00    -0.213 NA
ATOM     16  C   UNL     1       3.517  -1.322   0.242  0.00  0.00    +0.200 A 
ATOM     17  O   UNL     1       4.284  -0.235   0.427  0.00  0.00    -0.439 OA
ENDBRANCH   1  16
BRANCH   7  18
ATOM     18  C   UNL     1       8.038  -5.401  -1.384  0.00  0.00    +0.168 A 
ATOM     19  C   UNL     1       9.391  -5.774  -1.539  0.00  0.00    +0.086 A 
ATOM     20  C   UNL     1       9.641  -5.894  -2.870  0.00  0.00    +0.168 A 
ATOM     21  O   UNL     1       8.505  -5.612  -3.533  0.00  0.00    -0.354 OA
ATOM     22  N   UNL     1       7.504  -5.309  -2.579  0.00  0.00    -0.073 NA
BRANCH  20  23
ATOM     23  C   UNL     1      10.934  -6.268  -3.481  0.00  0.00    +0.020 A 
ATOM     24  C   UNL     1      12.039  -6.541  -2.673  0.00  0.00    +0.013 A 
ATOM     25  C   UNL     1      13.243  -6.889  -3.249  0.00  0.00    +0.016 A 
ATOM     26  C   UNL     1      13.357  -6.968  -4.626  0.00  0.00    +0.018 A 
ATOM     27  C   UNL     1      12.265  -6.699  -5.434  0.00  0.00    +0.016 A 
ATOM     28  C   UNL     1      11.054  -6.356  -4.869  0.00  0.00    +0.013 A 
ATOM     29 BR   UNL     1      15.011  -7.445  -5.408  0.00  0.00    -0.050 Br
ENDBRANCH  20  23
ENDBRANCH   7  18
TORSDOF 3
