REMARK  Name = ZINC09780806
REMARK  4 active torsions:
REMARK  status: ('A' for Active; 'I' for Inactive)
REMARK    1  A    between atoms: C_1  and  C_2
REMARK    2  A    between atoms: C_9  and  C_11
REMARK    3  A    between atoms: N_16  and  S_19
REMARK    4  A    between atoms: S_19  and  C_22
REMARK                            x       y       z     vdW  Elec       q    Type
REMARK                         _______ _______ _______ _____ _____    ______ ____
ROOT
ATOM      1  C   UNL     1       4.272  -1.039  -5.631  0.00  0.00    +0.253 C 
ATOM      2  O   UNL     1       3.551  -1.817  -6.226  0.00  0.00    -0.269 OA
ATOM      3  N   UNL     1       4.420  -1.144  -4.295  0.00  0.00    -0.295 N 
ATOM      4  C   UNL     1       5.393  -0.304  -3.582  0.00  0.00    +0.125 C 
ATOM      5  C   UNL     1       6.335  -1.216  -2.785  0.00  0.00    +0.128 C 
ATOM      6  N   UNL     1       5.525  -2.171  -2.016  0.00  0.00    -0.174 NA
ATOM      7  C   UNL     1       4.556  -3.014  -2.730  0.00  0.00    +0.128 C 
ATOM      8  C   UNL     1       3.610  -2.099  -3.526  0.00  0.00    +0.125 C 
ENDROOT
BRANCH   1  16
ATOM      9  C   UNL     1       7.840   2.708 -11.164  0.00  0.00    +0.008 C 
ATOM     10  C   UNL     1       7.522   2.409  -9.698  0.00  0.00    -0.009 C 
ATOM     11  C   UNL     1       7.044   3.691  -9.010  0.00  0.00    +0.009 C 
ATOM     12  C   UNL     1       6.990   3.447  -7.495  0.00  0.00    +0.043 C 
ATOM     13  C   UNL     1       6.276   2.153  -7.250  0.00  0.00    -0.006 A 
ATOM     14  C   UNL     1       6.001   1.179  -8.166  0.00  0.00    -0.036 A 
ATOM     15  C   UNL     1       5.325   0.061  -7.704  0.00  0.00    +0.024 A 
ATOM     16  C   UNL     1       4.981   0.013  -6.366  0.00  0.00    +0.075 A 
ATOM     17  S   UNL     1       5.619   1.569  -5.769  0.00  0.00    -0.088 S 
ATOM     18  C   UNL     1       6.432   1.340  -9.622  0.00  0.00    +0.039 C 
ENDBRANCH   1  16
BRANCH   6  19
ATOM     19  S   UNL     1       5.706  -2.300  -0.375  0.00  0.00    +0.061 S 
ATOM     20  O   UNL     1       7.014  -1.834  -0.073  0.00  0.00    -0.153 OA
ATOM     21  O   UNL     1       5.259  -3.600  -0.018  0.00  0.00    -0.153 OA
BRANCH  19  22
ATOM     22  C   UNL     1       4.583  -1.161   0.364  0.00  0.00    +0.109 A 
ATOM     23  C   UNL     1       3.299  -1.564   0.680  0.00  0.00    +0.032 A 
ATOM     24  C   UNL     1       2.414  -0.673   1.258  0.00  0.00    +0.051 A 
ATOM     25  C   UNL     1       2.813   0.629   1.522  0.00  0.00    +0.162 A 
ATOM     26  C   UNL     1       4.105   1.034   1.208  0.00  0.00    +0.164 A 
ATOM     27  C   UNL     1       4.987   0.135   0.627  0.00  0.00    +0.078 A 
ATOM     28  O   UNL     1       4.519   2.304   1.466  0.00  0.00    -0.485 OA
ATOM     29  C   UNL     1       3.498   3.279   1.703  0.00  0.00    +0.270 C 
ATOM     30  C   UNL     1       2.478   2.679   2.680  0.00  0.00    +0.270 C 
ATOM     31  O   UNL     1       1.929   1.498   2.083  0.00  0.00    -0.485 OA
ENDBRANCH  19  22
ENDBRANCH   6  19
TORSDOF 3
