REMARK  Name = ZINC19362585
REMARK  4 active torsions:
REMARK  status: ('A' for Active; 'I' for Inactive)
REMARK    1  A    between atoms: C_6  and  C_7
REMARK    2  A    between atoms: C_7  and  N_8
REMARK    3  A    between atoms: N_11  and  C_14
REMARK    4  A    between atoms: N_19  and  C_22
REMARK                            x       y       z     vdW  Elec       q    Type
REMARK                         _______ _______ _______ _____ _____    ______ ____
ROOT
ATOM      1  N   UNL     1      -1.826  -1.136  -1.274  0.00  0.00    +0.384 N 
ATOM      2  C   UNL     1      -2.092   0.162  -1.909  0.00  0.00    -0.063 C 
ATOM      3  C   UNL     1      -2.487  -0.056  -3.371  0.00  0.00    +0.066 C 
ATOM      4  N   UNL     1      -3.686  -0.905  -3.430  0.00  0.00    -0.295 NA
ATOM      5  C   UNL     1      -3.442  -2.198  -2.776  0.00  0.00    +0.066 C 
ATOM      6  C   UNL     1      -3.039  -1.962  -1.319  0.00  0.00    -0.063 C 
ATOM      7  H   UNL     1      -1.081  -1.605  -1.768  0.00  0.00    -0.081 HD
ENDROOT
BRANCH   4   8
ATOM      8  C   UNL     1      -4.131  -1.091  -4.817  0.00  0.00    +0.153 C 
ATOM      9  C   UNL     1      -5.493  -1.815  -4.858  0.00  0.00    +0.125 C 
ATOM     10  C   UNL     1      -5.193  -3.093  -5.610  0.00  0.00    +0.228 C 
ATOM     11  O   UNL     1      -5.998  -3.961  -5.868  0.00  0.00    -0.275 OA
ATOM     12  N   UNL     1      -3.897  -3.112  -5.947  0.00  0.00    -0.209 N 
ATOM     13  C   UNL     1      -3.203  -2.034  -5.552  0.00  0.00    +0.244 C 
ATOM     14  O   UNL     1      -2.022  -1.843  -5.751  0.00  0.00    -0.273 OA
BRANCH  12  15
ATOM     15  C   UNL     1      -3.313  -4.172  -6.655  0.00  0.00    +0.047 A 
ATOM     16  C   UNL     1      -3.198  -5.423  -6.064  0.00  0.00    +0.044 A 
ATOM     17  C   UNL     1      -2.621  -6.466  -6.765  0.00  0.00    +0.044 A 
ATOM     18  C   UNL     1      -2.160  -6.264  -8.053  0.00  0.00    +0.040 A 
ATOM     19  C   UNL     1      -2.273  -5.018  -8.644  0.00  0.00    +0.044 A 
ATOM     20  C   UNL     1      -2.854  -3.973  -7.950  0.00  0.00    +0.044 A 
ATOM     21 CL   UNL     1      -1.693  -4.769 -10.261  0.00  0.00    -0.083 Cl
ATOM     22 CL   UNL     1      -2.476  -8.031  -6.026  0.00  0.00    -0.083 Cl
ENDBRANCH  12  15
ENDBRANCH   4   8
BRANCH   1  23
ATOM     23  C   UNL     1      -1.429  -0.924   0.124  0.00  0.00    -0.043 C 
BRANCH  23  29
ATOM     24  C   UNL     1      -0.110   1.200   0.198  0.00  0.00    +0.005 A 
ATOM     25  C   UNL     1       1.090   1.887   0.238  0.00  0.00    +0.050 A 
ATOM     26  C   UNL     1       2.287   1.190   0.247  0.00  0.00    +0.166 A 
ATOM     27  C   UNL     1       2.278  -0.203   0.217  0.00  0.00    +0.166 A 
ATOM     28  C   UNL     1       1.073  -0.883   0.176  0.00  0.00    +0.051 A 
ATOM     29  C   UNL     1      -0.119  -0.181   0.168  0.00  0.00    -0.060 A 
ATOM     30  O   UNL     1       3.568  -0.647   0.233  0.00  0.00    -0.453 OA
ATOM     31  C   UNL     1       4.371   0.489  -0.138  0.00  0.00    +0.466 C 
ATOM     32  O   UNL     1       3.582   1.617   0.283  0.00  0.00    -0.453 OA
ENDBRANCH  23  29
ENDBRANCH   1  23
TORSDOF 4
