REMARK  Name = ZINC44078489
REMARK  5 active torsions:
REMARK  status: ('A' for Active; 'I' for Inactive)
REMARK    1  A    between atoms: C_1  and  C_2
REMARK    2  A    between atoms: C_7  and  C_10
REMARK    3  A    between atoms: N_13  and  C_14
REMARK    4  A    between atoms: C_16  and  N_21
REMARK    5  A    between atoms: C_22  and  C_24
REMARK                            x       y       z     vdW  Elec       q    Type
REMARK                         _______ _______ _______ _____ _____    ______ ____
ROOT
ATOM      1  C   UNL     1      -0.269   1.053  -0.493  0.00  0.00    +0.039 C 
ATOM      2  C   UNL     1      -0.020  -0.449  -0.339  0.00  0.00    +0.133 C 
ATOM      3  C   UNL     1       0.910  -0.930  -1.459  0.00  0.00    +0.140 C 
ATOM      4  N   UNL     1       2.239  -0.336  -1.246  0.00  0.00    -0.280 N 
ATOM      5  C   UNL     1       2.848  -0.461   0.088  0.00  0.00    +0.140 C 
ATOM      6  C   UNL     1       1.823  -0.003   1.132  0.00  0.00    +0.133 C 
ATOM      7  O   UNL     1       0.594  -0.704   0.926  0.00  0.00    -0.371 OA
ATOM      8  C   UNL     1       2.354  -0.302   2.535  0.00  0.00    +0.039 C 
ATOM      9  C   UNL     1       2.881   0.305  -2.243  0.00  0.00    +0.307 C 
ATOM     10  O   UNL     1       2.404   0.320  -3.361  0.00  0.00    -0.252 OA
ATOM     11  N   UNL     1       4.051   0.929  -2.001  0.00  0.00    -0.267 N 
ATOM     12  H   UNL     1       4.465   0.861  -1.126  0.00  0.00    +0.156 HD
ENDROOT
BRANCH  11  13
ATOM     13  C   UNL     1       4.668   1.676  -3.012  0.00  0.00    +0.072 A 
ATOM     14  C   UNL     1       3.936   2.093  -4.114  0.00  0.00    +0.049 A 
ATOM     15  C   UNL     1       4.551   2.833  -5.113  0.00  0.00    +0.035 A 
ATOM     16  C   UNL     1       5.898   3.156  -5.008  0.00  0.00    +0.026 A 
ATOM     17  C   UNL     1       6.626   2.740  -3.910  0.00  0.00    +0.042 A 
ATOM     18  C   UNL     1       6.015   2.006  -2.909  0.00  0.00    +0.145 A 
ATOM     19  F   UNL     1       6.729   1.606  -1.834  0.00  0.00    -0.204 F 
BRANCH  15  20
ATOM     20  N   UNL     1       3.814   3.254  -6.227  0.00  0.00    -0.286 N 
ATOM     21  C   UNL     1       4.074   4.449  -6.794  0.00  0.00    +0.214 C 
ATOM     22  O   UNL     1       5.001   5.121  -6.395  0.00  0.00    -0.276 OA
ATOM     23  C   UNL     1       3.212   4.950  -7.923  0.00  0.00    +0.109 C 
ATOM     24  H   UNL     1       3.117   2.686  -6.590  0.00  0.00    +0.155 HD
ENDBRANCH  15  20
ENDBRANCH  11  13
TORSDOF 2
