REMARK  Name = ZINC36219754
REMARK  8 active torsions:
REMARK  status: ('A' for Active; 'I' for Inactive)
REMARK    1  A    between atoms: C_1  and  C_2
REMARK    2  A    between atoms: C_5  and  C_8
REMARK    3  A    between atoms: C_8  and  N_9
REMARK    4  A    between atoms: C_10  and  C_33
REMARK    5  A    between atoms: C_12  and  C_17
REMARK    6  A    between atoms: C_20  and  N_23
REMARK    7  A    between atoms: C_24  and  C_26
REMARK    8  A    between atoms: C_38  and  C_41
REMARK                            x       y       z     vdW  Elec       q    Type
REMARK                         _______ _______ _______ _____ _____    ______ ____
ROOT
ATOM      1  N   UNL     1       1.487  -4.834   0.148  0.00  0.00    -0.248 N 
ATOM      2  C   UNL     1       2.202  -5.150  -1.104  0.00  0.00    +0.211 C 
ATOM      3  C   UNL     1       3.682  -5.093  -0.660  0.00  0.00    +0.238 C 
ATOM      4  O   UNL     1       3.581  -5.352   0.754  0.00  0.00    -0.440 OA
ATOM      5  C   UNL     1       2.365  -4.952   1.162  0.00  0.00    +0.405 C 
ATOM      6  O   UNL     1       2.086  -4.724   2.323  0.00  0.00    -0.226 OA
ENDROOT
BRANCH   2   7
ATOM      7  C   UNL     1       1.837  -6.527  -1.597  0.00  0.00    +0.240 C 
ATOM      8  O   UNL     1       1.336  -7.330  -0.839  0.00  0.00    -0.273 OA
ATOM      9  N   UNL     1       2.070  -6.867  -2.880  0.00  0.00    -0.300 N 
ATOM     10  C   UNL     1       2.682  -5.908  -3.809  0.00  0.00    +0.108 C 
ATOM     11  C   UNL     1       1.788  -5.780  -5.047  0.00  0.00    +0.022 C 
ATOM     12  C   UNL     1       1.549  -7.168  -5.644  0.00  0.00    -0.011 C 
ATOM     13  C   UNL     1       0.832  -8.050  -4.619  0.00  0.00    +0.022 C 
ATOM     14  C   UNL     1       1.720  -8.205  -3.375  0.00  0.00    +0.108 C 
ATOM     15  C   UNL     1       0.684  -7.041  -6.900  0.00  0.00    +0.007 C 
ENDBRANCH   2   7
BRANCH   3  16
ATOM     16  C   UNL     1       4.492  -6.162  -1.347  0.00  0.00    -0.005 A 
ATOM     17  C   UNL     1       4.452  -7.464  -0.881  0.00  0.00    +0.009 A 
ATOM     18  C   UNL     1       5.193  -8.447  -1.508  0.00  0.00    +0.024 A 
ATOM     19  C   UNL     1       5.979  -8.126  -2.607  0.00  0.00    +0.034 A 
ATOM     20  C   UNL     1       6.017  -6.818  -3.072  0.00  0.00    +0.024 A 
ATOM     21  C   UNL     1       5.270  -5.841  -2.444  0.00  0.00    +0.009 A 
BRANCH  19  22
ATOM     22  N   UNL     1       6.731  -9.118  -3.244  0.00  0.00    -0.281 N 
ATOM     23  C   UNL     1       7.922  -8.811  -3.796  0.00  0.00    +0.251 C 
ATOM     24  O   UNL     1       8.387  -7.696  -3.657  0.00  0.00    -0.270 OA
ATOM     25  H   UNL     1       6.396 -10.027  -3.289  0.00  0.00    +0.155 HD
BRANCH  23  26
ATOM     26  C   UNL     1       8.662  -9.829  -4.569  0.00  0.00    +0.072 A 
ATOM     27  C   UNL     1       8.129 -11.109  -4.735  0.00  0.00    +0.016 A 
ATOM     28  C   UNL     1       8.825 -12.054  -5.458  0.00  0.00    +0.001 A 
ATOM     29  C   UNL     1      10.050 -11.739  -6.019  0.00  0.00    +0.003 A 
ATOM     30  C   UNL     1      10.587 -10.475  -5.860  0.00  0.00    +0.039 A 
ATOM     31  C   UNL     1       9.898  -9.514  -5.143  0.00  0.00    +0.135 A 
ATOM     32  F   UNL     1      10.419  -8.277  -4.992  0.00  0.00    -0.205 F 
ENDBRANCH  23  26
ENDBRANCH  19  22
ENDBRANCH   3  16
BRANCH   1  33
ATOM     33  C   UNL     1       0.077  -4.455   0.266  0.00  0.00    +0.147 C 
BRANCH  33  38
ATOM     34  C   UNL     1      -0.416   1.288  -0.148  0.00  0.00    +0.044 C 
ATOM     35  C   UNL     1      -0.287  -0.209  -0.040  0.00  0.00    -0.050 A 
ATOM     36  C   UNL     1      -0.352  -0.993  -1.177  0.00  0.00    +0.003 A 
ATOM     37  C   UNL     1      -0.234  -2.366  -1.078  0.00  0.00    +0.005 A 
ATOM     38  C   UNL     1      -0.051  -2.957   0.158  0.00  0.00    -0.030 A 
ATOM     39  C   UNL     1       0.016  -2.174   1.295  0.00  0.00    +0.005 A 
ATOM     40  C   UNL     1      -0.098  -0.799   1.195  0.00  0.00    +0.003 A 
ENDBRANCH  33  38
ENDBRANCH   1  33
TORSDOF 6
