REMARK  Name = ZINC02693056
REMARK  4 active torsions:
REMARK  status: ('A' for Active; 'I' for Inactive)
REMARK    1  A    between atoms: C_4  and  N_7
REMARK    2  A    between atoms: N_10  and  C_13
REMARK    3  A    between atoms: C_21  and  S_22
REMARK    4  A    between atoms: S_22  and  C_25
REMARK                            x       y       z     vdW  Elec       q    Type
REMARK                         _______ _______ _______ _____ _____    ______ ____
ROOT
ATOM      1  C   UNL     1      -2.287  -2.815   0.732  0.00  0.00    +0.066 A 
ATOM      2  C   UNL     1      -1.111  -2.086   0.438  0.00  0.00    +0.025 A 
ATOM      3  C   UNL     1      -1.082  -0.686   0.518  0.00  0.00    +0.061 A 
ATOM      4  C   UNL     1       0.071  -0.011   0.227  0.00  0.00    +0.163 A 
ATOM      5  C   UNL     1       1.228  -0.708  -0.151  0.00  0.00    +0.164 A 
ATOM      6  C   UNL     1       1.224  -2.072  -0.238  0.00  0.00    +0.075 A 
ATOM      7  C   UNL     1       0.054  -2.792   0.054  0.00  0.00    +0.052 A 
ATOM      8  C   UNL     1      -1.055  -4.815   0.248  0.00  0.00    +0.112 A 
ATOM      9  C   UNL     1      -2.237  -4.196   0.630  0.00  0.00    +0.131 A 
ATOM     10  O   UNL     1       2.378  -0.035  -0.433  0.00  0.00    -0.485 OA
ATOM     11  C   UNL     1       2.257   1.365  -0.702  0.00  0.00    +0.270 C 
ATOM     12  C   UNL     1       1.356   1.985   0.375  0.00  0.00    +0.270 C 
ATOM     13  O   UNL     1       0.075   1.348   0.309  0.00  0.00    -0.485 OA
ATOM     14  N   UNL     1       0.097  -4.167  -0.045  0.00  0.00    -0.359 N 
ATOM     15  H   UNL     1       0.948  -4.668  -0.324  0.00  0.00    +0.165 HD
ENDROOT
BRANCH   1  19
ATOM     16  N   UNL     1      -5.072   0.098   1.708  0.00  0.00    -0.327 N 
ATOM     17  C   UNL     1      -4.584  -0.779   2.782  0.00  0.00    +0.124 C 
ATOM     18  C   UNL     1      -3.257  -1.412   2.356  0.00  0.00    +0.124 C 
ATOM     19  N   UNL     1      -3.454  -2.167   1.111  0.00  0.00    -0.325 N 
ATOM     20  C   UNL     1      -3.942  -1.290   0.038  0.00  0.00    +0.124 C 
ATOM     21  C   UNL     1      -5.269  -0.657   0.463  0.00  0.00    +0.124 C 
BRANCH  16  25
ATOM     22  C   UNL     1      -8.575   2.040   2.845  0.00  0.00    +0.000 A 
ATOM     23  C   UNL     1      -8.033   2.271   1.594  0.00  0.00    +0.002 A 
ATOM     24  C   UNL     1      -6.871   1.628   1.214  0.00  0.00    +0.023 A 
ATOM     25  C   UNL     1      -6.247   0.750   2.090  0.00  0.00    +0.030 A 
ATOM     26  C   UNL     1      -6.796   0.517   3.344  0.00  0.00    +0.023 A 
ATOM     27  C   UNL     1      -7.956   1.167   3.720  0.00  0.00    +0.002 A 
ENDBRANCH  16  25
ENDBRANCH   1  19
BRANCH   9  28
ATOM     28  S   UNL     1      -3.667  -5.162   0.985  0.00  0.00    +0.028 S 
ATOM     29  O   UNL     1      -4.742  -4.575   0.265  0.00  0.00    -0.164 OA
ATOM     30  O   UNL     1      -3.290  -6.522   0.818  0.00  0.00    -0.164 OA
BRANCH  28  31
ATOM     31  C   UNL     1      -4.030  -4.947   2.696  0.00  0.00    +0.094 A 
ATOM     32  C   UNL     1      -3.479  -5.802   3.632  0.00  0.00    +0.027 A 
ATOM     33  C   UNL     1      -3.760  -5.630   4.975  0.00  0.00    +0.002 A 
ATOM     34  C   UNL     1      -4.600  -4.610   5.380  0.00  0.00    +0.000 A 
ATOM     35  C   UNL     1      -5.155  -3.759   4.443  0.00  0.00    +0.002 A 
ATOM     36  C   UNL     1      -4.870  -3.927   3.101  0.00  0.00    +0.027 A 
ENDBRANCH  28  31
ENDBRANCH   9  28
TORSDOF 4
