REMARK  Name = ZINC08752794
REMARK  6 active torsions:
REMARK  status: ('A' for Active; 'I' for Inactive)
REMARK    1  A    between atoms: C_1  and  C_2
REMARK    2  A    between atoms: C_13  and  N_14
REMARK    3  A    between atoms: N_15  and  C_16
REMARK    4  A    between atoms: C_16  and  C_18
REMARK    5  A    between atoms: C_23  and  N_24
REMARK    6  A    between atoms: C_25  and  C_27
REMARK                            x       y       z     vdW  Elec       q    Type
REMARK                         _______ _______ _______ _____ _____    ______ ____
ROOT
ATOM      1  C   UNL     1       0.246  -5.944   3.570  0.00  0.00    +0.272 C 
ATOM      2  O   UNL     1       0.397  -6.542   2.519  0.00  0.00    -0.268 OA
ENDROOT
BRANCH   1  16
ATOM      3  C   UNL     1      -2.791   1.445   1.231  0.00  0.00    +0.066 C 
ATOM      4  C   UNL     1      -2.795  -0.061   1.299  0.00  0.00    +0.051 A 
ATOM      5  C   UNL     1      -3.786  -0.809   0.638  0.00  0.00    +0.022 A 
ATOM      6  C   UNL     1      -4.806  -0.200  -0.107  0.00  0.00    +0.012 A 
ATOM      7  C   UNL     1      -5.739  -0.975  -0.727  0.00  0.00    +0.001 A 
ATOM      8  C   UNL     1      -5.695  -2.364  -0.631  0.00  0.00    +0.002 A 
ATOM      9  C   UNL     1      -4.719  -2.989   0.084  0.00  0.00    +0.028 A 
ATOM     10  C   UNL     1      -3.740  -2.224   0.736  0.00  0.00    +0.076 A 
ATOM     11  N   UNL     1      -2.759  -2.788   1.451  0.00  0.00    -0.212 NA
ATOM     12  C   UNL     1      -1.858  -2.035   2.049  0.00  0.00    +0.231 A 
ATOM     13  N   UNL     1      -1.867  -0.706   1.974  0.00  0.00    -0.217 NA
ATOM     14  N   UNL     1      -0.855  -2.654   2.782  0.00  0.00    -0.296 N 
ATOM     15  C   UNL     1      -0.816  -4.018   2.873  0.00  0.00    +0.215 C 
ATOM     16  N   UNL     1       0.141  -4.608   3.572  0.00  0.00    -0.141 NA
ATOM     17  H   UNL     1      -0.181  -2.119   3.230  0.00  0.00    +0.172 HD
BRANCH  15  18
ATOM     18  N   UNL     1      -1.763  -4.771   2.244  0.00  0.00    -0.269 NA
ATOM     19  H   UNL     1      -1.696  -5.738   2.248  0.00  0.00    +0.190 HD
ENDBRANCH  15  18
ENDBRANCH   1  16
BRANCH   1  20
ATOM     20  C   UNL     1       0.178  -6.693   4.843  0.00  0.00    +0.060 A 
ATOM     21  C   UNL     1       0.101  -6.009   6.056  0.00  0.00    +0.015 A 
ATOM     22  C   UNL     1       0.038  -6.712   7.240  0.00  0.00    +0.001 A 
ATOM     23  C   UNL     1       0.052  -8.098   7.232  0.00  0.00    +0.002 A 
ATOM     24  C   UNL     1       0.129  -8.788   6.039  0.00  0.00    +0.024 A 
ATOM     25  C   UNL     1       0.187  -8.095   4.837  0.00  0.00    +0.046 A 
BRANCH  25  26
ATOM     26  N   UNL     1       0.258  -8.790   3.632  0.00  0.00    -0.281 N 
ATOM     27  C   UNL     1      -0.389  -9.963   3.491  0.00  0.00    +0.248 C 
ATOM     28  O   UNL     1      -1.114 -10.368   4.379  0.00  0.00    -0.270 OA
ATOM     29  H   UNL     1       0.774  -8.429   2.894  0.00  0.00    +0.155 HD
BRANCH  27  30
ATOM     30  C   UNL     1      -0.217 -10.759   2.258  0.00  0.00    +0.037 A 
ATOM     31  C   UNL     1       0.620 -10.300   1.239  0.00  0.00    +0.013 A 
ATOM     32  C   UNL     1       0.776 -11.048   0.090  0.00  0.00    +0.001 A 
ATOM     33  C   UNL     1       0.105 -12.249  -0.054  0.00  0.00    +0.000 A 
ATOM     34  C   UNL     1      -0.726 -12.710   0.952  0.00  0.00    +0.001 A 
ATOM     35  C   UNL     1      -0.886 -11.975   2.109  0.00  0.00    +0.013 A 
ENDBRANCH  27  30
ENDBRANCH  25  26
ENDBRANCH   1  20
TORSDOF 5
