REMARK  Name = ZINC07664632
REMARK  10 active torsions:
REMARK  status: ('A' for Active; 'I' for Inactive)
REMARK    1  A    between atoms: C_1  and  C_2
REMARK    2  A    between atoms: C_5  and  C_33
REMARK    3  A    between atoms: C_6  and  N_8
REMARK    4  A    between atoms: C_9  and  C_11
REMARK    5  A    between atoms: C_11  and  C_13
REMARK    6  A    between atoms: C_11  and  N_58
REMARK    7  A    between atoms: C_19  and  C_21
REMARK    8  A    between atoms: C_19  and  C_22
REMARK    9  A    between atoms: C_19  and  N_58
REMARK   10  A    between atoms: C_25  and  N_28
REMARK                            x       y       z     vdW  Elec       q    Type
REMARK                         _______ _______ _______ _____ _____    ______ ____
ROOT
ATOM      1  C   UNL     1       1.871   2.122  -1.375  0.00  0.00    +0.048 C 
ENDROOT
BRANCH   1   2
ATOM      2  C   UNL     1       2.421   0.778  -1.778  0.00  0.00    -0.053 A 
ATOM      3  C   UNL     1       3.141   0.025  -0.870  0.00  0.00    +0.002 A 
ATOM      4  C   UNL     1       3.642  -1.210  -1.238  0.00  0.00    +0.000 A 
ATOM      5  C   UNL     1       3.431  -1.687  -2.519  0.00  0.00    +0.000 A 
ATOM      6  C   UNL     1       2.716  -0.931  -3.429  0.00  0.00    +0.000 A 
ATOM      7  C   UNL     1       2.212   0.302  -3.059  0.00  0.00    +0.002 A 
ENDBRANCH   1   2
BRANCH   1   9
ATOM      8  N   UNL     1       3.600   3.396  -2.602  0.00  0.00    -0.286 N 
ATOM      9  C   UNL     1       2.969   3.153  -1.436  0.00  0.00    +0.207 C 
ATOM     10  O   UNL     1       3.284   3.764  -0.437  0.00  0.00    -0.277 OA
ATOM     11  H   UNL     1       3.405   2.853  -3.382  0.00  0.00    +0.155 HD
BRANCH   8  17
ATOM     12  C   UNL     1       5.320   7.694  -0.946  0.00  0.00    +0.044 C 
ATOM     13  C   UNL     1       5.394   6.527  -1.897  0.00  0.00    -0.049 A 
ATOM     14  C   UNL     1       6.390   6.480  -2.856  0.00  0.00    +0.004 A 
ATOM     15  C   UNL     1       6.461   5.411  -3.730  0.00  0.00    +0.005 A 
ATOM     16  C   UNL     1       5.541   4.385  -3.645  0.00  0.00    -0.029 A 
ATOM     17  C   UNL     1       4.537   4.432  -2.687  0.00  0.00    +0.037 A 
ATOM     18  C   UNL     1       4.468   5.507  -1.810  0.00  0.00    +0.027 A 
ATOM     19  C   UNL     1       5.623   3.217  -4.594  0.00  0.00    +0.045 C 
ENDBRANCH   8  17
ENDBRANCH   1   9
BRANCH   1  20
ATOM     20  N   UNL     1       1.353   2.048   0.005  0.00  0.00    +0.394 N 
ATOM     21  H   UNL     1       1.376   2.984   0.425  0.00  0.00    -0.083 HD
ATOM     22  H   UNL     1       1.943   1.412   0.554  0.00  0.00    -0.083 HD
BRANCH  20  23
ATOM     23  C   UNL     1      -0.034   1.547   0.004  0.00  0.00    -0.043 C 
ATOM     24  C   UNL     1      -0.025   0.017  -0.007  0.00  0.00    -0.009 C 
BRANCH  23  25
ATOM     25  C   UNL     1      -0.736   2.036   1.245  0.00  0.00    -0.061 A 
ATOM     26  C   UNL     1      -0.065   2.059   2.454  0.00  0.00    +0.004 A 
ATOM     27  C   UNL     1      -0.704   2.511   3.592  0.00  0.00    +0.028 A 
ATOM     28  C   UNL     1      -2.026   2.932   3.523  0.00  0.00    +0.067 A 
ATOM     29  C   UNL     1      -2.698   2.903   2.309  0.00  0.00    +0.028 A 
ATOM     30  C   UNL     1      -2.052   2.455   1.174  0.00  0.00    +0.004 A 
BRANCH  28  31
ATOM     31  N   UNL     1      -2.679   3.387   4.678  0.00  0.00    -0.220 N 
ATOM     32  C   UNL     1      -2.162   3.468   5.919  0.00  0.00    +0.225 A 
ATOM     33  N   UNL     1      -3.088   3.942   6.713  0.00  0.00    -0.222 NA
ATOM     34  C   UNL     1      -4.205   4.167   6.021  0.00  0.00    +0.245 A 
ATOM     35  N   UNL     1      -4.004   3.842   4.771  0.00  0.00    -0.154 NA
ENDBRANCH  28  31
ENDBRANCH  23  25
ENDBRANCH  20  23
ENDBRANCH   1  20
TORSDOF 7
