REMARK  Name = ZINC66203567
REMARK  14 active torsions:
REMARK  status: ('A' for Active; 'I' for Inactive)
REMARK    1  A    between atoms: C_1  and  C_2
REMARK    2  A    between atoms: C_2  and  C_3
REMARK    3  A    between atoms: C_3  and  C_5
REMARK    4  A    between atoms: C_3  and  N_6
REMARK    5  A    between atoms: N_6  and  C_7
REMARK    6  A    between atoms: N_6  and  C_8
REMARK    7  A    between atoms: C_8  and  C_9
REMARK    8  A    between atoms: C_9  and  N_10
REMARK    9  A    between atoms: N_13  and  C_14
REMARK   10  A    between atoms: C_17  and  S_20
REMARK   11  A    between atoms: S_20  and  N_23
REMARK   12  A    between atoms: N_23  and  C_24
REMARK   13  A    between atoms: C_24  and  C_25
REMARK   14  A    between atoms: C_24  and  C_26
REMARK                            x       y       z     vdW  Elec       q    Type
REMARK                         _______ _______ _______ _____ _____    ______ ____
ROOT
ATOM      1  N   UNL     1       0.885  -0.896  -6.168  0.00  0.00    -0.301 N 
ATOM      2  C   UNL     1       0.517  -0.675  -7.445  0.00  0.00    +0.304 C 
ATOM      3  O   UNL     1      -0.479  -0.021  -7.686  0.00  0.00    -0.253 OA
ATOM      4  N   UNL     1       1.253  -1.178  -8.456  0.00  0.00    -0.269 N 
ATOM      5  H   UNL     1       1.680  -1.417  -5.976  0.00  0.00    +0.150 HD
ATOM      6  H   UNL     1       2.007  -1.758  -8.264  0.00  0.00    +0.156 HD
ENDROOT
BRANCH   4   7
ATOM      7  C   UNL     1       0.930  -0.866  -9.781  0.00  0.00    +0.035 A 
ATOM      8  C   UNL     1       1.125  -1.805 -10.785  0.00  0.00    +0.025 A 
ATOM      9  C   UNL     1       0.804  -1.493 -12.091  0.00  0.00    +0.030 A 
ATOM     10  C   UNL     1       0.289  -0.248 -12.400  0.00  0.00    +0.105 A 
ATOM     11  C   UNL     1       0.094   0.690 -11.403  0.00  0.00    +0.030 A 
ATOM     12  C   UNL     1       0.408   0.383 -10.094  0.00  0.00    +0.025 A 
BRANCH  10  13
ATOM     13  S   UNL     1      -0.119   0.146 -14.069  0.00  0.00    +0.059 S 
ATOM     14  O   UNL     1      -0.071   1.562 -14.175  0.00  0.00    -0.153 OA
ATOM     15  O   UNL     1       0.666  -0.707 -14.891  0.00  0.00    -0.153 OA
BRANCH  13  16
ATOM     16  N   UNL     1      -1.698  -0.294 -14.303  0.00  0.00    -0.187 NA
ATOM     17  H   UNL     1      -1.916  -1.004 -14.927  0.00  0.00    +0.148 HD
BRANCH  16  18
ATOM     18  C   UNL     1      -2.765   0.390 -13.569  0.00  0.00    +0.070 C 
ATOM     19  C   UNL     1      -3.334   1.520 -14.430  0.00  0.00    +0.025 C 
ATOM     20  C   UNL     1      -3.877  -0.608 -13.239  0.00  0.00    +0.025 C 
ENDBRANCH  16  18
ENDBRANCH  13  16
ENDBRANCH  10  13
ENDBRANCH   4   7
BRANCH   1  21
ATOM     21  C   UNL     1       0.085  -0.348  -5.070  0.00  0.00    +0.087 C 
BRANCH  21  22
ATOM     22  C   UNL     1       0.716  -0.742  -3.733  0.00  0.00    -0.060 C 
BRANCH  22  23
ATOM     23  N   UNL     1      -0.086  -0.193  -2.632  0.00  0.00    +0.381 N 
ATOM     24  C   UNL     1      -0.038   1.274  -2.675  0.00  0.00    -0.096 C 
ATOM     25  H   UNL     1      -1.042  -0.501  -2.726  0.00  0.00    -0.082 HD
BRANCH  23  26
ATOM     26  C   UNL     1       0.455  -0.663  -1.349  0.00  0.00    -0.072 C 
ATOM     27  C   UNL     1       1.936  -0.292  -1.254  0.00  0.00    -0.013 C 
BRANCH  26  29
ATOM     28  C   UNL     1      -1.183  -2.547  -1.236  0.00  0.00    +0.002 C 
ATOM     29  C   UNL     1       0.303  -2.183  -1.258  0.00  0.00    -0.019 C 
ENDBRANCH  26  29
ENDBRANCH  23  26
ENDBRANCH  22  23
ENDBRANCH  21  22
ENDBRANCH   1  21
TORSDOF 9
