REMARK  Name = ZINC08666578
REMARK  4 active torsions:
REMARK  status: ('A' for Active; 'I' for Inactive)
REMARK    1  A    between atoms: C_16  and  C_18
REMARK    2  A    between atoms: C_18  and  C_20
REMARK    3  A    between atoms: N_27  and  C_30
REMARK    4  A    between atoms: C_30  and  C_31
REMARK                            x       y       z     vdW  Elec       q    Type
REMARK                         _______ _______ _______ _____ _____    ______ ____
ROOT
ATOM      1  C   UNL     1      -0.017   1.378   0.010  0.00  0.00    +0.001 A 
ATOM      2  C   UNL     1       1.170   2.089   0.002  0.00  0.00    +0.000 A 
ATOM      3  C   UNL     1       2.387   1.429  -0.017  0.00  0.00    +0.006 A 
ATOM      4  C   UNL     1       2.419   0.051  -0.026  0.00  0.00    -0.021 A 
ATOM      5  C   UNL     1       1.222  -0.669  -0.012  0.00  0.00    -0.019 A 
ATOM      6  C   UNL     1       0.002  -0.004   0.002  0.00  0.00    +0.008 A 
ATOM      7  C   UNL     1       1.307  -2.146  -0.003  0.00  0.00    +0.022 C 
ATOM      8  C   UNL     1       2.453  -2.705  -0.367  0.00  0.00    +0.054 C 
ATOM      9  N   UNL     1       3.563  -1.986  -0.756  0.00  0.00    -0.384 NA
ATOM     10  C   UNL     1       3.727  -0.696  -0.059  0.00  0.00    +0.100 C 
ATOM     11  C   UNL     1       4.710   0.101  -0.947  0.00  0.00    +0.113 C 
ATOM     12  C   UNL     1       4.558  -0.519  -2.363  0.00  0.00    +0.116 C 
ATOM     13  C   UNL     1       3.506  -1.637  -2.194  0.00  0.00    +0.141 C 
ATOM     14  C   UNL     1       5.910  -1.148  -2.615  0.00  0.00    +0.228 C 
ATOM     15  O   UNL     1       6.229  -1.743  -3.622  0.00  0.00    -0.275 OA
ATOM     16  N   UNL     1       6.699  -0.945  -1.554  0.00  0.00    -0.237 N 
ATOM     17  C   UNL     1       6.127  -0.243  -0.548  0.00  0.00    +0.228 C 
ATOM     18  O   UNL     1       6.653   0.062   0.501  0.00  0.00    -0.275 OA
ATOM     19  H   UNL     1       4.389  -2.540  -0.588  0.00  0.00    +0.127 HD
ENDROOT
BRANCH  13  20
ATOM     20  C   UNL     1       3.866  -2.832  -3.039  0.00  0.00    +0.189 C 
ATOM     21  O   UNL     1       4.383  -3.804  -2.527  0.00  0.00    -0.290 OA
BRANCH  20  22
ATOM     22  C   UNL     1       3.605  -2.819  -4.427  0.00  0.00    +0.056 A 
ATOM     23  C   UNL     1       3.851  -3.808  -5.376  0.00  0.00    +0.019 A 
ATOM     24  C   UNL     1       3.483  -3.503  -6.661  0.00  0.00    +0.008 A 
ATOM     25  C   UNL     1       2.920  -2.294  -6.918  0.00  0.00    +0.046 A 
ATOM     26  S   UNL     1       2.865  -1.537  -5.420  0.00  0.00    -0.094 S 
ENDBRANCH  20  22
ENDBRANCH  13  20
BRANCH  16  27
ATOM     27  C   UNL     1       8.077  -1.436  -1.486  0.00  0.00    +0.151 C 
BRANCH  27  28
ATOM     28  C   UNL     1       9.011  -0.390  -2.038  0.00  0.00    -0.026 A 
ATOM     29  C   UNL     1       9.319  -0.383  -3.386  0.00  0.00    +0.009 A 
ATOM     30  C   UNL     1      10.175   0.575  -3.897  0.00  0.00    +0.050 A 
ATOM     31  C   UNL     1      10.727   1.530  -3.058  0.00  0.00    +0.166 A 
ATOM     32  C   UNL     1      10.417   1.522  -1.701  0.00  0.00    +0.167 A 
ATOM     33  C   UNL     1       9.554   0.563  -1.196  0.00  0.00    +0.054 A 
ATOM     34  O   UNL     1      11.080   2.551  -1.096  0.00  0.00    -0.453 OA
ATOM     35  C   UNL     1      12.115   2.937  -2.019  0.00  0.00    +0.466 C 
ATOM     36  O   UNL     1      11.584   2.564  -3.305  0.00  0.00    -0.453 OA
ENDBRANCH  27  28
ENDBRANCH  16  27
TORSDOF 4
