REMARK  Name = ZINC63480273
REMARK  6 active torsions:
REMARK  status: ('A' for Active; 'I' for Inactive)
REMARK    1  A    between atoms: C_6  and  C_11
REMARK    2  A    between atoms: C_11  and  C_12
REMARK    3  A    between atoms: C_12  and  N_13
REMARK    4  A    between atoms: C_14  and  C_16
REMARK    5  A    between atoms: C_16  and  O_17
REMARK    6  A    between atoms: O_17  and  C_18
REMARK                            x       y       z     vdW  Elec       q    Type
REMARK                         _______ _______ _______ _____ _____    ______ ____
ROOT
ATOM      1  N   UNL     1       5.000  -3.595  -1.503  0.00  0.00    -0.312 N 
ATOM      2  C   UNL     1       5.312  -4.189  -2.672  0.00  0.00    +0.251 C 
ATOM      3  O   UNL     1       5.184  -3.581  -3.714  0.00  0.00    -0.272 OA
ATOM      4  H   UNL     1       5.102  -4.081  -0.670  0.00  0.00    +0.149 HD
ENDROOT
BRANCH   1   5
ATOM      5  C   UNL     1       4.508  -2.215  -1.491  0.00  0.00    +0.108 C 
BRANCH   5   6
ATOM      6  C   UNL     1       4.231  -1.785  -0.049  0.00  0.00    +0.052 C 
BRANCH   6  12
ATOM      7  C   UNL     1      -0.017   1.399   0.010  0.00  0.00    +0.022 A 
ATOM      8  C   UNL     1       1.109   2.143   0.003  0.00  0.00    +0.027 A 
ATOM      9  C   UNL     1       2.385   1.516  -0.013  0.00  0.00    +0.043 A 
ATOM     10  N   UNL     1       3.600   2.009  -0.022  0.00  0.00    -0.380 N 
ATOM     11  C   UNL     1       4.557   0.897  -0.038  0.00  0.00    +0.144 C 
ATOM     12  C   UNL     1       3.724  -0.366  -0.036  0.00  0.00    -0.040 C 
ATOM     13  C   UNL     1       2.433   0.036  -0.021  0.00  0.00    +0.000 A 
ATOM     14  C   UNL     1       1.163  -0.699  -0.013  0.00  0.00    +0.030 A 
ATOM     15  C   UNL     1       0.002  -0.004   0.002  0.00  0.00    +0.042 A 
ATOM     16 CL   UNL     1      -1.502  -0.870   0.012  0.00  0.00    -0.084 Cl
ATOM     17  H   UNL     1       3.828   2.952  -0.020  0.00  0.00    +0.160 HD
ENDBRANCH   6  12
ENDBRANCH   5   6
ENDBRANCH   1   5
BRANCH   2  18
ATOM     18  C   UNL     1       5.819  -5.608  -2.685  0.00  0.00    +0.324 C 
BRANCH  18  19
ATOM     19  O   UNL     1       6.077  -6.010  -4.032  0.00  0.00    -0.481 OA
BRANCH  19  20
ATOM     20  C   UNL     1       6.542  -7.271  -4.220  0.00  0.00    +0.143 A 
ATOM     21  C   UNL     1       6.739  -8.101  -3.129  0.00  0.00    +0.094 A 
ATOM     22  C   UNL     1       7.214  -9.390  -3.320  0.00  0.00    +0.143 A 
ATOM     23  C   UNL     1       7.490  -9.838  -4.625  0.00  0.00    +0.023 A 
ATOM     24  C   UNL     1       7.287  -8.987  -5.717  0.00  0.00    +0.035 A 
ATOM     25  C   UNL     1       6.813  -7.722  -5.511  0.00  0.00    +0.083 A 
ATOM     26 CL   UNL     1       6.553  -6.668  -6.866  0.00  0.00    -0.080 Cl
ATOM     27  C   UNL     1       7.989 -11.202  -4.816  0.00  0.00    -0.027 A 
ATOM     28  C   UNL     1       8.163 -11.985  -3.722  0.00  0.00    +0.041 A 
ATOM     29  C   UNL     1       7.863 -11.468  -2.441  0.00  0.00    +0.341 A 
ATOM     30  O   UNL     1       8.017 -12.179  -1.464  0.00  0.00    -0.245 OA
ATOM     31  O   UNL     1       7.413 -10.216  -2.271  0.00  0.00    -0.422 OA
ATOM     32  C   UNL     1       8.680 -13.346  -4.136  0.00  0.00    +0.043 C 
ATOM     33  C   UNL     1       8.393 -13.443  -5.650  0.00  0.00    +0.010 C 
ATOM     34  C   UNL     1       8.371 -11.956  -6.068  0.00  0.00    +0.036 C 
ENDBRANCH  19  20
ENDBRANCH  18  19
ENDBRANCH   2  18
TORSDOF 6
