REMARK  Name = ZINC39884118
REMARK  6 active torsions:
REMARK  status: ('A' for Active; 'I' for Inactive)
REMARK    1  A    between atoms: C_1  and  C_2
REMARK    2  A    between atoms: C_5  and  N_8
REMARK    3  A    between atoms: C_9  and  C_11
REMARK    4  A    between atoms: C_11  and  N_12
REMARK    5  A    between atoms: C_18  and  C_30
REMARK    6  A    between atoms: C_33  and  O_36
REMARK                            x       y       z     vdW  Elec       q    Type
REMARK                         _______ _______ _______ _____ _____    ______ ____
ROOT
ATOM      1  N   UNL     1       0.420  -6.845   2.495  0.00  0.00    -0.288 N 
ATOM      2  C   UNL     1       1.654  -6.967   3.086  0.00  0.00    +0.091 A 
ATOM      3  C   UNL     1       1.647  -7.420   4.354  0.00  0.00    +0.033 A 
ATOM      4  S   UNL     1      -0.083  -7.686   4.668  0.00  0.00    -0.030 S 
ATOM      5  C   UNL     1      -0.688  -7.176   3.184  0.00  0.00    +0.292 A 
ATOM      6  O   UNL     1      -1.850  -7.121   2.820  0.00  0.00    -0.259 OA
ATOM      7  C   UNL     1       2.774  -7.624   5.288  0.00  0.00    +0.072 C 
ATOM      8  C   UNL     1       4.167  -7.690   4.669  0.00  0.00    +0.112 C 
ATOM      9  C   UNL     1       4.390  -6.643   3.570  0.00  0.00    +0.153 C 
ATOM     10  S   UNL     1       3.191  -6.601   2.276  0.00  0.00    -0.093 S 
ATOM     11  C   UNL     1       4.533  -5.365   4.338  0.00  0.00    +0.253 C 
ATOM     12  O   UNL     1       4.262  -4.127   3.900  0.00  0.00    -0.272 OA
ATOM     13  N   UNL     1       4.978  -5.704   5.529  0.00  0.00    -0.145 NA
ATOM     14  C   UNL     1       5.066  -7.054   5.756  0.00  0.00    +0.245 C 
ATOM     15  O   UNL     1       5.707  -7.636   6.606  0.00  0.00    -0.273 OA
ENDROOT
BRANCH   7  16
ATOM     16  C   UNL     1       2.534  -8.911   6.035  0.00  0.00    -0.038 A 
ATOM     17  C   UNL     1       2.432 -10.102   5.342  0.00  0.00    +0.008 A 
ATOM     18  C   UNL     1       2.212 -11.283   6.024  0.00  0.00    +0.045 A 
ATOM     19  C   UNL     1       2.093 -11.273   7.406  0.00  0.00    +0.117 A 
ATOM     20  C   UNL     1       2.196 -10.075   8.100  0.00  0.00    +0.045 A 
ATOM     21  C   UNL     1       2.422  -8.898   7.413  0.00  0.00    +0.008 A 
BRANCH  19  22
ATOM     22  O   UNL     1       1.876 -12.433   8.080  0.00  0.00    -0.507 OA
ATOM     23  H   UNL     1       2.685 -12.888   8.351  0.00  0.00    +0.292 HD
ENDBRANCH  19  22
ENDBRANCH   7  16
BRANCH   1  24
ATOM     24  C   UNL     1       0.309  -6.349   1.121  0.00  0.00    +0.222 C 
BRANCH  24  26
ATOM     25  N   UNL     1       0.059  -4.170  -0.021  0.00  0.00    -0.284 N 
ATOM     26  C   UNL     1       0.175  -4.848   1.138  0.00  0.00    +0.237 C 
ATOM     27  O   UNL     1       0.173  -4.251   2.193  0.00  0.00    -0.274 OA
ATOM     28  H   UNL     1      -0.017  -4.651  -0.860  0.00  0.00    +0.155 HD
BRANCH  25  33
ATOM     29  C   UNL     1       0.008   1.503   0.007  0.00  0.00    +0.044 C 
ATOM     30  C   UNL     1       0.022  -0.004  -0.001  0.00  0.00    -0.050 A 
ATOM     31  C   UNL     1       0.777  -0.692   0.931  0.00  0.00    +0.005 A 
ATOM     32  C   UNL     1       0.791  -2.073   0.927  0.00  0.00    +0.023 A 
ATOM     33  C   UNL     1       0.046  -2.771  -0.014  0.00  0.00    +0.033 A 
ATOM     34  C   UNL     1      -0.712  -2.077  -0.948  0.00  0.00    +0.023 A 
ATOM     35  C   UNL     1      -0.726  -0.696  -0.936  0.00  0.00    +0.005 A 
ENDBRANCH  25  33
ENDBRANCH  24  26
ENDBRANCH   1  24
TORSDOF 5
