REMARK  Name = ZINC39632551
REMARK  6 active torsions:
REMARK  status: ('A' for Active; 'I' for Inactive)
REMARK    1  A    between atoms: C_1  and  C_2
REMARK    2  A    between atoms: C_2  and  N_3
REMARK    3  A    between atoms: C_4  and  C_10
REMARK    4  A    between atoms: C_6  and  C_8
REMARK    5  A    between atoms: C_14  and  C_23
REMARK    6  A    between atoms: N_25  and  C_26
REMARK                            x       y       z     vdW  Elec       q    Type
REMARK                         _______ _______ _______ _____ _____    ______ ____
ROOT
ATOM      1  C   UNL     1      -1.786  -0.489   2.713  0.00  0.00    +0.266 C 
ATOM      2  O   UNL     1      -2.574  -0.823   3.578  0.00  0.00    -0.268 OA
ATOM      3  N   UNL     1      -0.618   0.090   3.052  0.00  0.00    -0.295 N 
ATOM      4  C   UNL     1       0.501   0.471   2.158  0.00  0.00    +0.121 C 
ATOM      5  C   UNL     1       0.999   1.825   2.711  0.00  0.00    +0.100 C 
ATOM      6  C   UNL     1       0.563   1.831   4.186  0.00  0.00    -0.004 C 
ATOM      7  C   UNL     1      -0.164   0.496   4.404  0.00  0.00    +0.115 C 
ATOM      8  C   UNL     1      -0.390   2.993   4.450  0.00  0.00    -0.010 C 
ATOM      9  C   UNL     1      -0.764   3.012   5.935  0.00  0.00    -0.082 C 
ATOM     10  N   UNL     1       0.451   3.155   6.746  0.00  0.00    +0.379 N 
ATOM     11  C   UNL     1       1.321   1.987   6.556  0.00  0.00    -0.082 C 
ATOM     12  C   UNL     1       1.783   1.925   5.097  0.00  0.00    -0.010 C 
ATOM     13  H   UNL     1       0.945   3.989   6.466  0.00  0.00    -0.086 HD
ATOM     14  H   UNL     1       0.198   3.228   7.720  0.00  0.00    -0.086 HD
ENDROOT
BRANCH   1  16
ATOM     15  N   UNL     1      -2.603   0.197   0.409  0.00  0.00    -0.258 N 
ATOM     16  C   UNL     1      -2.109  -0.718   1.296  0.00  0.00    +0.138 A 
ATOM     17  C   UNL     1      -1.974  -1.904   0.593  0.00  0.00    +0.071 A 
ATOM     18  C   UNL     1      -2.407  -1.616  -0.704  0.00  0.00    +0.075 A 
ATOM     19  N   UNL     1      -2.767  -0.358  -0.737  0.00  0.00    -0.175 NA
ATOM     20  C   UNL     1      -2.455  -2.583  -1.859  0.00  0.00    +0.069 C 
ATOM     21 BR   UNL     1      -1.339  -3.560   1.249  0.00  0.00    -0.046 Br
BRANCH  15  23
ATOM     22  C   UNL     1      -4.312   1.696   1.310  0.00  0.00    +0.029 C 
ATOM     23  C   UNL     1      -2.904   1.597   0.720  0.00  0.00    +0.141 C 
ENDBRANCH  15  23
ENDBRANCH   1  16
BRANCH   5  24
ATOM     24  C   UNL     1       2.499   1.916   2.604  0.00  0.00    +0.218 C 
ATOM     25  O   UNL     1       3.168   0.904   2.592  0.00  0.00    -0.275 OA
ATOM     26  N   UNL     1       3.098   3.121   2.523  0.00  0.00    -0.312 N 
ATOM     27  H   UNL     1       2.571   3.931   2.609  0.00  0.00    +0.149 HD
BRANCH  26  28
ATOM     28  C   UNL     1       4.544   3.207   2.303  0.00  0.00    +0.073 C 
ATOM     29  C   UNL     1       5.286   3.172   3.655  0.00  0.00    +0.022 C 
ATOM     30  C   UNL     1       6.471   4.152   3.462  0.00  0.00    +0.002 C 
ATOM     31  C   UNL     1       5.842   5.286   2.614  0.00  0.00    +0.002 C 
ATOM     32  C   UNL     1       4.897   4.551   1.641  0.00  0.00    +0.022 C 
ENDBRANCH  26  28
ENDBRANCH   5  24
TORSDOF 4
