REMARK  Name = ZINC64219887
REMARK  15 active torsions:
REMARK  status: ('A' for Active; 'I' for Inactive)
REMARK    1  A    between atoms: C_1  and  C_2
REMARK    2  A    between atoms: C_2  and  C_3
REMARK    3  A    between atoms: C_4  and  C_5
REMARK    4  A    between atoms: C_5  and  C_6
REMARK    5  A    between atoms: C_7  and  C_8
REMARK    6  A    between atoms: C_8  and  C_9
REMARK    7  A    between atoms: C_10  and  C_11
REMARK    8  A    between atoms: C_11  and  C_12
REMARK    9  A    between atoms: C_13  and  C_14
REMARK   10  A    between atoms: C_14  and  C_15
REMARK   11  A    between atoms: C_16  and  C_17
REMARK   12  A    between atoms: C_17  and  C_18
REMARK   13  A    between atoms: C_19  and  C_20
REMARK   14  A    between atoms: C_20  and  C_21
REMARK   15  A    between atoms: C_21  and  C_22
REMARK                            x       y       z     vdW  Elec       q    Type
REMARK                         _______ _______ _______ _____ _____    ______ ____
ROOT
ATOM      1  C   UNL     1      -2.732  -2.198  -8.573  0.00  0.00    -0.027 C 
ATOM      2  C   UNL     1      -3.771  -2.377  -9.351  0.00  0.00    -0.027 C 
ENDROOT
BRANCH   1   3
ATOM      3  C   UNL     1      -2.549  -3.060  -7.351  0.00  0.00    +0.053 C 
BRANCH   3   5
ATOM      4  C   UNL     1      -0.380  -3.562  -6.348  0.00  0.00    -0.027 C 
ATOM      5  C   UNL     1      -1.179  -3.687  -7.379  0.00  0.00    -0.027 C 
BRANCH   4   6
ATOM      6  C   UNL     1      -0.889  -2.944  -5.071  0.00  0.00    +0.053 C 
BRANCH   6   8
ATOM      7  C   UNL     1       0.036  -3.431  -2.865  0.00  0.00    -0.027 C 
ATOM      8  C   UNL     1      -0.608  -3.871  -3.917  0.00  0.00    -0.027 C 
BRANCH   7   9
ATOM      9  C   UNL     1       0.355  -1.964  -2.736  0.00  0.00    +0.053 C 
BRANCH   9  11
ATOM     10  C   UNL     1       0.698  -0.832  -0.600  0.00  0.00    -0.031 C 
ATOM     11  C   UNL     1      -0.128  -1.461  -1.400  0.00  0.00    -0.027 C 
BRANCH  10  13
ATOM     12  C   UNL     1       2.330   1.020  -0.833  0.00  0.00    +0.008 C 
ATOM     13  C   UNL     1       2.080  -0.470  -1.077  0.00  0.00    +0.023 C 
ENDBRANCH  10  13
ENDBRANCH   9  11
ENDBRANCH   7   9
ENDBRANCH   6   8
ENDBRANCH   4   6
ENDBRANCH   3   5
ENDBRANCH   1   3
BRANCH   2  14
ATOM     14  C   UNL     1      -4.863  -3.331  -8.943  0.00  0.00    +0.053 C 
BRANCH  14  15
ATOM     15  C   UNL     1      -6.196  -2.632  -9.018  0.00  0.00    -0.027 C 
ATOM     16  C   UNL     1      -7.155  -3.128  -9.760  0.00  0.00    -0.027 C 
BRANCH  16  17
ATOM     17  C   UNL     1      -6.874  -4.292 -10.675  0.00  0.00    +0.053 C 
BRANCH  17  18
ATOM     18  C   UNL     1      -7.746  -5.458 -10.286  0.00  0.00    -0.027 C 
ATOM     19  C   UNL     1      -8.523  -6.021 -11.178  0.00  0.00    -0.030 C 
BRANCH  19  20
ATOM     20  C   UNL     1      -9.395  -7.187 -10.789  0.00  0.00    +0.038 C 
BRANCH  20  21
ATOM     21  C   UNL     1     -10.851  -6.877 -11.145  0.00  0.00    +0.129 C 
BRANCH  21  22
ATOM     22  C   UNL     1     -11.722  -8.043 -10.756  0.00  0.00    +0.356 C 
ATOM     23  O   UNL     1     -11.226  -9.031 -10.242  0.00  0.00    -0.246 OA
ATOM     24  O   UNL     1     -12.925  -7.998 -10.955  0.00  0.00    -0.246 OA
ENDBRANCH  21  22
ENDBRANCH  20  21
ENDBRANCH  19  20
ENDBRANCH  17  18
ENDBRANCH  16  17
ENDBRANCH  14  15
ENDBRANCH   2  14
TORSDOF 14
