REMARK  Name = ZINC11995610
REMARK  6 active torsions:
REMARK  status: ('A' for Active; 'I' for Inactive)
REMARK    1  A    between atoms: C_1  and  C_2
REMARK    2  A    between atoms: C_4  and  C_30
REMARK    3  A    between atoms: C_6  and  N_8
REMARK    4  A    between atoms: C_9  and  C_11
REMARK    5  A    between atoms: C_19  and  C_20
REMARK    6  A    between atoms: C_19  and  N_57
REMARK                            x       y       z     vdW  Elec       q    Type
REMARK                         _______ _______ _______ _____ _____    ______ ____
ROOT
ATOM      1  C   UNL     1      -6.266   2.535   3.135  0.00  0.00    +0.082 C 
ATOM      2  C   UNL     1      -5.646   1.875   4.369  0.00  0.00    +0.020 C 
ATOM      3  C   UNL     1      -5.019   1.666   2.992  0.00  0.00    -0.021 C 
ATOM      4  C   UNL     1      -5.178   0.291   2.335  0.00  0.00    -0.011 C 
ATOM      5  C   UNL     1      -4.866   0.424   0.840  0.00  0.00    -0.078 C 
ATOM      6  C   UNL     1      -3.465   2.377   1.182  0.00  0.00    -0.078 C 
ATOM      7  C   UNL     1      -3.689   2.367   2.698  0.00  0.00    -0.011 C 
ATOM      8  N   UNL     1      -3.506   0.985   0.684  0.00  0.00    +0.382 N 
ATOM      9  H   UNL     1      -2.848   0.417   1.232  0.00  0.00    -0.081 HD
ENDROOT
BRANCH   1  11
ATOM     10  N   UNL     1      -6.244   4.601   1.774  0.00  0.00    -0.285 N 
ATOM     11  C   UNL     1      -6.098   4.025   2.984  0.00  0.00    +0.221 C 
ATOM     12  O   UNL     1      -5.829   4.706   3.951  0.00  0.00    -0.275 OA
ATOM     13  H   UNL     1      -6.386   4.050   0.988  0.00  0.00    +0.155 HD
BRANCH  10  19
ATOM     14  C   UNL     1      -5.038   8.575  -0.857  0.00  0.00    +0.044 C 
ATOM     15  C   UNL     1      -5.612   7.947   0.387  0.00  0.00    -0.048 A 
ATOM     16  C   UNL     1      -6.089   8.748   1.408  0.00  0.00    +0.006 A 
ATOM     17  C   UNL     1      -6.617   8.175   2.550  0.00  0.00    -0.048 A 
ATOM     18  C   UNL     1      -6.670   6.801   2.675  0.00  0.00    +0.026 A 
ATOM     19  C   UNL     1      -6.192   5.994   1.651  0.00  0.00    +0.034 A 
ATOM     20  C   UNL     1      -5.657   6.572   0.507  0.00  0.00    +0.026 A 
ATOM     21  C   UNL     1      -7.136   9.052   3.661  0.00  0.00    +0.044 C 
ENDBRANCH  10  19
ENDBRANCH   1  11
BRANCH   8  22
ATOM     22  C   UNL     1      -3.105   0.946  -0.736  0.00  0.00    -0.041 C 
BRANCH  22  23
ATOM     23  C   UNL     1      -2.929  -0.493  -1.149  0.00  0.00    -0.042 A 
ATOM     24  C   UNL     1      -3.863  -1.094  -1.973  0.00  0.00    +0.052 A 
ATOM     25  C   UNL     1      -3.700  -2.414  -2.359  0.00  0.00    +0.167 A 
ATOM     26  C   UNL     1      -2.596  -3.136  -1.911  0.00  0.00    +0.168 A 
ATOM     27  C   UNL     1      -1.666  -2.530  -1.082  0.00  0.00    +0.069 A 
ATOM     28  C   UNL     1      -1.835  -1.211  -0.700  0.00  0.00    +0.046 A 
ATOM     29 CL   UNL     1      -0.669  -0.454   0.339  0.00  0.00    -0.083 Cl
ATOM     30  O   UNL     1      -2.663  -4.399  -2.425  0.00  0.00    -0.453 OA
ATOM     31  C   UNL     1      -4.026  -4.566  -2.857  0.00  0.00    +0.466 C 
ATOM     32  O   UNL     1      -4.458  -3.225  -3.153  0.00  0.00    -0.453 OA
ENDBRANCH  22  23
ENDBRANCH   8  22
TORSDOF 4
