REMARK  Name = ZINC05882731
REMARK  12 active torsions:
REMARK  status: ('A' for Active; 'I' for Inactive)
REMARK    1  A    between atoms: C_1  and  C_2
REMARK    2  A    between atoms: C_4  and  C_33
REMARK    3  A    between atoms: C_9  and  O_32
REMARK    4  A    between atoms: C_10  and  C_16
REMARK    5  A    between atoms: C_11  and  O_15
REMARK    6  A    between atoms: C_18  and  O_31
REMARK    7  A    between atoms: C_20  and  O_30
REMARK    8  A    between atoms: C_22  and  O_29
REMARK    9  A    between atoms: C_24  and  C_27
REMARK   10  A    between atoms: C_27  and  O_28
REMARK   11  A    between atoms: C_36  and  O_40
REMARK   12  A    between atoms: C_37  and  O_39
REMARK                            x       y       z     vdW  Elec       q    Type
REMARK                         _______ _______ _______ _____ _____    ______ ____
ROOT
ATOM      1  C   UNL     1       1.121  -6.832   3.023  0.00  0.00    +0.020 C 
ATOM      2  C   UNL     1      -0.335  -6.439   2.768  0.00  0.00    +0.102 C 
ATOM      3  C   UNL     1      -0.781  -6.949   1.389  0.00  0.00    +0.214 C 
ATOM      4  O   UNL     1       0.037  -6.358   0.380  0.00  0.00    -0.483 OA
ATOM      5  C   UNL     1       0.170  -5.011   0.358  0.00  0.00    +0.139 A 
ATOM      6  C   UNL     1       0.540  -4.372  -0.813  0.00  0.00    +0.092 A 
ATOM      7  C   UNL     1       0.690  -2.991  -0.838  0.00  0.00    +0.130 A 
ATOM      8  C   UNL     1       0.473  -2.233   0.306  0.00  0.00    +0.067 A 
ATOM      9  C   UNL     1       0.105  -2.852   1.488  0.00  0.00    +0.140 A 
ATOM     10  C   UNL     1      -0.058  -4.246   1.517  0.00  0.00    +0.101 A 
ATOM     11  C   UNL     1      -0.466  -4.926   2.751  0.00  0.00    +0.177 C 
ATOM     12  O   UNL     1      -0.887  -4.312   3.709  0.00  0.00    -0.291 OA
ENDROOT
BRANCH   8  13
ATOM     13  C   UNL     1       0.644  -0.737   0.262  0.00  0.00    +0.187 C 
ATOM     14  C   UNL     1       2.135  -0.394   0.233  0.00  0.00    +0.179 C 
ATOM     15  C   UNL     1       2.300   1.125   0.127  0.00  0.00    +0.177 C 
ATOM     16  C   UNL     1       1.566   1.621  -1.122  0.00  0.00    +0.176 C 
ATOM     17  C   UNL     1       0.096   1.201  -1.041  0.00  0.00    +0.175 C 
ATOM     18  O   UNL     1       0.015  -0.220  -0.913  0.00  0.00    -0.361 OA
BRANCH  16  19
ATOM     19  O   UNL     1       1.651   3.046  -1.192  0.00  0.00    -0.386 OA
ATOM     20  H   UNL     1       2.556   3.384  -1.246  0.00  0.00    +0.210 HD
ENDBRANCH  16  19
BRANCH  15  21
ATOM     21  O   UNL     1       1.745   1.748   1.287  0.00  0.00    -0.386 OA
ATOM     22  H   UNL     1       1.815   2.713   1.287  0.00  0.00    +0.210 HD
ENDBRANCH  15  21
BRANCH  14  23
ATOM     23  O   UNL     1       2.748  -1.022  -0.895  0.00  0.00    -0.386 OA
ATOM     24  H   UNL     1       3.696  -0.847  -0.976  0.00  0.00    +0.210 HD
ENDBRANCH  14  23
BRANCH  17  25
ATOM     25  C   UNL     1      -0.558   1.861   0.175  0.00  0.00    +0.190 C 
BRANCH  25  26
ATOM     26  O   UNL     1      -1.961   1.592   0.166  0.00  0.00    -0.392 OA
ATOM     27  H   UNL     1      -2.441   1.981   0.910  0.00  0.00    +0.210 HD
ENDBRANCH  25  26
ENDBRANCH  17  25
ENDBRANCH   8  13
BRANCH   3  28
ATOM     28  C   UNL     1      -2.221  -6.572   1.155  0.00  0.00    -0.003 A 
ATOM     29  C   UNL     1      -3.208  -7.074   1.982  0.00  0.00    +0.011 A 
ATOM     30  C   UNL     1      -4.530  -6.727   1.775  0.00  0.00    +0.049 A 
ATOM     31  C   UNL     1      -4.869  -5.883   0.730  0.00  0.00    +0.158 A 
ATOM     32  C   UNL     1      -3.876  -5.382  -0.106  0.00  0.00    +0.159 A 
ATOM     33  C   UNL     1      -2.552  -5.730   0.111  0.00  0.00    +0.056 A 
BRANCH  32  34
ATOM     34  O   UNL     1      -4.203  -4.553  -1.133  0.00  0.00    -0.503 OA
ATOM     35  H   UNL     1      -4.394  -5.011  -1.963  0.00  0.00    +0.292 HD
ENDBRANCH  32  34
BRANCH  31  36
ATOM     36  O   UNL     1      -6.170  -5.545   0.521  0.00  0.00    -0.503 OA
ATOM     37  H   UNL     1      -6.642  -6.146  -0.072  0.00  0.00    +0.292 HD
ENDBRANCH  31  36
ENDBRANCH   3  28
BRANCH   9  38
ATOM     38  O   UNL     1      -0.100  -2.117   2.609  0.00  0.00    -0.505 OA
ATOM     39  H   UNL     1      -1.011  -1.811   2.717  0.00  0.00    +0.292 HD
ENDBRANCH   9  38
BRANCH   7  40
ATOM     40  O   UNL     1       1.053  -2.377  -1.992  0.00  0.00    -0.506 OA
ATOM     41  H   UNL     1       2.009  -2.287  -2.106  0.00  0.00    +0.292 HD
ENDBRANCH   7  40
TORSDOF 11
