REMARK  Name = ZINC09081674
REMARK  11 active torsions:
REMARK  status: ('A' for Active; 'I' for Inactive)
REMARK    1  A    between atoms: C_1  and  C_2
REMARK    2  A    between atoms: C_7  and  C_8
REMARK    3  A    between atoms: C_8  and  S_9
REMARK    4  A    between atoms: S_9  and  N_12
REMARK    5  A    between atoms: N_12  and  C_13
REMARK    6  A    between atoms: C_13  and  C_14
REMARK    7  A    between atoms: C_14  and  C_16
REMARK    8  A    between atoms: C_14  and  S_21
REMARK    9  A    between atoms: S_21  and  C_24
REMARK   10  A    between atoms: C_27  and  C_31
REMARK   11  A    between atoms: C_28  and  C_30
REMARK                            x       y       z     vdW  Elec       q    Type
REMARK                         _______ _______ _______ _____ _____    ______ ____
ROOT
ATOM      1  C   UNL     1      -1.953   2.457   1.778  0.00  0.00    +0.217 C 
ENDROOT
BRANCH   1   2
ATOM      2  C   UNL     1      -0.863   3.255   2.445  0.00  0.00    +0.131 A 
ATOM      3  C   UNL     1      -0.100   2.839   3.472  0.00  0.00    +0.046 A 
ATOM      4  C   UNL     1       0.786   3.897   3.778  0.00  0.00    +0.041 A 
ATOM      5  C   UNL     1       0.512   4.896   2.921  0.00  0.00    +0.195 A 
ATOM      6  O   UNL     1      -0.484   4.499   2.111  0.00  0.00    -0.466 OA
ENDBRANCH   1   2
BRANCH   1   7
ATOM      7  S   UNL     1      -1.554   2.239   0.022  0.00  0.00    +0.008 S 
ATOM      8  O   UNL     1      -1.271   3.496  -0.576  0.00  0.00    -0.169 OA
ATOM      9  O   UNL     1      -2.477   1.341  -0.582  0.00  0.00    -0.169 OA
BRANCH   7  10
ATOM     10  C   UNL     1      -0.017   1.378   0.010  0.00  0.00    +0.089 A 
ATOM     11  C   UNL     1       0.002  -0.004   0.002  0.00  0.00    +0.027 A 
ATOM     12  C   UNL     1       1.208  -0.679  -0.013  0.00  0.00    +0.005 A 
ATOM     13  C   UNL     1       2.396   0.029  -0.022  0.00  0.00    -0.047 A 
ATOM     14  C   UNL     1       2.377   1.411  -0.015  0.00  0.00    -0.046 A 
ATOM     15  C   UNL     1       1.171   2.086   0.002  0.00  0.00    +0.030 A 
ATOM     16  C   UNL     1       3.672   2.182  -0.024  0.00  0.00    +0.044 C 
ATOM     17  C   UNL     1       3.711  -0.707  -0.039  0.00  0.00    +0.044 C 
ENDBRANCH   7  10
ENDBRANCH   1   7
BRANCH   1  18
ATOM     18  C   UNL     1      -3.283   3.200   1.910  0.00  0.00    +0.140 C 
BRANCH  18  19
ATOM     19  N   UNL     1      -4.343   2.425   1.262  0.00  0.00    -0.192 NA
ATOM     20  H   UNL     1      -4.114   1.701   0.658  0.00  0.00    +0.148 HD
BRANCH  19  21
ATOM     21  S   UNL     1      -5.932   2.784   1.559  0.00  0.00    +0.034 S 
ATOM     22  O   UNL     1      -6.667   1.834   0.798  0.00  0.00    -0.158 OA
ATOM     23  O   UNL     1      -6.038   2.814   2.976  0.00  0.00    -0.158 OA
BRANCH  21  24
ATOM     24  C   UNL     1      -6.170   4.448   0.878  0.00  0.00    +0.220 C 
BRANCH  24  31
ATOM     25  C   UNL     1      -6.900   5.856   3.293  0.00  0.00    +0.044 C 
ATOM     26  C   UNL     1      -7.946   5.555   2.251  0.00  0.00    -0.046 A 
ATOM     27  C   UNL     1      -9.255   5.952   2.450  0.00  0.00    +0.003 A 
ATOM     28  C   UNL     1     -10.214   5.676   1.494  0.00  0.00    +0.000 A 
ATOM     29  C   UNL     1      -9.865   5.002   0.338  0.00  0.00    +0.000 A 
ATOM     30  C   UNL     1      -8.555   4.609   0.137  0.00  0.00    +0.005 A 
ATOM     31  C   UNL     1      -7.597   4.881   1.095  0.00  0.00    -0.022 A 
ENDBRANCH  24  31
ENDBRANCH  21  24
ENDBRANCH  19  21
ENDBRANCH  18  19
ENDBRANCH   1  18
TORSDOF 8
