REMARK  Name = ZINC63138507
REMARK  10 active torsions:
REMARK  status: ('A' for Active; 'I' for Inactive)
REMARK    1  A    between atoms: C_1  and  O_2
REMARK    2  A    between atoms: O_2  and  C_3
REMARK    3  A    between atoms: C_5  and  C_13
REMARK    4  A    between atoms: C_7  and  O_11
REMARK    5  A    between atoms: C_8  and  O_9
REMARK    6  A    between atoms: O_9  and  C_10
REMARK    7  A    between atoms: O_11  and  C_12
REMARK    8  A    between atoms: N_32  and  C_35
REMARK    9  A    between atoms: C_35  and  C_36
REMARK   10  A    between atoms: C_36  and  C_37
REMARK                            x       y       z     vdW  Elec       q    Type
REMARK                         _______ _______ _______ _____ _____    ______ ____
ROOT
ATOM      1  C   UNL     1       2.402   0.386  -4.230  0.00  0.00    +0.134 C 
ATOM      2  C   UNL     1       3.901   0.560  -3.970  0.00  0.00    +0.131 C 
ATOM      3  C   UNL     1       4.497   1.172  -5.231  0.00  0.00    -0.034 C 
ATOM      4  C   UNL     1       5.116   2.284  -4.851  0.00  0.00    -0.001 A 
ATOM      5  C   UNL     1       5.930   3.255  -5.600  0.00  0.00    +0.010 A 
ATOM      6  C   UNL     1       6.412   4.308  -4.887  0.00  0.00    +0.001 A 
ATOM      7  C   UNL     1       6.169   4.488  -3.522  0.00  0.00    +0.002 A 
ATOM      8  C   UNL     1       5.437   3.642  -2.754  0.00  0.00    +0.026 A 
ATOM      9  C   UNL     1       4.881   2.494  -3.390  0.00  0.00    +0.043 A 
ATOM     10  N   UNL     1       4.161   1.510  -2.886  0.00  0.00    -0.375 N 
ATOM     11  C   UNL     1       4.280   0.574  -6.599  0.00  0.00    +0.065 C 
ATOM     12  C   UNL     1       2.765   0.339  -6.741  0.00  0.00    +0.167 C 
ATOM     13  N   UNL     1       2.247  -0.297  -5.534  0.00  0.00    -0.279 N 
ATOM     14  C   UNL     1       1.633  -1.486  -5.550  0.00  0.00    +0.234 C 
ATOM     15  O   UNL     1       1.256  -1.939  -4.491  0.00  0.00    -0.274 OA
ATOM     16  C   UNL     1       1.378  -2.292  -6.780  0.00  0.00    +0.203 C 
ATOM     17  N   UNL     1       1.869  -1.636  -7.980  0.00  0.00    -0.291 N 
ATOM     18  C   UNL     1       2.494  -0.459  -7.973  0.00  0.00    +0.237 C 
ATOM     19  O   UNL     1       2.861  -0.006  -9.036  0.00  0.00    -0.274 OA
ATOM     20  H   UNL     1       3.852   1.424  -1.971  0.00  0.00    +0.160 HD
ENDROOT
BRANCH   1  23
ATOM     21  C   UNL     1       1.970  -2.220  -1.528  0.00  0.00    +0.165 A 
ATOM     22  C   UNL     1       2.531  -1.447  -2.533  0.00  0.00    +0.055 A 
ATOM     23  C   UNL     1       1.787  -0.452  -3.139  0.00  0.00    -0.018 A 
ATOM     24  C   UNL     1       0.482  -0.224  -2.746  0.00  0.00    +0.055 A 
ATOM     25  C   UNL     1      -0.087  -0.992  -1.742  0.00  0.00    +0.165 A 
ATOM     26  C   UNL     1       0.656  -1.998  -1.134  0.00  0.00    +0.204 A 
BRANCH  21  28
ATOM     27  C   UNL     1       4.046  -3.372  -1.387  0.00  0.00    +0.277 C 
ATOM     28  O   UNL     1       2.702  -3.199  -0.932  0.00  0.00    -0.491 OA
ENDBRANCH  21  28
BRANCH  26  29
ATOM     29  O   UNL     1       0.099  -2.758  -0.152  0.00  0.00    -0.488 OA
ATOM     30  C   UNL     1       0.237  -2.287   1.190  0.00  0.00    +0.277 C 
ENDBRANCH  26  29
BRANCH  25  31
ATOM     31  O   UNL     1      -1.371  -0.766  -1.356  0.00  0.00    -0.491 OA
ATOM     32  C   UNL     1      -2.076   0.280  -2.029  0.00  0.00    +0.277 C 
ENDBRANCH  25  31
ENDBRANCH   1  23
BRANCH  17  33
ATOM     33  C   UNL     1       1.669  -2.306  -9.267  0.00  0.00    +0.112 C 
BRANCH  33  34
ATOM     34  C   UNL     1       0.331  -1.869  -9.867  0.00  0.00    +0.049 C 
BRANCH  34  35
ATOM     35  C   UNL     1       0.125  -2.558 -11.191  0.00  0.00    -0.072 C 
ATOM     36  C   UNL     1      -0.570  -3.650 -11.206  0.00  0.00    -0.028 C 
ATOM     37  C   UNL     1      -0.850  -4.453 -12.443  0.00  0.00    +0.027 C 
ATOM     38  C   UNL     1      -0.585  -3.607 -13.690  0.00  0.00    +0.004 C 
ATOM     39  C   UNL     1       0.797  -2.956 -13.551  0.00  0.00    +0.005 C 
ATOM     40  C   UNL     1       0.734  -1.933 -12.412  0.00  0.00    +0.030 C 
ENDBRANCH  34  35
ENDBRANCH  33  34
ENDBRANCH  17  33
TORSDOF 7
