REMARK  Name = ZINC09282038
REMARK  6 active torsions:
REMARK  status: ('A' for Active; 'I' for Inactive)
REMARK    1  A    between atoms: C_1  and  C_2
REMARK    2  A    between atoms: N_20  and  C_23
REMARK    3  A    between atoms: C_25  and  O_33
REMARK    4  A    between atoms: C_26  and  N_30
REMARK    5  A    between atoms: C_28  and  C_29
REMARK    6  A    between atoms: O_33  and  C_34
REMARK                            x       y       z     vdW  Elec       q    Type
REMARK                         _______ _______ _______ _____ _____    ______ ____
ROOT
ATOM      1  C   UNL     1       0.193  -1.286   4.322  0.00  0.00    +0.044 C 
ATOM      2  C   UNL     1       1.614  -1.629   3.956  0.00  0.00    -0.050 A 
ATOM      3  C   UNL     1       2.436  -2.253   4.877  0.00  0.00    +0.005 A 
ATOM      4  C   UNL     1       3.737  -2.571   4.547  0.00  0.00    +0.024 A 
ATOM      5  C   UNL     1       4.235  -2.264   3.283  0.00  0.00    +0.036 A 
ATOM      6  C   UNL     1       3.398  -1.637   2.364  0.00  0.00    -0.027 A 
ATOM      7  C   UNL     1       2.100  -1.322   2.697  0.00  0.00    +0.008 A 
ATOM      8  C   UNL     1       4.221  -1.449   1.120  0.00  0.00    +0.053 C 
ATOM      9  C   UNL     1       4.328   0.032   0.739  0.00  0.00    +0.089 C 
ATOM     10  C   UNL     1       4.313   0.041  -0.814  0.00  0.00    +0.074 C 
ATOM     11  C   UNL     1       4.195  -1.439  -1.225  0.00  0.00    -0.054 C 
ATOM     12  C   UNL     1       2.164  -1.823  -0.094  0.00  0.00    -0.076 C 
ATOM     13  C   UNL     1       1.805  -1.848  -1.593  0.00  0.00    -0.020 C 
ATOM     14  C   UNL     1       3.131  -1.577  -2.329  0.00  0.00    -0.016 C 
ATOM     15  C   UNL     1       3.025   0.759  -1.148  0.00  0.00    +0.228 C 
ATOM     16  O   UNL     1       2.619   0.986  -2.267  0.00  0.00    -0.275 OA
ATOM     17  N   UNL     1       2.403   1.105  -0.015  0.00  0.00    -0.210 N 
ATOM     18  C   UNL     1       3.049   0.751   1.103  0.00  0.00    +0.229 C 
ATOM     19  O   UNL     1       2.666   0.972   2.232  0.00  0.00    -0.275 OA
ATOM     20  C   UNL     1       5.569  -2.028   1.453  0.00  0.00    +0.212 C 
ATOM     21  O   UNL     1       6.536  -2.079   0.722  0.00  0.00    -0.277 OA
ATOM     22  N   UNL     1       5.495  -2.479   2.720  0.00  0.00    -0.286 N 
ATOM     23  H   UNL     1       6.231  -2.903   3.188  0.00  0.00    +0.155 HD
ATOM     24  N   UNL     1       3.620  -2.074  -0.061  0.00  0.00    +0.395 N 
ATOM     25  H   UNL     1       3.807  -3.084  -0.064  0.00  0.00    -0.079 HD
ENDROOT
BRANCH  17  26
ATOM     26  C   UNL     1       1.179   1.787   0.000  0.00  0.00    +0.050 A 
ATOM     27  C   UNL     1      -0.013   1.076   0.008  0.00  0.00    +0.072 A 
ATOM     28  C   UNL     1      -1.221   1.754   0.017  0.00  0.00    +0.152 A 
ATOM     29  C   UNL     1      -1.238   3.142   0.032  0.00  0.00    +0.168 A 
ATOM     30  C   UNL     1      -0.050   3.848   0.024  0.00  0.00    +0.041 A 
ATOM     31  C   UNL     1       1.157   3.175   0.008  0.00  0.00    -0.026 A 
ATOM     32  C   UNL     1       2.450   3.949  -0.000  0.00  0.00    +0.046 C 
BRANCH  29  33
ATOM     33  N   UNL     1      -2.529   3.866   0.049  0.00  0.00    +0.060 N 
ATOM     34  O   UNL     1      -2.544   5.083   0.056  0.00  0.00    -0.126 OA
ATOM     35  O   UNL     1      -3.576   3.244   0.056  0.00  0.00    -0.126 OA
ENDBRANCH  29  33
BRANCH  28  36
ATOM     36  O   UNL     1      -2.390   1.060   0.019  0.00  0.00    -0.493 OA
ATOM     37  C   UNL     1      -2.298  -0.366   0.011  0.00  0.00    +0.277 C 
ENDBRANCH  28  36
ENDBRANCH  17  26
TORSDOF 3
