REMARK  Name = ZINC17021321
REMARK  17 active torsions:
REMARK  status: ('A' for Active; 'I' for Inactive)
REMARK    1  A    between atoms: C_1  and  C_2
REMARK    2  A    between atoms: C_11  and  O_22
REMARK    3  A    between atoms: C_12  and  C_21
REMARK    4  A    between atoms: C_14  and  O_20
REMARK    5  A    between atoms: C_16  and  O_19
REMARK    6  A    between atoms: C_23  and  O_40
REMARK    7  A    between atoms: C_26  and  C_28
REMARK    8  A    between atoms: C_28  and  C_29
REMARK    9  A    between atoms: C_28  and  C_30
REMARK   10  A    between atoms: C_28  and  O_39
REMARK   11  A    between atoms: C_30  and  C_32
REMARK   12  A    between atoms: C_30  and  O_38
REMARK   13  A    between atoms: C_32  and  C_33
REMARK   14  A    between atoms: C_33  and  C_34
REMARK   15  A    between atoms: C_34  and  C_35
REMARK   16  A    between atoms: C_34  and  C_36
REMARK   17  A    between atoms: C_34  and  O_37
REMARK                            x       y       z     vdW  Elec       q    Type
REMARK                         _______ _______ _______ _____ _____    ______ ____
ROOT
ATOM      1  C   UNL     1      -1.156   0.771  -7.257  0.00  0.00    +0.015 C 
ATOM      2  C   UNL     1       0.337   0.513  -7.471  0.00  0.00    +0.006 C 
ATOM      3  C   UNL     1       1.024   1.843  -7.663  0.00  0.00    +0.011 C 
ATOM      4  C   UNL     1       0.275   2.627  -8.737  0.00  0.00    +0.009 C 
ATOM      5  C   UNL     1       0.212   1.846 -10.044  0.00  0.00    +0.027 C 
ATOM      6  C   UNL     1      -0.243   0.429  -9.821  0.00  0.00    -0.031 C 
ATOM      7  C   UNL     1      -1.242  -0.143 -10.481  0.00  0.00    +0.051 C 
ATOM      8  C   UNL     1      -2.016   0.660 -11.442  0.00  0.00    +0.188 C 
ATOM      9  O   UNL     1      -2.622   0.150 -12.361  0.00  0.00    -0.290 OA
ATOM     10  C   UNL     1      -1.997   2.159 -11.223  0.00  0.00    +0.136 C 
ATOM     11  C   UNL     1      -0.537   2.595 -11.114  0.00  0.00    +0.013 C 
ATOM     12  C   UNL     1      -0.471   4.106 -10.889  0.00  0.00    +0.044 C 
ATOM     13  C   UNL     1      -1.128   4.820 -12.073  0.00  0.00    +0.144 C 
ATOM     14  C   UNL     1      -2.587   4.378 -12.198  0.00  0.00    +0.146 C 
ATOM     15  C   UNL     1      -2.649   2.863 -12.413  0.00  0.00    +0.077 C 
ATOM     16  C   UNL     1       0.130   2.290 -12.457  0.00  0.00    +0.015 C 
ATOM     17  C   UNL     1       0.522  -0.325  -8.769  0.00  0.00    +0.093 C 
ATOM     18  C   UNL     1      -0.047  -1.676  -8.331  0.00  0.00    +0.040 C 
ATOM     19  C   UNL     1       0.535  -1.847  -6.899  0.00  0.00    +0.010 C 
ATOM     20  C   UNL     1       0.840  -0.417  -6.379  0.00  0.00    +0.032 C 
ENDROOT
BRANCH  14  21
ATOM     21  O   UNL     1      -3.192   5.041 -13.309  0.00  0.00    -0.389 OA
ATOM     22  H   UNL     1      -3.191   6.006 -13.240  0.00  0.00    +0.210 HD
ENDBRANCH  14  21
BRANCH  13  23
ATOM     23  O   UNL     1      -1.076   6.233 -11.864  0.00  0.00    -0.389 OA
ATOM     24  H   UNL     1      -1.475   6.751 -12.577  0.00  0.00    +0.210 HD
ENDBRANCH  13  23
BRANCH  10  25
ATOM     25  O   UNL     1      -2.692   2.499 -10.021  0.00  0.00    -0.380 OA
ATOM     26  H   UNL     1      -3.627   2.250 -10.024  0.00  0.00    +0.211 HD
ENDBRANCH  10  25
BRANCH  20  27
ATOM     27  C   UNL     1       0.091  -0.156  -5.071  0.00  0.00    +0.092 C 
ATOM     28  C   UNL     1       0.317   1.293  -4.635  0.00  0.00    +0.044 C 
BRANCH  27  29
ATOM     29  O   UNL     1      -1.306  -0.381  -5.269  0.00  0.00    -0.386 OA
ATOM     30  H   UNL     1      -1.524  -1.281  -5.547  0.00  0.00    +0.210 HD
ENDBRANCH  27  29
BRANCH  27  31
ATOM     31  C   UNL     1       0.612  -1.102  -3.987  0.00  0.00    +0.146 C 
BRANCH  31  32
ATOM     32  O   UNL     1       0.401  -2.455  -4.395  0.00  0.00    -0.389 OA
ATOM     33  H   UNL     1      -0.527  -2.680  -4.548  0.00  0.00    +0.210 HD
ENDBRANCH  31  32
BRANCH  31  34
ATOM     34  C   UNL     1      -0.137  -0.841  -2.679  0.00  0.00    +0.037 C 
BRANCH  34  35
ATOM     35  C   UNL     1       0.467  -1.698  -1.565  0.00  0.00    +0.037 C 
BRANCH  35  36
ATOM     36  C   UNL     1      -0.282  -1.436  -0.257  0.00  0.00    +0.061 C 
ATOM     37  C   UNL     1      -0.265   0.062   0.049  0.00  0.00    +0.041 C 
ATOM     38  C   UNL     1       0.400  -2.197   0.882  0.00  0.00    +0.041 C 
BRANCH  36  39
ATOM     39  O   UNL     1      -1.634  -1.881  -0.385  0.00  0.00    -0.389 OA
ATOM     40  H   UNL     1      -1.720  -2.825  -0.580  0.00  0.00    +0.210 HD
ENDBRANCH  36  39
ENDBRANCH  35  36
ENDBRANCH  34  35
ENDBRANCH  31  34
ENDBRANCH  27  31
ENDBRANCH  20  27
BRANCH  17  41
ATOM     41  O   UNL     1       1.903  -0.438  -9.122  0.00  0.00    -0.384 OA
ATOM     42  H   UNL     1       2.062  -0.953  -9.925  0.00  0.00    +0.211 HD
ENDBRANCH  17  41
TORSDOF 12
