REMARK  Name = ZINC64042784
REMARK  5 active torsions:
REMARK  status: ('A' for Active; 'I' for Inactive)
REMARK    1  A    between atoms: C_8  and  C_13
REMARK    2  A    between atoms: N_15  and  C_16
REMARK    3  A    between atoms: C_16  and  C_17
REMARK    4  A    between atoms: C_17  and  C_19
REMARK    5  A    between atoms: C_17  and  C_26
REMARK                            x       y       z     vdW  Elec       q    Type
REMARK                         _______ _______ _______ _____ _____    ______ ____
ROOT
ATOM      1  C   UNL     1       0.885  -7.199   1.461  0.00  0.00    +0.066 C 
ENDROOT
BRANCH   1   2
ATOM      2  C   UNL     1       0.895  -8.667   1.121  0.00  0.00    -0.033 C 
ATOM      3  C   UNL     1      -0.133  -9.395   0.628  0.00  0.00    -0.000 A 
ATOM      4  C   UNL     1      -1.516  -9.050   0.275  0.00  0.00    +0.010 A 
ATOM      5  C   UNL     1      -2.330 -10.017  -0.206  0.00  0.00    +0.001 A 
ATOM      6  C   UNL     1      -1.888 -11.336  -0.375  0.00  0.00    +0.002 A 
ATOM      7  C   UNL     1      -0.632 -11.729  -0.074  0.00  0.00    +0.026 A 
ATOM      8  C   UNL     1       0.309 -10.795   0.439  0.00  0.00    +0.043 A 
ATOM      9  N   UNL     1       1.562 -10.927   0.801  0.00  0.00    -0.380 N 
ATOM     10  C   UNL     1       2.058  -9.624   1.255  0.00  0.00    +0.145 C 
ATOM     11  H   UNL     1       2.076 -11.749   0.770  0.00  0.00    +0.160 HD
ENDBRANCH   1   2
BRANCH   1  12
ATOM     12  C   UNL     1       1.208  -7.019   2.922  0.00  0.00    -0.020 A 
ATOM     13  C   UNL     1       2.417  -7.465   3.422  0.00  0.00    +0.006 A 
ATOM     14  C   UNL     1       2.714  -7.301   4.762  0.00  0.00    +0.000 A 
ATOM     15  C   UNL     1       1.802  -6.690   5.603  0.00  0.00    +0.001 A 
ATOM     16  C   UNL     1       0.593  -6.245   5.104  0.00  0.00    +0.020 A 
ATOM     17  C   UNL     1       0.297  -6.404   3.761  0.00  0.00    +0.045 A 
ATOM     18 CL   UNL     1      -1.219  -5.838   3.132  0.00  0.00    -0.083 Cl
ENDBRANCH   1  12
BRANCH   1  19
ATOM     19  C   UNL     1       1.931  -6.472   0.614  0.00  0.00    +0.117 C 
BRANCH  19  22
ATOM     20  C   UNL     1       2.671  -4.185   0.215  0.00  0.00    +0.254 C 
ATOM     21  O   UNL     1       3.494  -4.618  -0.564  0.00  0.00    -0.272 OA
ATOM     22  N   UNL     1       1.841  -5.030   0.857  0.00  0.00    -0.311 N 
ATOM     23  H   UNL     1       1.183  -4.684   1.480  0.00  0.00    +0.149 HD
BRANCH  20  31
ATOM     24  C   UNL     1      -0.017   1.379   0.010  0.00  0.00    +0.000 A 
ATOM     25  C   UNL     1       1.166   2.098   0.002  0.00  0.00    +0.001 A 
ATOM     26  C   UNL     1       2.377   1.435  -0.012  0.00  0.00    +0.015 A 
ATOM     27  C   UNL     1       2.400   0.042  -0.019  0.00  0.00    +0.062 A 
ATOM     28  C   UNL     1       1.206  -0.680  -0.014  0.00  0.00    -0.029 A 
ATOM     29  C   UNL     1       0.002  -0.004   0.002  0.00  0.00    +0.004 A 
ATOM     30  C   UNL     1       1.226  -2.186  -0.032  0.00  0.00    +0.090 C 
ATOM     31  C   UNL     1       2.578  -2.702   0.464  0.00  0.00    +0.266 C 
ATOM     32  O   UNL     1       3.632  -2.031  -0.238  0.00  0.00    -0.448 OA
ATOM     33  C   UNL     1       3.687  -0.691  -0.029  0.00  0.00    +0.340 C 
ATOM     34  O   UNL     1       4.745  -0.118   0.142  0.00  0.00    -0.245 OA
ENDBRANCH  20  31
ENDBRANCH  19  22
ENDBRANCH   1  19
TORSDOF 5
