REMARK  Name = ZINC65107945
REMARK  2 active torsions:
REMARK  status: ('A' for Active; 'I' for Inactive)
REMARK    1  A    between atoms: C_13  and  C_15
REMARK    2  A    between atoms: C_17  and  C_21
REMARK                            x       y       z     vdW  Elec       q    Type
REMARK                         _______ _______ _______ _____ _____    ______ ____
ROOT
ATOM      1  C   UNL     1       0.147   1.313   1.505  0.00  0.00    +0.046 A 
ATOM      2  C   UNL     1       1.371   1.961   1.521  0.00  0.00    -0.023 A 
ATOM      3  C   UNL     1       2.418   1.466   0.759  0.00  0.00    +0.043 A 
ATOM      4  C   UNL     1       2.236   0.329  -0.019  0.00  0.00    +0.065 A 
ATOM      5  C   UNL     1       1.012  -0.313  -0.032  0.00  0.00    +0.160 A 
ATOM      6  C   UNL     1      -0.034   0.181   0.733  0.00  0.00    +0.159 A 
ATOM      7  F   UNL     1      -1.231  -0.446   0.724  0.00  0.00    -0.202 F 
ATOM      8  F   UNL     1       0.835  -1.419  -0.788  0.00  0.00    -0.202 F 
ATOM      9  N   UNL     1       3.670   2.096   0.764  0.00  0.00    -0.266 N 
ATOM     10  C   UNL     1       3.785   3.444   1.338  0.00  0.00    +0.114 C 
ATOM     11  C   UNL     1       3.008   3.457   2.661  0.00  0.00    +0.024 C 
ATOM     12  C   UNL     1       1.531   3.195   2.370  0.00  0.00    +0.038 C 
ATOM     13  C   UNL     1       4.751   1.476   0.251  0.00  0.00    +0.270 C 
ATOM     14  O   UNL     1       4.670   0.321  -0.122  0.00  0.00    -0.268 OA
ENDROOT
BRANCH  13  15
ATOM     15  C   UNL     1       6.029   2.195   0.142  0.00  0.00    +0.135 A 
ATOM     16  C   UNL     1       7.299   1.659   0.275  0.00  0.00    +0.071 A 
ATOM     17  C   UNL     1       8.175   2.733   0.087  0.00  0.00    +0.081 A 
ATOM     18  N   UNL     1       7.456   3.803  -0.137  0.00  0.00    -0.177 NA
ATOM     19  N   UNL     1       6.202   3.526  -0.118  0.00  0.00    -0.271 N 
ATOM     20  H   UNL     1       5.487   4.165  -0.263  0.00  0.00    +0.189 HD
ATOM     21 BR   UNL     1       7.753  -0.141   0.635  0.00  0.00    -0.046 Br
BRANCH  17  22
ATOM     22  C   UNL     1       9.680   2.669   0.135  0.00  0.00    +0.041 C 
ATOM     23  C   UNL     1      10.444   3.994   0.103  0.00  0.00    +0.010 C 
ATOM     24  C   UNL     1      10.445   3.080  -1.125  0.00  0.00    +0.010 C 
ENDBRANCH  17  22
ENDBRANCH  13  15
TORSDOF 2
