REMARK  Name = ZINC08214743
REMARK  11 active torsions:
REMARK  status: ('A' for Active; 'I' for Inactive)
REMARK    1  A    between atoms: C_1  and  C_2
REMARK    2  A    between atoms: C_4  and  O_48
REMARK    3  A    between atoms: C_6  and  O_46
REMARK    4  A    between atoms: C_8  and  O_45
REMARK    5  A    between atoms: C_10  and  O_13
REMARK    6  A    between atoms: O_13  and  C_14
REMARK    7  A    between atoms: C_18  and  C_44
REMARK    8  A    between atoms: C_30  and  C_43
REMARK    9  A    between atoms: C_31  and  O_42
REMARK   10  A    between atoms: C_34  and  C_36
REMARK   11  A    between atoms: O_46  and  C_47
REMARK                            x       y       z     vdW  Elec       q    Type
REMARK                         _______ _______ _______ _____ _____    ______ ____
ROOT
ATOM      1  C   UNL     1      -1.544   5.101   2.520  0.00  0.00    +0.122 C 
ATOM      2  C   UNL     1      -2.385   5.489   1.301  0.00  0.00    +0.032 C 
ATOM      3  C   UNL     1      -2.025   4.579   0.124  0.00  0.00    +0.010 C 
ATOM      4  C   UNL     1      -0.541   4.740  -0.210  0.00  0.00    -0.026 C 
ATOM      5  C   UNL     1       0.301   4.357   1.008  0.00  0.00    -0.002 C 
ATOM      6  C   UNL     1      -0.059   5.262   2.187  0.00  0.00    +0.035 C 
ATOM      7  C   UNL     1       0.021   2.898   1.376  0.00  0.00    +0.004 C 
ATOM      8  C   UNL     1       0.402   1.997   0.201  0.00  0.00    +0.007 C 
ATOM      9  C   UNL     1      -0.430   2.374  -1.028  0.00  0.00    +0.025 C 
ATOM     10  C   UNL     1      -0.181   3.838  -1.389  0.00  0.00    +0.001 C 
ATOM     11  C   UNL     1       1.302   4.002  -1.737  0.00  0.00    +0.005 C 
ATOM     12  C   UNL     1       1.598   3.174  -2.985  0.00  0.00    +0.010 C 
ATOM     13  C   UNL     1       1.338   1.687  -2.732  0.00  0.00    +0.004 C 
ATOM     14  C   UNL     1      -0.084   1.464  -2.185  0.00  0.00    +0.075 C 
ATOM     15  C   UNL     1      -0.982   1.700  -3.413  0.00  0.00    +0.036 C 
ATOM     16  C   UNL     1      -0.191   1.041  -4.567  0.00  0.00    +0.011 C 
ATOM     17  C   UNL     1       1.284   1.004  -4.125  0.00  0.00    +0.027 C 
ATOM     18  C   UNL     1       2.415   1.070  -1.837  0.00  0.00    +0.014 C 
ATOM     19  C   UNL     1      -0.258   6.198  -0.580  0.00  0.00    +0.012 C 
ENDROOT
BRANCH  17  20
ATOM     20  C   UNL     1       1.758  -0.422  -4.021  0.00  0.00    -0.022 C 
ATOM     21  C   UNL     1       2.853  -0.935  -4.576  0.00  0.00    +0.094 C 
ATOM     22  C   UNL     1       2.956  -2.357  -4.234  0.00  0.00    +0.332 C 
ATOM     23  O   UNL     1       3.849  -3.098  -4.595  0.00  0.00    -0.246 OA
ATOM     24  O   UNL     1       1.915  -2.719  -3.461  0.00  0.00    -0.457 OA
ATOM     25  C   UNL     1       1.085  -1.541  -3.260  0.00  0.00    +0.264 C 
ENDBRANCH  17  20
BRANCH  14  26
ATOM     26  O   UNL     1      -0.221   0.103  -1.771  0.00  0.00    -0.388 OA
ATOM     27  H   UNL     1      -1.109  -0.128  -1.468  0.00  0.00    +0.210 HD
ENDBRANCH  14  26
BRANCH   1  28
ATOM     28  O   UNL     1      -1.880   5.949   3.619  0.00  0.00    -0.345 OA
BRANCH  28  34
ATOM     29  C   UNL     1      -5.836   6.506   2.336  0.00  0.00    +0.041 C 
ATOM     30  C   UNL     1      -4.553   6.676   3.152  0.00  0.00    +0.149 C 
ATOM     31  C   UNL     1      -4.809   7.645   4.309  0.00  0.00    +0.174 C 
ATOM     32  C   UNL     1      -3.539   7.763   5.157  0.00  0.00    +0.182 C 
ATOM     33  C   UNL     1      -3.132   6.369   5.645  0.00  0.00    +0.201 C 
ATOM     34  C   UNL     1      -2.941   5.449   4.436  0.00  0.00    +0.282 C 
ATOM     35  O   UNL     1      -4.150   5.409   3.674  0.00  0.00    -0.343 OA
BRANCH  33  36
ATOM     36  O   UNL     1      -1.907   6.457   6.376  0.00  0.00    -0.384 OA
ATOM     37  H   UNL     1      -1.588   5.608   6.711  0.00  0.00    +0.210 HD
ENDBRANCH  33  36
BRANCH  32  38
ATOM     38  O   UNL     1      -3.790   8.609   6.281  0.00  0.00    -0.374 OA
ATOM     39  C   UNL     1      -2.642   9.327   6.737  0.00  0.00    +0.194 C 
ENDBRANCH  32  38
BRANCH  31  40
ATOM     40  O   UNL     1      -5.157   8.930   3.789  0.00  0.00    -0.387 OA
ATOM     41  H   UNL     1      -5.951   8.929   3.237  0.00  0.00    +0.210 HD
ENDBRANCH  31  40
ENDBRANCH  28  34
ENDBRANCH   1  28
TORSDOF 7
