REMARK  Name = ZINC35843138
REMARK  5 active torsions:
REMARK  status: ('A' for Active; 'I' for Inactive)
REMARK    1  A    between atoms: C_1  and  C_2
REMARK    2  A    between atoms: N_21  and  C_24
REMARK    3  A    between atoms: C_26  and  N_32
REMARK    4  A    between atoms: C_29  and  O_30
REMARK    5  A    between atoms: O_30  and  C_31
REMARK                            x       y       z     vdW  Elec       q    Type
REMARK                         _______ _______ _______ _____ _____    ______ ____
ROOT
ATOM      1  C   UNL     1      -0.734   0.755  -0.692  0.00  0.00    +0.044 C 
ATOM      2  C   UNL     1      -0.763  -0.731  -0.438  0.00  0.00    -0.050 A 
ATOM      3  C   UNL     1      -1.141  -1.599  -1.446  0.00  0.00    +0.005 A 
ATOM      4  C   UNL     1      -1.169  -2.959  -1.219  0.00  0.00    +0.024 A 
ATOM      5  C   UNL     1      -0.816  -3.469   0.029  0.00  0.00    +0.039 A 
ATOM      6  C   UNL     1      -0.440  -2.585   1.036  0.00  0.00    +0.004 A 
ATOM      7  C   UNL     1      -0.407  -1.229   0.803  0.00  0.00    +0.011 A 
ATOM      8  C   UNL     1      -0.134  -3.436   2.237  0.00  0.00    +0.138 C 
ATOM      9  C   UNL     1      -1.035  -3.073   3.423  0.00  0.00    +0.123 C 
ATOM     10  C   UNL     1      -0.160  -2.150   4.314  0.00  0.00    +0.107 C 
ATOM     11  C   UNL     1       1.195  -2.055   3.588  0.00  0.00    +0.071 C 
ATOM     12  N   UNL     1       1.252  -3.246   2.697  0.00  0.00    -0.281 NA
ATOM     13  C   UNL     1       1.638  -4.356   3.601  0.00  0.00    +0.086 C 
ATOM     14  C   UNL     1       2.643  -3.739   4.594  0.00  0.00    +0.017 C 
ATOM     15  C   UNL     1       2.333  -2.216   4.612  0.00  0.00    +0.021 C 
ATOM     16  C   UNL     1      -0.875  -0.819   4.247  0.00  0.00    +0.232 C 
ATOM     17  O   UNL     1      -0.521   0.196   4.808  0.00  0.00    -0.274 OA
ATOM     18  N   UNL     1      -1.959  -0.936   3.471  0.00  0.00    -0.206 N 
ATOM     19  C   UNL     1      -2.155  -2.171   2.955  0.00  0.00    +0.233 C 
ATOM     20  O   UNL     1      -3.071  -2.507   2.235  0.00  0.00    -0.274 OA
ATOM     21  C   UNL     1      -0.373  -4.851   1.783  0.00  0.00    +0.243 C 
ATOM     22  O   UNL     1      -0.239  -5.857   2.447  0.00  0.00    -0.273 OA
ATOM     23  N   UNL     1      -0.764  -4.784   0.496  0.00  0.00    -0.283 N 
ATOM     24  H   UNL     1      -0.985  -5.559  -0.044  0.00  0.00    +0.155 HD
ENDROOT
BRANCH  18  25
ATOM     25  C   UNL     1      -2.829   0.135   3.216  0.00  0.00    +0.088 A 
ATOM     26  C   UNL     1      -2.488   1.100   2.280  0.00  0.00    +0.060 A 
ATOM     27  C   UNL     1      -3.346   2.154   2.030  0.00  0.00    +0.128 A 
ATOM     28  C   UNL     1      -4.546   2.249   2.712  0.00  0.00    +0.036 A 
ATOM     29  C   UNL     1      -4.892   1.292   3.647  0.00  0.00    +0.050 A 
ATOM     30  C   UNL     1      -4.040   0.228   3.898  0.00  0.00    +0.142 A 
BRANCH  27  31
ATOM     31  N   UNL     1      -2.981   3.183   1.032  0.00  0.00    +0.056 N 
ATOM     32  O   UNL     1      -1.933   3.101   0.435  0.00  0.00    -0.126 OA
ATOM     33  O   UNL     1      -3.731   4.106   0.812  0.00  0.00    -0.126 OA
ENDBRANCH  27  31
BRANCH  30  34
ATOM     34  O   UNL     1      -4.381  -0.718   4.813  0.00  0.00    -0.493 OA
ATOM     35  C   UNL     1      -5.638  -0.557   5.474  0.00  0.00    +0.277 C 
ENDBRANCH  30  34
ENDBRANCH  18  25
TORSDOF 3
