REMARK  Name = ZINC14956692
REMARK  3 active torsions:
REMARK  status: ('A' for Active; 'I' for Inactive)
REMARK    1  A    between atoms: C_12  and  C_14
REMARK    2  A    between atoms: C_23  and  C_25
REMARK    3  A    between atoms: C_26  and  C_27
REMARK                            x       y       z     vdW  Elec       q    Type
REMARK                         _______ _______ _______ _____ _____    ______ ____
ROOT
ATOM      1  C   UNL     1      -4.815  -2.863  -2.635  0.00  0.00    +0.082 C 
ATOM      2  C   UNL     1      -5.665  -4.105  -2.361  0.00  0.00    +0.021 C 
ATOM      3  C   UNL     1      -6.122  -3.076  -3.397  0.00  0.00    -0.015 C 
ATOM      4  C   UNL     1      -6.029  -3.467  -4.875  0.00  0.00    +0.026 C 
ATOM      5  C   UNL     1      -7.347  -4.131  -5.294  0.00  0.00    +0.108 C 
ATOM      6  N   UNL     1      -8.462  -3.261  -4.899  0.00  0.00    -0.298 N 
ATOM      7  C   UNL     1      -8.604  -2.872  -3.490  0.00  0.00    +0.108 C 
ATOM      8  C   UNL     1      -7.312  -2.182  -3.035  0.00  0.00    +0.026 C 
ATOM      9  C   UNL     1      -9.345  -2.825  -5.819  0.00  0.00    +0.239 C 
ATOM     10  O   UNL     1     -10.209  -2.027  -5.503  0.00  0.00    -0.271 OA
ENDROOT
BRANCH   1  22
ATOM     11  C   UNL     1      -4.971   5.024  -4.867  0.00  0.00    +0.005 A 
ATOM     12  C   UNL     1      -5.918   5.681  -4.091  0.00  0.00    +0.018 A 
ATOM     13  C   UNL     1      -6.322   5.118  -2.898  0.00  0.00    +0.084 A 
ATOM     14  C   UNL     1      -4.918   3.312  -3.198  0.00  0.00    +0.099 A 
ATOM     15  C   UNL     1      -4.464   3.821  -4.411  0.00  0.00    +0.042 A 
ATOM     16  N   UNL     1      -4.417   2.103  -2.728  0.00  0.00    -0.314 N 
ATOM     17  C   UNL     1      -4.606   1.034  -3.718  0.00  0.00    +0.125 C 
ATOM     18  C   UNL     1      -3.885  -0.231  -3.243  0.00  0.00    +0.126 C 
ATOM     19  N   UNL     1      -4.350  -0.552  -1.885  0.00  0.00    -0.298 N 
ATOM     20  C   UNL     1      -4.320   0.511  -0.869  0.00  0.00    +0.126 C 
ATOM     21  C   UNL     1      -5.024   1.748  -1.438  0.00  0.00    +0.125 C 
ATOM     22  C   UNL     1      -4.792  -1.788  -1.579  0.00  0.00    +0.219 C 
ATOM     23  O   UNL     1      -5.172  -2.035  -0.454  0.00  0.00    -0.275 OA
ATOM     24  N   UNL     1      -5.846   3.938  -2.419  0.00  0.00    -0.350 N 
ATOM     25  H   UNL     1      -6.166   3.543  -1.527  0.00  0.00    +0.166 HD
ENDBRANCH   1  22
BRANCH   9  26
ATOM     26  C   UNL     1      -9.267  -3.311  -7.197  0.00  0.00    +0.068 C 
ATOM     27  C   UNL     1     -10.082  -2.798  -8.141  0.00  0.00    +0.013 C 
BRANCH  27  28
ATOM     28  C   UNL     1     -10.002  -3.286  -9.527  0.00  0.00    -0.025 A 
ATOM     29  C   UNL     1      -9.079  -4.279  -9.870  0.00  0.00    +0.009 A 
ATOM     30  C   UNL     1      -9.013  -4.735 -11.169  0.00  0.00    +0.020 A 
ATOM     31  C   UNL     1      -9.852  -4.205 -12.136  0.00  0.00    +0.041 A 
ATOM     32  C   UNL     1     -10.766  -3.218 -11.804  0.00  0.00    +0.020 A 
ATOM     33  C   UNL     1     -10.846  -2.756 -10.508  0.00  0.00    +0.009 A 
ATOM     34 CL   UNL     1      -9.758  -4.781 -13.771  0.00  0.00    -0.084 Cl
ENDBRANCH  27  28
ENDBRANCH   9  26
TORSDOF 3
