REMARK  Name = ZINC21337461
REMARK  5 active torsions:
REMARK  status: ('A' for Active; 'I' for Inactive)
REMARK    1  A    between atoms: C_3  and  N_9
REMARK    2  A    between atoms: C_6  and  C_7
REMARK    3  A    between atoms: C_10  and  N_11
REMARK    4  A    between atoms: N_11  and  C_12
REMARK    5  A    between atoms: C_18  and  N_27
REMARK                            x       y       z     vdW  Elec       q    Type
REMARK                         _______ _______ _______ _____ _____    ______ ____
ROOT
ATOM      1  N   UNL     1       0.279   2.108   1.989  0.00  0.00    -0.254 N 
ATOM      2  C   UNL     1      -0.817   1.611   1.331  0.00  0.00    +0.098 C 
ATOM      3  C   UNL     1      -0.442   1.349  -0.112  0.00  0.00    +0.054 C 
ATOM      4  C   UNL     1       1.036   1.769  -0.184  0.00  0.00    +0.057 C 
ATOM      5  C   UNL     1       1.365   2.229   1.213  0.00  0.00    +0.073 C 
ATOM      6  S   UNL     1       2.788   2.778   1.694  0.00  0.00    -0.038 S 
ATOM      7  C   UNL     1       1.209   2.910  -1.180  0.00  0.00    +0.019 C 
ATOM      8  C   UNL     1       0.827   2.428  -2.582  0.00  0.00    +0.001 C 
ATOM      9  C   UNL     1       1.716   1.246  -2.974  0.00  0.00    +0.000 C 
ATOM     10  C   UNL     1       1.517   0.102  -1.978  0.00  0.00    +0.001 C 
ATOM     11  C   UNL     1       1.903   0.577  -0.574  0.00  0.00    +0.019 C 
ENDROOT
BRANCH   1  14
ATOM     12  C   UNL     1       0.409   4.132   5.051  0.00  0.00    +0.021 A 
ATOM     13  C   UNL     1       0.423   3.785   3.718  0.00  0.00    +0.025 A 
ATOM     14  C   UNL     1       0.264   2.456   3.342  0.00  0.00    +0.040 A 
ATOM     15  C   UNL     1       0.086   1.472   4.309  0.00  0.00    +0.025 A 
ATOM     16  C   UNL     1       0.076   1.810   5.644  0.00  0.00    +0.021 A 
ATOM     17  C   UNL     1       0.235   3.145   6.026  0.00  0.00    +0.052 A 
BRANCH  17  18
ATOM     18  C   UNL     1       0.220   3.502   7.413  0.00  0.00    +0.099 C 
ATOM     19  N   UNL     1       0.207   3.784   8.513  0.00  0.00    -0.191 NA
ENDBRANCH  17  18
ENDBRANCH   1  14
BRANCH   3  20
ATOM     20  N   UNL     1      -1.256   2.168  -1.019  0.00  0.00    -0.326 N 
ATOM     21  C   UNL     1      -1.803   3.341  -0.322  0.00  0.00    +0.133 C 
ATOM     22  C   UNL     1      -2.594   4.196  -1.315  0.00  0.00    +0.178 C 
ATOM     23  O   UNL     1      -3.617   3.397  -1.915  0.00  0.00    -0.377 OA
ATOM     24  C   UNL     1      -3.121   2.246  -2.603  0.00  0.00    +0.178 C 
ATOM     25  C   UNL     1      -2.335   1.371  -1.622  0.00  0.00    +0.133 C 
ENDBRANCH   3  20
BRANCH   2  26
ATOM     26  N   UNL     1      -1.979   1.403   1.856  0.00  0.00    -0.390 NA
ATOM     27  H   UNL     1      -1.855   0.975   2.862  0.00  0.00    +0.125 HD
ATOM     28  H   UNL     1      -2.525   2.355   1.927  0.00  0.00    +0.125 HD
BRANCH  26  29
ATOM     29  C   UNL     1      -2.927   0.499   1.201  0.00  0.00    +0.054 C 
ATOM     30  C   UNL     1      -4.212   1.261   0.869  0.00  0.00    +0.021 C 
ATOM     31  C   UNL     1      -5.202   0.317   0.184  0.00  0.00    +0.002 C 
ATOM     32  C   UNL     1      -5.528  -0.847   1.122  0.00  0.00    +0.000 C 
ATOM     33  C   UNL     1      -4.244  -1.609   1.454  0.00  0.00    +0.002 C 
ATOM     34  C   UNL     1      -3.253  -0.665   2.138  0.00  0.00    +0.021 C 
ENDBRANCH  26  29
ENDBRANCH   2  26
TORSDOF 5
