REMARK  Name = ZINC13395303
REMARK  8 active torsions:
REMARK  status: ('A' for Active; 'I' for Inactive)
REMARK    1  A    between atoms: C_1  and  C_2
REMARK    2  A    between atoms: C_3  and  C_30
REMARK    3  A    between atoms: C_9  and  C_13
REMARK    4  A    between atoms: C_13  and  S_14
REMARK    5  A    between atoms: S_14  and  C_15
REMARK    6  A    between atoms: C_18  and  C_21
REMARK    7  A    between atoms: C_21  and  O_22
REMARK    8  A    between atoms: O_22  and  C_23
REMARK                            x       y       z     vdW  Elec       q    Type
REMARK                         _______ _______ _______ _____ _____    ______ ____
ROOT
ATOM      1  C   UNL     1       1.887  -5.585  -0.037  0.00  0.00    +0.151 C 
ENDROOT
BRANCH   1  10
ATOM      2  C   UNL     1      -0.018   1.503   0.010  0.00  0.00    +0.087 C 
ATOM      3  C   UNL     1       0.002  -0.004   0.002  0.00  0.00    +0.119 A 
ATOM      4  C   UNL     1      -1.102  -0.806   0.003  0.00  0.00    +0.118 A 
ATOM      5  C   UNL     1      -0.586  -2.186  -0.007  0.00  0.00    +0.118 A 
ATOM      6  C   UNL     1      -1.171  -3.470  -0.011  0.00  0.00    +0.263 A 
ATOM      7  O   UNL     1      -2.382  -3.607  -0.006  0.00  0.00    -0.267 OA
ATOM      8  N   UNL     1      -0.348  -4.544  -0.020  0.00  0.00    -0.309 N 
ATOM      9  H   UNL     1      -0.720  -5.439  -0.023  0.00  0.00    +0.170 HD
ATOM     10  C   UNL     1       0.997  -4.369  -0.026  0.00  0.00    +0.124 A 
ATOM     11  N   UNL     1       1.547  -3.188  -0.022  0.00  0.00    -0.198 NA
ATOM     12  C   UNL     1       0.804  -2.070  -0.013  0.00  0.00    +0.235 A 
ATOM     13  O   UNL     1       1.106  -0.761  -0.013  0.00  0.00    -0.441 OA
BRANCH   4  14
ATOM     14  C   UNL     1      -2.507  -0.383   0.012  0.00  0.00    +0.391 C 
ATOM     15  O   UNL     1      -2.788   0.808   0.020  0.00  0.00    -0.240 OA
ATOM     16  O   UNL     1      -3.398  -1.222   0.012  0.00  0.00    -0.240 OA
ENDBRANCH   4  14
ENDBRANCH   1  10
BRANCH   1  17
ATOM     17  S   UNL     1       3.624  -5.063  -0.043  0.00  0.00    -0.079 S 
BRANCH  17  18
ATOM     18  C   UNL     1       4.524  -6.577  -0.055  0.00  0.00    +0.185 A 
ATOM     19  N   UNL     1       4.006  -7.787  -0.059  0.00  0.00    -0.202 NA
ATOM     20  H   UNL     1       6.520  -5.985  -0.072  0.00  0.00    +0.191 HD
ATOM     21  C   UNL     1       4.983  -8.695  -0.069  0.00  0.00    +0.189 A 
ATOM     22  N   UNL     1       6.136  -8.082  -0.071  0.00  0.00    -0.153 NA
ATOM     23  N   UNL     1       5.869  -6.703  -0.068  0.00  0.00    -0.253 N 
BRANCH  21  24
ATOM     24  C   UNL     1       4.788 -10.189  -0.076  0.00  0.00    +0.306 C 
BRANCH  24  25
ATOM     25  O   UNL     1       4.720 -10.654  -1.425  0.00  0.00    -0.484 OA
BRANCH  25  26
ATOM     26  C   UNL     1       4.544 -11.990  -1.609  0.00  0.00    +0.121 A 
ATOM     27  C   UNL     1       4.434 -12.833  -0.513  0.00  0.00    +0.047 A 
ATOM     28  C   UNL     1       4.256 -14.190  -0.703  0.00  0.00    +0.023 A 
ATOM     29  C   UNL     1       4.188 -14.708  -1.984  0.00  0.00    +0.041 A 
ATOM     30  C   UNL     1       4.298 -13.868  -3.078  0.00  0.00    +0.023 A 
ATOM     31  C   UNL     1       4.469 -12.510  -2.893  0.00  0.00    +0.047 A 
ATOM     32 CL   UNL     1       3.964 -16.413  -2.219  0.00  0.00    -0.084 Cl
ENDBRANCH  25  26
ENDBRANCH  24  25
ENDBRANCH  21  24
ENDBRANCH  17  18
ENDBRANCH   1  17
TORSDOF 7
