REMARK  Name = ZINC48988627
REMARK  2 active torsions:
REMARK  status: ('A' for Active; 'I' for Inactive)
REMARK    1  A    between atoms: C_6  and  N_7
REMARK    2  A    between atoms: C_9  and  C_20
REMARK                            x       y       z     vdW  Elec       q    Type
REMARK                         _______ _______ _______ _____ _____    ______ ____
ROOT
ATOM      1  N   UNL     1      -1.107  -0.744   0.369  0.00  0.00    -0.272 N 
ATOM      2  C   UNL     1      -1.017  -2.086   0.236  0.00  0.00    +0.113 C 
ATOM      3  C   UNL     1      -2.070  -2.924   0.283  0.00  0.00    +0.169 C 
ATOM      4  S   UNL     1      -3.687  -2.249   0.515  0.00  0.00    +0.033 S 
ATOM      5  O   UNL     1      -4.506  -2.771  -0.522  0.00  0.00    -0.164 OA
ATOM      6  O   UNL     1      -4.004  -2.399   1.892  0.00  0.00    -0.164 OA
ATOM      7  C   UNL     1      -3.517  -0.518   0.211  0.00  0.00    +0.116 A 
ATOM      8  C   UNL     1      -2.242   0.033   0.175  0.00  0.00    +0.066 A 
ATOM      9  C   UNL     1      -2.106   1.397  -0.066  0.00  0.00    +0.064 A 
ATOM     10  C   UNL     1      -3.226   2.184  -0.255  0.00  0.00    +0.125 A 
ATOM     11  C   UNL     1      -4.491   1.622  -0.206  0.00  0.00    +0.040 A 
ATOM     12  C   UNL     1      -4.631   0.269   0.019  0.00  0.00    +0.032 A 
ATOM     13  F   UNL     1      -3.086   3.508  -0.487  0.00  0.00    -0.205 F 
ENDROOT
BRANCH   1  19
ATOM     14  C   UNL     1       1.139  -0.006  -0.125  0.00  0.00    +0.027 A 
ATOM     15  C   UNL     1       2.292   0.657   0.248  0.00  0.00    +0.051 A 
ATOM     16  C   UNL     1       2.376   1.263   1.493  0.00  0.00    +0.162 A 
ATOM     17  C   UNL     1       1.297   1.203   2.368  0.00  0.00    +0.164 A 
ATOM     18  C   UNL     1       0.141   0.536   1.994  0.00  0.00    +0.073 A 
ATOM     19  C   UNL     1       0.061  -0.070   0.747  0.00  0.00    +0.042 A 
ATOM     20  O   UNL     1       1.358   1.798   3.590  0.00  0.00    -0.485 OA
ATOM     21  C   UNL     1       2.661   2.137   4.077  0.00  0.00    +0.270 C 
ATOM     22  C   UNL     1       3.434   2.823   2.943  0.00  0.00    +0.270 C 
ATOM     23  O   UNL     1       3.522   1.910   1.844  0.00  0.00    -0.485 OA
ENDBRANCH   1  19
BRANCH   3  24
ATOM     24  C   UNL     1      -1.885  -4.320   0.148  0.00  0.00    +0.266 C 
ATOM     25  O   UNL     1      -2.140  -4.869  -0.909  0.00  0.00    -0.268 OA
ATOM     26  N   UNL     1      -1.428  -5.043   1.190  0.00  0.00    -0.296 N 
ATOM     27  C   UNL     1      -1.188  -4.532   2.548  0.00  0.00    +0.108 C 
ATOM     28  C   UNL     1      -0.646  -5.706   3.390  0.00  0.00    +0.020 C 
ATOM     29  C   UNL     1      -0.076  -6.670   2.315  0.00  0.00    +0.020 C 
ATOM     30  C   UNL     1      -1.091  -6.478   1.158  0.00  0.00    +0.108 C 
ENDBRANCH   3  24
TORSDOF 2
