REMARK  Name = ZINC40569519
REMARK  11 active torsions:
REMARK  status: ('A' for Active; 'I' for Inactive)
REMARK    1  A    between atoms: C_1  and  C_2
REMARK    2  A    between atoms: C_2  and  C_3
REMARK    3  A    between atoms: C_3  and  C_4
REMARK    4  A    between atoms: N_10  and  C_11
REMARK    5  A    between atoms: C_11  and  C_12
REMARK    6  A    between atoms: C_12  and  N_13
REMARK    7  A    between atoms: N_13  and  C_14
REMARK    8  A    between atoms: N_13  and  C_15
REMARK    9  A    between atoms: C_16  and  C_24
REMARK   10  A    between atoms: C_18  and  C_22
REMARK   11  A    between atoms: C_19  and  N_21
REMARK                            x       y       z     vdW  Elec       q    Type
REMARK                         _______ _______ _______ _____ _____    ______ ____
ROOT
ATOM      1  C   UNL     1       0.623  -2.007  -1.318  0.00  0.00    +0.025 A 
ATOM      2  C   UNL     1      -0.333  -2.585  -2.076  0.00  0.00    +0.068 A 
ATOM      3  C   UNL     1      -0.386  -3.991  -2.183  0.00  0.00    +0.141 A 
ATOM      4  C   UNL     1       0.546  -4.748  -1.507  0.00  0.00    +0.072 A 
ATOM      5  C   UNL     1       1.520  -4.104  -0.733  0.00  0.00    +0.259 A 
ATOM      6  O   UNL     1       2.353  -4.762  -0.129  0.00  0.00    -0.267 OA
ATOM      7  N   UNL     1       1.542  -2.760  -0.659  0.00  0.00    -0.314 N 
ATOM      8  C   UNL     1       0.525  -6.250  -1.592  0.00  0.00    +0.104 C 
ATOM      9  C   UNL     1      -0.318  -6.690  -2.756  0.00  0.00    +0.098 C 
ATOM     10  C   UNL     1      -1.188  -5.842  -3.354  0.00  0.00    +0.199 C 
ATOM     11  O   UNL     1      -1.341  -4.572  -2.940  0.00  0.00    -0.441 OA
ENDROOT
BRANCH   8  12
ATOM     12  C   UNL     1      -0.051  -6.814  -0.319  0.00  0.00    -0.021 A 
ATOM     13  C   UNL     1      -1.339  -6.486   0.061  0.00  0.00    +0.005 A 
ATOM     14  C   UNL     1      -1.868  -7.005   1.228  0.00  0.00    +0.000 A 
ATOM     15  C   UNL     1      -1.109  -7.851   2.016  0.00  0.00    +0.001 A 
ATOM     16  C   UNL     1       0.178  -8.179   1.636  0.00  0.00    +0.015 A 
ATOM     17  C   UNL     1       0.706  -7.665   0.465  0.00  0.00    +0.022 A 
ATOM     18 BR   UNL     1       2.466  -8.119  -0.059  0.00  0.00    -0.050 Br
ENDBRANCH   8  12
BRANCH  10  19
ATOM     19  N   UNL     1      -1.935  -6.293  -4.413  0.00  0.00    -0.328 N 
ATOM     20  H   UNL     1      -1.836  -7.206  -4.723  0.00  0.00    +0.145 HD
ATOM     21  H   UNL     1      -2.563  -5.697  -4.852  0.00  0.00    +0.145 HD
ENDBRANCH  10  19
BRANCH   9  22
ATOM     22  C   UNL     1      -0.198  -8.032  -3.243  0.00  0.00    +0.101 C 
ATOM     23  N   UNL     1      -0.103  -9.096  -3.628  0.00  0.00    -0.191 NA
ENDBRANCH   9  22
BRANCH   1  24
ATOM     24  C   UNL     1       0.675  -0.505  -1.206  0.00  0.00    +0.053 C 
BRANCH  24  26
ATOM     25  C   UNL     1       1.569   1.584  -2.247  0.00  0.00    +0.004 C 
ATOM     26  C   UNL     1       1.609   0.054  -2.282  0.00  0.00    +0.003 C 
ENDBRANCH  24  26
ENDBRANCH   1  24
BRANCH   7  27
ATOM     27  C   UNL     1       2.570  -2.099   0.149  0.00  0.00    +0.106 C 
BRANCH  27  28
ATOM     28  C   UNL     1       2.093  -2.002   1.600  0.00  0.00    -0.058 C 
BRANCH  28  29
ATOM     29  N   UNL     1       3.171  -1.453   2.434  0.00  0.00    +0.377 N 
ATOM     30  C   UNL     1       3.450  -0.070   2.024  0.00  0.00    -0.097 C 
ATOM     31  C   UNL     1       2.757  -1.471   3.843  0.00  0.00    -0.097 C 
ATOM     32  H   UNL     1       4.003  -2.012   2.320  0.00  0.00    -0.083 HD
ENDBRANCH  28  29
ENDBRANCH  27  28
ENDBRANCH   7  27
TORSDOF 8
