REMARK  Name = ZINC59423486
REMARK  9 active torsions:
REMARK  status: ('A' for Active; 'I' for Inactive)
REMARK    1  A    between atoms: C_1  and  C_2
REMARK    2  A    between atoms: C_2  and  N_3
REMARK    3  A    between atoms: N_3  and  C_4
REMARK    4  A    between atoms: C_4  and  C_5
REMARK    5  A    between atoms: C_12  and  C_14
REMARK    6  A    between atoms: N_16  and  C_17
REMARK    7  A    between atoms: C_19  and  S_24
REMARK    8  A    between atoms: C_22  and  C_23
REMARK    9  A    between atoms: S_24  and  C_27
REMARK                            x       y       z     vdW  Elec       q    Type
REMARK                         _______ _______ _______ _____ _____    ______ ____
ROOT
ATOM      1  C   UNL     1      -3.752  -1.607  -7.328  0.00  0.00    +0.255 C 
ATOM      2  O   UNL     1      -3.232  -2.011  -8.353  0.00  0.00    -0.269 OA
ATOM      3  N   UNL     1      -5.080  -1.379  -7.290  0.00  0.00    -0.281 N 
ATOM      4  H   UNL     1      -5.506  -1.135  -6.454  0.00  0.00    +0.155 HD
ENDROOT
BRANCH   1  12
ATOM      5  N   UNL     1       0.696  -0.417  -1.220  0.00  0.00    -0.310 N 
ATOM      6  C   UNL     1      -0.023  -0.661  -2.373  0.00  0.00    +0.162 A 
ATOM      7  N   UNL     1      -1.315  -0.519  -2.590  0.00  0.00    -0.218 NA
ATOM      8  C   UNL     1      -1.869  -0.796  -3.764  0.00  0.00    +0.118 A 
ATOM      9  C   UNL     1      -1.026  -1.255  -4.793  0.00  0.00    +0.049 A 
ATOM     10  S   UNL     1       0.558  -1.242  -3.958  0.00  0.00    -0.052 S 
ATOM     11  C   UNL     1      -1.597  -1.544  -6.013  0.00  0.00    +0.038 A 
ATOM     12  C   UNL     1      -2.959  -1.375  -6.175  0.00  0.00    +0.077 A 
ATOM     13  S   UNL     1      -3.467  -0.789  -4.570  0.00  0.00    -0.063 S 
BRANCH   5  15
ATOM     14  C   UNL     1      -0.013   1.593  -0.021  0.00  0.00    +0.024 C 
ATOM     15  C   UNL     1       0.011   0.063  -0.018  0.00  0.00    +0.103 C 
ENDBRANCH   5  15
BRANCH   5  16
ATOM     16  C   UNL     1       2.144  -0.638  -1.200  0.00  0.00    +0.103 C 
ATOM     17  C   UNL     1       2.434  -2.078  -0.771  0.00  0.00    +0.024 C 
ENDBRANCH   5  16
ENDBRANCH   1  12
BRANCH   3  18
ATOM     18  C   UNL     1      -5.843  -1.497  -8.455  0.00  0.00    +0.038 A 
ATOM     19  C   UNL     1      -5.245  -1.332  -9.698  0.00  0.00    +0.050 A 
ATOM     20  C   UNL     1      -6.002  -1.449 -10.848  0.00  0.00    +0.090 A 
ATOM     21  C   UNL     1      -7.353  -1.730 -10.762  0.00  0.00    +0.027 A 
ATOM     22  C   UNL     1      -7.951  -1.895  -9.526  0.00  0.00    +0.007 A 
ATOM     23  C   UNL     1      -7.199  -1.784  -8.373  0.00  0.00    -0.029 A 
ATOM     24  C   UNL     1      -7.851  -1.970  -7.027  0.00  0.00    +0.045 C 
BRANCH  20  25
ATOM     25  S   UNL     1      -5.244  -1.240 -12.425  0.00  0.00    -0.006 S 
ATOM     26  O   UNL     1      -6.297  -0.812 -13.278  0.00  0.00    -0.170 OA
ATOM     27  O   UNL     1      -4.123  -0.401 -12.181  0.00  0.00    -0.170 OA
ATOM     28  C   UNL     1      -4.691  -2.901 -12.900  0.00  0.00    +0.200 C 
ENDBRANCH  20  25
ENDBRANCH   3  18
TORSDOF 5
