REMARK  Name = ZINC09461557
REMARK  6 active torsions:
REMARK  status: ('A' for Active; 'I' for Inactive)
REMARK    1  A    between atoms: C_1  and  C_2
REMARK    2  A    between atoms: C_2  and  C_3
REMARK    3  A    between atoms: C_2  and  N_64
REMARK    4  A    between atoms: C_13  and  C_15
REMARK    5  A    between atoms: C_29  and  O_32
REMARK    6  A    between atoms: O_32  and  C_33
REMARK                            x       y       z     vdW  Elec       q    Type
REMARK                         _______ _______ _______ _____ _____    ______ ____
ROOT
ATOM      1  C   UNL     1      -0.754   1.593  -1.232  0.00  0.00    -0.073 C 
ATOM      2  C   UNL     1      -0.013   1.086   0.008  0.00  0.00    +0.052 C 
ATOM      3  C   UNL     1      -0.729   1.579   1.264  0.00  0.00    +0.190 C 
ATOM      4  C   UNL     1      -0.824   3.103   1.242  0.00  0.00    +0.052 C 
ATOM      5  C   UNL     1      -1.539   3.550  -0.035  0.00  0.00    -0.073 C 
ATOM      6  N   UNL     1      -2.069   0.993   1.340  0.00  0.00    -0.207 N 
ATOM      7  C   UNL     1      -2.246  -0.472   1.477  0.00  0.00    +0.136 C 
ATOM      8  C   UNL     1      -3.704  -0.596   1.936  0.00  0.00    +0.086 C 
ATOM      9  C   UNL     1      -4.268   0.793   1.714  0.00  0.00    +0.069 C 
ATOM     10  N   UNL     1      -3.313   1.596   1.372  0.00  0.00    -0.185 NA
ATOM     11  C   UNL     1      -1.277  -0.921   2.539  0.00  0.00    +0.020 A 
ATOM     12  C   UNL     1      -1.449  -2.162   3.128  0.00  0.00    +0.009 A 
ATOM     13  C   UNL     1      -0.565  -2.608   4.090  0.00  0.00    +0.004 A 
ATOM     14  C   UNL     1       0.500  -1.810   4.467  0.00  0.00    +0.049 A 
ATOM     15  C   UNL     1       0.672  -0.567   3.888  0.00  0.00    +0.162 A 
ATOM     16  C   UNL     1      -0.226  -0.104   2.920  0.00  0.00    +0.170 A 
ATOM     17  O   UNL     1      -0.023   1.147   2.429  0.00  0.00    -0.463 OA
ATOM     18  N   UNL     1      -0.772   3.072  -1.206  0.00  0.00    +0.381 N 
ATOM     19  H   UNL     1       0.193   3.415  -1.135  0.00  0.00    -0.081 HD
ENDROOT
BRANCH   9  20
ATOM     20  C   UNL     1      -5.685   1.171   1.864  0.00  0.00    +0.001 A 
ATOM     21  C   UNL     1      -6.630   0.213   2.240  0.00  0.00    +0.013 A 
ATOM     22  C   UNL     1      -7.954   0.570   2.380  0.00  0.00    +0.050 A 
ATOM     23  C   UNL     1      -8.355   1.880   2.148  0.00  0.00    +0.162 A 
ATOM     24  C   UNL     1      -7.419   2.839   1.774  0.00  0.00    +0.163 A 
ATOM     25  C   UNL     1      -6.087   2.489   1.637  0.00  0.00    +0.059 A 
ATOM     26  O   UNL     1      -7.795   4.128   1.548  0.00  0.00    -0.485 OA
ATOM     27  C   UNL     1      -9.191   4.363   1.335  0.00  0.00    +0.270 C 
ATOM     28  C   UNL     1      -9.976   3.600   2.411  0.00  0.00    +0.270 C 
ATOM     29  O   UNL     1      -9.669   2.208   2.287  0.00  0.00    -0.485 OA
ENDBRANCH   9  20
BRANCH  18  31
ATOM     30  C   UNL     1      -1.523   5.109  -2.338  0.00  0.00    -0.014 C 
ATOM     31  C   UNL     1      -1.376   3.590  -2.450  0.00  0.00    -0.075 C 
ATOM     32  C   UNL     1      -0.454   3.253  -3.624  0.00  0.00    -0.014 C 
ENDBRANCH  18  31
BRANCH  15  33
ATOM     33  O   UNL     1       1.722   0.212   4.263  0.00  0.00    -0.491 OA
ATOM     34  C   UNL     1       2.602  -0.318   5.256  0.00  0.00    +0.277 C 
ENDBRANCH  15  33
TORSDOF 3
