REMARK  Name = ZINC02696727
REMARK  8 active torsions:
REMARK  status: ('A' for Active; 'I' for Inactive)
REMARK    1  A    between atoms: C_1  and  C_2
REMARK    2  A    between atoms: N_4  and  C_5
REMARK    3  A    between atoms: C_5  and  C_7
REMARK    4  A    between atoms: C_5  and  N_11
REMARK    5  A    between atoms: N_11  and  C_12
REMARK    6  A    between atoms: C_12  and  N_14
REMARK    7  A    between atoms: N_14  and  C_15
REMARK    8  A    between atoms: C_20  and  N_21
REMARK                            x       y       z     vdW  Elec       q    Type
REMARK                         _______ _______ _______ _____ _____    ______ ____
ROOT
ATOM      1  C   UNL     1       2.391   1.399  -0.004  0.00  0.00    +0.055 A 
ATOM      2  C   UNL     1       2.376   0.071   0.395  0.00  0.00    +0.025 A 
ATOM      3  C   UNL     1       1.186  -0.632   0.410  0.00  0.00    +0.002 A 
ATOM      4  C   UNL     1       0.008  -0.014   0.029  0.00  0.00    +0.002 A 
ATOM      5  C   UNL     1       0.015   1.309  -0.370  0.00  0.00    +0.026 A 
ATOM      6  C   UNL     1       1.204   2.022  -0.388  0.00  0.00    +0.066 A 
ENDROOT
BRANCH   6   7
ATOM      7  N   UNL     1       1.213   3.365  -0.793  0.00  0.00    -0.201 N 
ATOM      8  C   UNL     1       1.397   3.777  -2.060  0.00  0.00    +0.258 C 
ATOM      9  O   UNL     1       1.579   3.056  -3.021  0.00  0.00    -0.269 OA
ATOM     10  C   UNL     1       1.339   5.254  -2.089  0.00  0.00    +0.050 A 
ATOM     11  C   UNL     1       1.455   6.208  -3.087  0.00  0.00    +0.014 A 
ATOM     12  C   UNL     1       1.353   7.553  -2.767  0.00  0.00    +0.001 A 
ATOM     13  C   UNL     1       1.137   7.948  -1.460  0.00  0.00    +0.001 A 
ATOM     14  C   UNL     1       1.018   7.005  -0.451  0.00  0.00    +0.014 A 
ATOM     15  C   UNL     1       1.118   5.657  -0.756  0.00  0.00    +0.050 A 
ATOM     16  C   UNL     1       1.045   4.411   0.036  0.00  0.00    +0.258 C 
ATOM     17  O   UNL     1       0.863   4.343   1.235  0.00  0.00    -0.269 OA
ENDBRANCH   6   7
BRANCH   1  18
ATOM     18  N   UNL     1       3.596   2.114  -0.019  0.00  0.00    -0.295 N 
ATOM     19  H   UNL     1       3.629   3.017   0.334  0.00  0.00    +0.154 HD
BRANCH  18  20
ATOM     20  C   UNL     1       4.709   1.547  -0.526  0.00  0.00    +0.136 C 
ATOM     21  S   UNL     1       4.622   0.010  -1.276  0.00  0.00    -0.019 S 
BRANCH  20  22
ATOM     22  N   UNL     1       5.890   2.190  -0.441  0.00  0.00    -0.305 N 
ATOM     23  H   UNL     1       5.940   3.060  -0.016  0.00  0.00    +0.150 HD
BRANCH  22  24
ATOM     24  C   UNL     1       7.100   1.574  -0.991  0.00  0.00    +0.211 C 
BRANCH  24  28
ATOM     25  C   UNL     1       7.598   2.310  -4.715  0.00  0.00    +0.109 C 
ATOM     26  C   UNL     1       7.229   1.626  -3.424  0.00  0.00    +0.211 C 
ATOM     27  O   UNL     1       6.723   0.523  -3.445  0.00  0.00    -0.276 OA
ATOM     28  N   UNL     1       7.460   2.239  -2.246  0.00  0.00    -0.294 N 
ATOM     29  H   UNL     1       7.864   3.120  -2.229  0.00  0.00    +0.151 HD
ENDBRANCH  24  28
BRANCH  24  30
ATOM     30  C   UNL     1       8.248   1.720   0.010  0.00  0.00    +0.225 C 
ATOM     31 CL   UNL     1       7.805   0.901   1.555  0.00  0.00    -0.080 Cl
ATOM     32 CL   UNL     1       9.737   0.962  -0.667  0.00  0.00    -0.080 Cl
ATOM     33 CL   UNL     1       8.553   3.469   0.323  0.00  0.00    -0.080 Cl
ENDBRANCH  24  30
ENDBRANCH  22  24
ENDBRANCH  20  22
ENDBRANCH  18  20
ENDBRANCH   1  18
TORSDOF 7
