REMARK  Name = ZINC40376223
REMARK  5 active torsions:
REMARK  status: ('A' for Active; 'I' for Inactive)
REMARK    1  A    between atoms: C_1  and  C_2
REMARK    2  A    between atoms: C_6  and  N_8
REMARK    3  A    between atoms: C_14  and  C_19
REMARK    4  A    between atoms: C_19  and  C_20
REMARK    5  A    between atoms: N_22  and  C_23
REMARK                            x       y       z     vdW  Elec       q    Type
REMARK                         _______ _______ _______ _____ _____    ______ ____
ROOT
ATOM      1  N   UNL     1      -3.286  -5.111   0.064  0.00  0.00    -0.215 NA
ATOM      2  C   UNL     1      -2.790  -4.097   0.734  0.00  0.00    +0.202 C 
ATOM      3  N   UNL     1      -2.466  -2.936   0.080  0.00  0.00    -0.369 N 
ATOM      4  N   UNL     1      -2.595  -4.200   2.093  0.00  0.00    -0.295 N 
ATOM      5  C   UNL     1      -3.024  -5.327   2.770  0.00  0.00    +0.230 C 
ATOM      6  N   UNL     1      -2.941  -5.467   4.064  0.00  0.00    -0.236 NA
ATOM      7  C   UNL     1      -3.501  -6.794   4.375  0.00  0.00    +0.208 C 
ATOM      8  C   UNL     1      -3.896  -7.333   3.014  0.00  0.00    +0.274 C 
ATOM      9  O   UNL     1      -4.460  -8.523   2.743  0.00  0.00    -0.268 OA
ATOM     10  N   UNL     1      -3.578  -6.398   2.163  0.00  0.00    -0.176 NA
ATOM     11  H   UNL     1      -2.184  -2.157   0.585  0.00  0.00    +0.159 HD
ATOM     12  H   UNL     1      -2.158  -3.481   2.575  0.00  0.00    +0.172 HD
ATOM     13  H   UNL     1      -2.519  -2.893  -0.888  0.00  0.00    +0.159 HD
ENDROOT
BRANCH   1  19
ATOM     14  C   UNL     1      -2.639  -6.516  -4.582  0.00  0.00    +0.044 C 
ATOM     15  C   UNL     1      -3.299  -5.637  -3.551  0.00  0.00    -0.048 A 
ATOM     16  C   UNL     1      -4.221  -4.683  -3.945  0.00  0.00    +0.003 A 
ATOM     17  C   UNL     1      -4.831  -3.872  -3.005  0.00  0.00    +0.002 A 
ATOM     18  C   UNL     1      -4.524  -4.009  -1.667  0.00  0.00    +0.028 A 
ATOM     19  C   UNL     1      -3.595  -4.970  -1.262  0.00  0.00    +0.068 A 
ATOM     20  C   UNL     1      -2.988  -5.789  -2.216  0.00  0.00    +0.031 A 
ENDBRANCH   1  19
BRANCH   7  21
ATOM     21  C   UNL     1      -2.443  -7.686   5.027  0.00  0.00    +0.132 C 
BRANCH  21  22
ATOM     22  C   UNL     1      -2.080  -7.129   6.379  0.00  0.00    +0.220 C 
ATOM     23  O   UNL     1      -2.614  -6.118   6.782  0.00  0.00    -0.275 OA
ATOM     24  N   UNL     1      -1.161  -7.755   7.141  0.00  0.00    -0.284 N 
ATOM     25  H   UNL     1      -0.674  -8.516   6.788  0.00  0.00    +0.155 HD
BRANCH  24  26
ATOM     26  C   UNL     1      -0.908  -7.306   8.444  0.00  0.00    +0.052 A 
ATOM     27  C   UNL     1      -1.828  -6.490   9.089  0.00  0.00    +0.026 A 
ATOM     28  C   UNL     1      -1.577  -6.049  10.373  0.00  0.00    +0.022 A 
ATOM     29  C   UNL     1      -0.409  -6.419  11.017  0.00  0.00    +0.042 A 
ATOM     30  C   UNL     1       0.510  -7.231  10.377  0.00  0.00    +0.041 A 
ATOM     31  C   UNL     1       0.261  -7.681   9.094  0.00  0.00    +0.064 A 
ATOM     32 CL   UNL     1       1.410  -8.707   8.294  0.00  0.00    -0.082 Cl
ATOM     33 CL   UNL     1      -0.096  -5.861  12.631  0.00  0.00    -0.083 Cl
ENDBRANCH  24  26
ENDBRANCH  21  22
ENDBRANCH   7  21
TORSDOF 4
