REMARK  Name = ZINC43737035
REMARK  4 active torsions:
REMARK  status: ('A' for Active; 'I' for Inactive)
REMARK    1  A    between atoms: C_1  and  C_2
REMARK    2  A    between atoms: C_5  and  O_27
REMARK    3  A    between atoms: C_18  and  C_26
REMARK    4  A    between atoms: N_24  and  O_25
REMARK                            x       y       z     vdW  Elec       q    Type
REMARK                         _______ _______ _______ _____ _____    ______ ____
ROOT
ATOM      1  C   UNL     1      -0.064   1.575  -0.088  0.00  0.00    +0.012 C 
ATOM      2  C   UNL     1      -0.023   0.045  -0.086  0.00  0.00    -0.026 C 
ATOM      3  C   UNL     1       0.692  -0.452  -1.341  0.00  0.00    +0.010 C 
ATOM      4  C   UNL     1       2.128   0.071  -1.364  0.00  0.00    +0.032 C 
ATOM      5  C   UNL     1       2.890  -0.355  -0.110  0.00  0.00    +0.115 C 
ATOM      6  C   UNL     1       2.156   0.110   1.151  0.00  0.00    +0.035 C 
ATOM      7  C   UNL     1       0.744  -0.468   1.135  0.00  0.00    -0.002 C 
ATOM      8  C   UNL     1       0.001  -0.186   2.432  0.00  0.00    +0.004 C 
ATOM      9  C   UNL     1      -1.333  -0.954   2.437  0.00  0.00    +0.004 C 
ATOM     10  C   UNL     1      -1.530  -1.565   1.058  0.00  0.00    -0.003 C 
ATOM     11  C   UNL     1      -1.457  -0.470  -0.014  0.00  0.00    -0.001 C 
ATOM     12  C   UNL     1      -1.992  -1.029  -1.324  0.00  0.00    +0.005 C 
ATOM     13  C   UNL     1      -3.520  -1.206  -1.224  0.00  0.00    +0.013 C 
ATOM     14  C   UNL     1      -3.909  -1.603   0.180  0.00  0.00    +0.012 C 
ATOM     15  C   UNL     1      -2.776  -2.378   0.882  0.00  0.00    +0.004 C 
ATOM     16  C   UNL     1      -3.472  -2.867   2.161  0.00  0.00    +0.010 C 
ATOM     17  C   UNL     1      -4.891  -3.236   1.651  0.00  0.00    +0.055 C 
ATOM     18  C   UNL     1      -5.042  -2.609   0.270  0.00  0.00    +0.064 C 
ATOM     19  N   UNL     1      -5.917  -2.863  -0.617  0.00  0.00    -0.096 NA
ATOM     20  C   UNL     1      -4.350  -0.377   0.984  0.00  0.00    +0.018 C 
ENDROOT
BRANCH  19  21
ATOM     21  O   UNL     1      -6.913  -3.838  -0.370  0.00  0.00    -0.409 OA
ATOM     22  H   UNL     1      -7.533  -3.962  -1.102  0.00  0.00    +0.328 HD
ENDBRANCH  19  21
BRANCH   5  23
ATOM     23  O   UNL     1       4.200   0.218  -0.131  0.00  0.00    -0.392 OA
ATOM     24  H   UNL     1       4.733  -0.048  -0.893  0.00  0.00    +0.210 HD
ENDBRANCH   5  23
TORSDOF 2
