REMARK  Name = ZINC67217165
REMARK  9 active torsions:
REMARK  status: ('A' for Active; 'I' for Inactive)
REMARK    1  A    between atoms: C_1  and  C_2
REMARK    2  A    between atoms: C_6  and  N_9
REMARK    3  A    between atoms: C_7  and  C_8
REMARK    4  A    between atoms: C_18  and  S_19
REMARK    5  A    between atoms: S_19  and  C_20
REMARK    6  A    between atoms: C_20  and  C_21
REMARK    7  A    between atoms: N_23  and  C_24
REMARK    8  A    between atoms: C_27  and  O_31
REMARK    9  A    between atoms: O_31  and  C_32
REMARK                            x       y       z     vdW  Elec       q    Type
REMARK                         _______ _______ _______ _____ _____    ______ ____
ROOT
ATOM      1  N   UNL     1       0.051  -2.788   2.401  0.00  0.00    -0.255 N 
ATOM      2  C   UNL     1      -1.109  -3.149   2.999  0.00  0.00    +0.274 A 
ATOM      3  O   UNL     1      -2.185  -2.872   2.495  0.00  0.00    -0.266 OA
ATOM      4  C   UNL     1      -1.042  -3.845   4.203  0.00  0.00    +0.102 A 
ATOM      5  C   UNL     1       0.190  -4.173   4.797  0.00  0.00    +0.086 A 
ATOM      6  C   UNL     1       0.108  -4.874   6.008  0.00  0.00    +0.036 A 
ATOM      7  C   UNL     1      -1.097  -5.191   6.529  0.00  0.00    +0.048 A 
ATOM      8  S   UNL     1      -2.235  -4.513   5.333  0.00  0.00    -0.090 S 
ATOM      9  N   UNL     1       1.309  -3.769   4.124  0.00  0.00    -0.222 NA
ATOM     10  C   UNL     1       1.239  -3.122   2.993  0.00  0.00    +0.177 A 
ENDROOT
BRANCH   1  16
ATOM     11  C   UNL     1      -0.011   1.496  -0.013  0.00  0.00    +0.044 C 
ATOM     12  C   UNL     1       0.005  -0.011  -0.011  0.00  0.00    -0.046 A 
ATOM     13  C   UNL     1       0.005  -0.703  -1.208  0.00  0.00    +0.004 A 
ATOM     14  C   UNL     1       0.021  -2.086  -1.210  0.00  0.00    +0.002 A 
ATOM     15  C   UNL     1       0.036  -2.780  -0.016  0.00  0.00    +0.026 A 
ATOM     16  C   UNL     1       0.036  -2.087   1.188  0.00  0.00    +0.055 A 
ATOM     17  C   UNL     1       0.026  -0.699   1.187  0.00  0.00    -0.024 A 
ATOM     18  C   UNL     1       0.032   0.057   2.491  0.00  0.00    +0.046 C 
ENDBRANCH   1  16
BRANCH  10  19
ATOM     19  S   UNL     1       2.739  -2.650   2.197  0.00  0.00    -0.078 S 
BRANCH  19  20
ATOM     20  C   UNL     1       4.036  -3.277   3.299  0.00  0.00    +0.173 C 
BRANCH  20  21
ATOM     21  C   UNL     1       5.388  -2.937   2.728  0.00  0.00    +0.227 C 
ATOM     22  O   UNL     1       5.469  -2.330   1.680  0.00  0.00    -0.275 OA
ATOM     23  N   UNL     1       6.508  -3.306   3.381  0.00  0.00    -0.285 N 
ATOM     24  H   UNL     1       6.444  -3.731   4.250  0.00  0.00    +0.155 HD
BRANCH  23  25
ATOM     25  C   UNL     1       7.763  -3.076   2.804  0.00  0.00    +0.035 A 
ATOM     26  C   UNL     1       8.793  -3.989   2.992  0.00  0.00    +0.027 A 
ATOM     27  C   UNL     1      10.030  -3.762   2.423  0.00  0.00    +0.049 A 
ATOM     28  C   UNL     1      10.246  -2.622   1.663  0.00  0.00    +0.138 A 
ATOM     29  C   UNL     1       9.218  -1.708   1.474  0.00  0.00    +0.084 A 
ATOM     30  C   UNL     1       7.978  -1.937   2.038  0.00  0.00    +0.047 A 
ATOM     31 CL   UNL     1       9.489  -0.281   0.522  0.00  0.00    -0.080 Cl
BRANCH  28  32
ATOM     32  O   UNL     1      11.465  -2.399   1.102  0.00  0.00    -0.494 OA
ATOM     33  C   UNL     1      12.476  -3.381   1.338  0.00  0.00    +0.277 C 
ENDBRANCH  28  32
ENDBRANCH  23  25
ENDBRANCH  20  21
ENDBRANCH  19  20
ENDBRANCH  10  19
TORSDOF 6
