REMARK  Name = ZINC06788328
REMARK  6 active torsions:
REMARK  status: ('A' for Active; 'I' for Inactive)
REMARK    1  A    between atoms: C_1  and  C_2
REMARK    2  A    between atoms: C_6  and  C_13
REMARK    3  A    between atoms: C_13  and  N_14
REMARK    4  A    between atoms: C_19  and  C_26
REMARK    5  A    between atoms: C_22  and  C_24
REMARK    6  A    between atoms: C_22  and  C_25
REMARK                            x       y       z     vdW  Elec       q    Type
REMARK                         _______ _______ _______ _____ _____    ______ ____
ROOT
ATOM      1  N   UNL     1      -4.237   0.607  -1.157  0.00  0.00    -0.220 N 
ATOM      2  C   UNL     1      -3.118   1.345  -0.983  0.00  0.00    +0.247 C 
ATOM      3  O   UNL     1      -2.301   1.608  -1.839  0.00  0.00    -0.273 OA
ATOM      4  C   UNL     1      -3.133   1.779   0.462  0.00  0.00    +0.113 C 
ATOM      5  C   UNL     1      -3.040   3.294   0.576  0.00  0.00    +0.038 C 
ATOM      6  C   UNL     1      -1.625   3.756   0.227  0.00  0.00    -0.011 C 
ATOM      7  C   UNL     1      -0.653   3.154   1.240  0.00  0.00    +0.009 C 
ATOM      8  C   UNL     1      -0.676   1.631   1.186  0.00  0.00    -0.032 C 
ATOM      9  C   UNL     1      -2.081   1.063   1.284  0.00  0.00    +0.041 C 
ATOM     10  C   UNL     1       0.021   1.139  -0.086  0.00  0.00    +0.011 C 
ATOM     11  C   UNL     1       0.137   1.106   2.389  0.00  0.00    +0.011 C 
ATOM     12  C   UNL     1      -1.558   5.284   0.305  0.00  0.00    +0.007 C 
ATOM     13  N   UNL     1      -4.470   1.348   0.931  0.00  0.00    -0.285 N 
ATOM     14  C   UNL     1      -5.008   0.623  -0.064  0.00  0.00    +0.310 C 
ATOM     15  O   UNL     1      -6.075   0.045   0.018  0.00  0.00    -0.252 OA
ATOM     16  H   UNL     1      -4.864   1.556   1.790  0.00  0.00    +0.151 HD
ENDROOT
BRANCH   1  17
ATOM     17  C   UNL     1      -4.561  -0.117  -2.388  0.00  0.00    +0.154 C 
BRANCH  17  23
ATOM     18  C   UNL     1      -4.080  -4.982  -6.895  0.00  0.00    +0.044 C 
ATOM     19  C   UNL     1      -4.032  -4.062  -5.703  0.00  0.00    -0.047 A 
ATOM     20  C   UNL     1      -4.650  -2.821  -5.768  0.00  0.00    +0.004 A 
ATOM     21  C   UNL     1      -4.618  -1.974  -4.697  0.00  0.00    +0.012 A 
ATOM     22  C   UNL     1      -3.962  -2.363  -3.524  0.00  0.00    +0.022 A 
ATOM     23  C   UNL     1      -3.904  -1.474  -2.360  0.00  0.00    -0.012 A 
ATOM     24  C   UNL     1      -3.247  -1.907  -1.255  0.00  0.00    +0.098 A 
ATOM     25  C   UNL     1      -2.640  -3.182  -1.254  0.00  0.00    +0.338 A 
ATOM     26  O   UNL     1      -2.053  -3.560  -0.256  0.00  0.00    -0.245 OA
ATOM     27  O   UNL     1      -2.692  -3.988  -2.326  0.00  0.00    -0.422 OA
ATOM     28  C   UNL     1      -3.330  -3.617  -3.457  0.00  0.00    +0.140 A 
ATOM     29  C   UNL     1      -3.376  -4.462  -4.558  0.00  0.00    +0.050 A 
ENDBRANCH  17  23
ENDBRANCH   1  17
TORSDOF 2
