REMARK  Name = ZINC08331435
REMARK  3 active torsions:
REMARK  status: ('A' for Active; 'I' for Inactive)
REMARK    1  A    between atoms: C_8  and  C_11
REMARK    2  A    between atoms: N_13  and  C_14
REMARK    3  A    between atoms: C_17  and  C_21
REMARK                            x       y       z     vdW  Elec       q    Type
REMARK                         _______ _______ _______ _____ _____    ______ ____
ROOT
ATOM      1  C   UNL     1      -1.245   6.253  -0.053  0.00  0.00    +0.248 C 
ATOM      2  O   UNL     1      -2.293   5.635  -0.046  0.00  0.00    -0.270 OA
ATOM      3  N   UNL     1      -0.072   5.594   0.034  0.00  0.00    -0.282 N 
ATOM      4  H   UNL     1       0.758   6.089   0.106  0.00  0.00    +0.155 HD
ENDROOT
BRANCH   1  12
ATOM      5  C   UNL     1      -3.425  12.001  -0.249  0.00  0.00    +0.001 A 
ATOM      6  C   UNL     1      -2.225  12.595  -0.603  0.00  0.00    +0.004 A 
ATOM      7  C   UNL     1      -1.101  11.825  -0.841  0.00  0.00    +0.046 A 
ATOM      8  C   UNL     1      -1.172  10.448  -0.723  0.00  0.00    +0.128 A 
ATOM      9  C   UNL     1      -2.388   9.844  -0.362  0.00  0.00    +0.017 A 
ATOM     10  C   UNL     1      -3.516  10.630  -0.126  0.00  0.00    +0.011 A 
ATOM     11  C   UNL     1      -2.435   8.378  -0.247  0.00  0.00    +0.023 C 
ATOM     12  C   UNL     1      -1.257   7.712  -0.154  0.00  0.00    +0.052 C 
ATOM     13  C   UNL     1       0.038   8.481  -0.163  0.00  0.00    +0.269 C 
ATOM     14  O   UNL     1      -0.089   9.665  -0.950  0.00  0.00    -0.487 OA
ENDBRANCH   1  12
BRANCH   3  15
ATOM     15  C   UNL     1      -0.054   4.200   0.019  0.00  0.00    +0.035 A 
ATOM     16  C   UNL     1      -0.994   3.501  -0.733  0.00  0.00    +0.024 A 
ATOM     17  C   UNL     1      -0.979   2.125  -0.751  0.00  0.00    +0.022 A 
ATOM     18  C   UNL     1      -0.019   1.428  -0.011  0.00  0.00    +0.070 A 
ATOM     19  C   UNL     1       0.920   2.133   0.750  0.00  0.00    +0.060 A 
ATOM     20  C   UNL     1       0.903   3.511   0.757  0.00  0.00    +0.044 A 
ATOM     21 CL   UNL     1       2.110   1.273   1.677  0.00  0.00    -0.082 Cl
BRANCH  18  22
ATOM     22  C   UNL     1      -0.001  -0.004  -0.027  0.00  0.00    +0.101 C 
ATOM     23  N   UNL     1       0.013  -1.140  -0.039  0.00  0.00    -0.191 NA
ENDBRANCH  18  22
ENDBRANCH   3  15
TORSDOF 3
