REMARK  Name = ZINC01044766
REMARK  8 active torsions:
REMARK  status: ('A' for Active; 'I' for Inactive)
REMARK    1  A    between atoms: C_4  and  C_28
REMARK    2  A    between atoms: C_5  and  C_7
REMARK    3  A    between atoms: N_10  and  C_12
REMARK    4  A    between atoms: C_12  and  C_13
REMARK    5  A    between atoms: N_15  and  N_16
REMARK    6  A    between atoms: N_16  and  C_17
REMARK    7  A    between atoms: C_17  and  N_19
REMARK    8  A    between atoms: N_19  and  C_20
REMARK                            x       y       z     vdW  Elec       q    Type
REMARK                         _______ _______ _______ _____ _____    ______ ____
ROOT
ATOM      1  C   UNL     1       3.608  -0.884   0.228  0.00  0.00    +0.252 C 
ATOM      2  O   UNL     1       4.601  -0.292  -0.137  0.00  0.00    -0.272 OA
ATOM      3  N   UNL     1       2.403  -0.284   0.160  0.00  0.00    -0.234 N 
ATOM      4  H   UNL     1       1.608  -0.757   0.452  0.00  0.00    +0.173 HD
ENDROOT
BRANCH   3   5
ATOM      5  N   UNL     1       2.298   1.024  -0.331  0.00  0.00    -0.246 N 
ATOM      6  H   UNL     1       3.092   1.498  -0.623  0.00  0.00    +0.172 HD
BRANCH   5   7
ATOM      7  C   UNL     1       1.093   1.624  -0.398  0.00  0.00    +0.151 C 
ATOM      8  S   UNL     1       0.965   3.222  -0.999  0.00  0.00    -0.017 S 
BRANCH   7   9
ATOM      9  N   UNL     1      -0.011   0.966   0.007  0.00  0.00    -0.296 N 
ATOM     10  H   UNL     1       0.052   0.040   0.289  0.00  0.00    +0.154 HD
BRANCH   9  11
ATOM     11  C   UNL     1      -1.250   1.617   0.017  0.00  0.00    +0.034 A 
ATOM     12  C   UNL     1      -2.092   1.493   1.114  0.00  0.00    +0.025 A 
ATOM     13  C   UNL     1      -3.312   2.141   1.124  0.00  0.00    +0.023 A 
ATOM     14  C   UNL     1      -3.700   2.904   0.037  0.00  0.00    +0.059 A 
ATOM     15  C   UNL     1      -2.865   3.024  -1.062  0.00  0.00    +0.061 A 
ATOM     16  C   UNL     1      -1.641   2.382  -1.073  0.00  0.00    +0.044 A 
ATOM     17 CL   UNL     1      -3.356   3.982  -2.424  0.00  0.00    -0.082 Cl
ATOM     18 CL   UNL     1      -5.237   3.712   0.050  0.00  0.00    -0.082 Cl
ENDBRANCH   9  11
ENDBRANCH   7   9
ENDBRANCH   5   7
ENDBRANCH   3   5
BRANCH   1  19
ATOM     19  C   UNL     1       3.721  -2.291   0.756  0.00  0.00    +0.265 C 
BRANCH  19  23
ATOM     20  C   UNL     1       7.124  -3.054   1.293  0.00  0.00    +0.205 A 
ATOM     21  N   UNL     1       6.934  -3.528   0.053  0.00  0.00    -0.108 NA
ATOM     22  N   UNL     1       5.702  -3.307  -0.257  0.00  0.00    -0.045 NA
ATOM     23  N   UNL     1       5.123  -2.712   0.727  0.00  0.00    -0.154 N 
ATOM     24  N   UNL     1       5.970  -2.550   1.685  0.00  0.00    -0.130 NA
BRANCH  20  29
ATOM     25  C   UNL     1       9.606  -2.591   4.079  0.00  0.00    +0.001 A 
ATOM     26  C   UNL     1      10.741  -3.157   3.527  0.00  0.00    +0.001 A 
ATOM     27  C   UNL     1      10.704  -3.690   2.252  0.00  0.00    +0.013 A 
ATOM     28  C   UNL     1       9.532  -3.659   1.522  0.00  0.00    +0.066 A 
ATOM     29  C   UNL     1       8.386  -3.090   2.073  0.00  0.00    +0.034 A 
ATOM     30  C   UNL     1       8.431  -2.550   3.356  0.00  0.00    +0.012 A 
BRANCH  28  31
ATOM     31  C   UNL     1       9.493  -4.240   0.132  0.00  0.00    +0.418 C 
ATOM     32  F   UNL     1      10.754  -4.748  -0.197  0.00  0.00    -0.166 F 
ATOM     33  F   UNL     1       8.548  -5.271   0.084  0.00  0.00    -0.166 F 
ATOM     34  F   UNL     1       9.140  -3.241  -0.781  0.00  0.00    -0.166 F 
ENDBRANCH  28  31
ENDBRANCH  20  29
ENDBRANCH  19  23
ENDBRANCH   1  19
TORSDOF 8
