REMARK  Name = ZINC14359053
REMARK  15 active torsions:
REMARK  status: ('A' for Active; 'I' for Inactive)
REMARK    1  A    between atoms: C_6  and  C_7
REMARK    2  A    between atoms: C_7  and  S_8
REMARK    3  A    between atoms: S_8  and  C_9
REMARK    4  A    between atoms: C_9  and  C_10
REMARK    5  A    between atoms: C_10  and  C_12
REMARK    6  A    between atoms: C_10  and  N_20
REMARK    7  A    between atoms: C_12  and  N_14
REMARK    8  A    between atoms: C_12  and  O_19
REMARK    9  A    between atoms: N_14  and  CA_15
REMARK   10  A    between atoms: CA_15  and  C_16
REMARK   11  A    between atoms: C_21  and  C_23
REMARK   12  A    between atoms: C_23  and  C_24
REMARK   13  A    between atoms: C_24  and  C_25
REMARK   14  A    between atoms: C_25  and  C_27
REMARK   15  A    between atoms: C_25  and  N_30
REMARK                            x       y       z     vdW  Elec       q    Type
REMARK                         _______ _______ _______ _____ _____    ______ ____
ROOT
ATOM      1  C   UNK A   1       1.135   6.632   2.951  0.00  0.00    +0.094 C 
ENDROOT
BRANCH   1   2
ATOM      2  N   UNK A   1       2.398   6.322   3.627  0.00  0.00    -0.311 N 
ATOM      3  C   UNK A   1       2.459   6.318   4.973  0.00  0.00    +0.213 C 
ATOM      4  O   UNK A   1       1.468   6.569   5.626  0.00  0.00    -0.276 OA
ATOM      5  H   UNK A   1       3.297   6.094   3.035  0.00  0.00    +0.149 HD
BRANCH   3   6
ATOM      6  C   UNK A   1       3.757   5.999   5.668  0.00  0.00    +0.095 C 
BRANCH   6   7
ATOM      7  C   UNK A   1       3.554   6.061   7.183  0.00  0.00    +0.004 C 
BRANCH   7   8
ATOM      8  C   UNK A   1       4.873   5.738   7.888  0.00  0.00    +0.041 C 
BRANCH   8   9
ATOM      9  N   UNK A   1       5.859   6.784   7.585  0.00  0.00    +0.387 N 
ATOM     10  H   UNK A   1       6.807   6.551   8.092  0.00  0.00    -0.089 HD
ATOM     11  H   UNK A   1       5.483   7.755   7.938  0.00  0.00    -0.089 HD
ATOM     12  H   UNK A   1       6.026   6.827   6.499  0.00  0.00    -0.089 HD
ENDBRANCH   8   9
BRANCH   8  13
ATOM     13  C   UNK A   1       4.645   5.678   9.377  0.00  0.00    +0.342 C 
ATOM     14  O   UNK A   1       4.938   6.623  10.071  0.00  0.00    -0.248 OA
ATOM     15  O   UNK A   1       4.117   4.576   9.931  0.00  0.00    -0.248 OA
ENDBRANCH   8  13
ENDBRANCH   7   8
ENDBRANCH   6   7
ENDBRANCH   3   6
ENDBRANCH   1   2
BRANCH   1  16
ATOM     16  C   UNK A   1       1.131   5.994   1.561  0.00  0.00    +0.092 C 
BRANCH  16  17
ATOM     17  S   UNK A   1       1.158   4.188   1.724  0.00  0.00    -0.154 S 
BRANCH  17  18
ATOM     18  C   UNK A   1       1.150   3.592   0.010  0.00  0.00    +0.104 C 
BRANCH  18  24
ATOM     19  C   UNK A   1      -0.017   1.378   0.010  0.00  0.00    +0.005 A 
ATOM     20  C   UNK A   1       0.002  -0.004   0.002  0.00  0.00    +0.015 A 
ATOM     21  C   UNK A   1       1.209  -0.679  -0.013  0.00  0.00    +0.018 A 
ATOM     22  C   UNK A   1       2.397   0.029  -0.021  0.00  0.00    +0.015 A 
ATOM     23  C   UNK A   1       2.378   1.411  -0.013  0.00  0.00    +0.005 A 
ATOM     24  C   UNK A   1       1.171   2.086   0.002  0.00  0.00    -0.037 A 
ATOM     25 BR   UNK A   1       1.236  -2.570  -0.023  0.00  0.00    -0.050 Br
ENDBRANCH  18  24
ENDBRANCH  17  18
ENDBRANCH  16  17
ENDBRANCH   1  16
BRANCH   1  26
ATOM     26  C   UNK A   1       0.987   8.149   2.817  0.00  0.00    +0.081 C 
BRANCH  26  27
ATOM     27  N   GLY A   2       2.107   8.683   2.031  0.00  0.00    +0.404 N 
ATOM     28  H1  GLY A   2       2.900   9.029   2.710  0.00  0.00    -0.081 HD
ATOM     29  H2  GLY A   2       2.504   7.893   1.376  0.00  0.00    -0.081 HD
BRANCH  27  30
ATOM     30  CA  GLY A   2       1.673   9.812   1.197  0.00  0.00    +0.048 C 
BRANCH  30  31
ATOM     31  C   GLY A   2       2.846  10.332   0.406  0.00  0.00    +0.340 C 
ATOM     32  O   GLY A   2       3.932   9.815   0.525  0.00  0.00    -0.249 OA
ATOM     33  OXT GLY A   2       2.685  11.370  -0.430  0.00  0.00    -0.249 OA
ENDBRANCH  30  31
ENDBRANCH  27  30
ENDBRANCH  26  27
BRANCH  26  34
ATOM     34  O   UNK A   1       0.991   8.745   4.116  0.00  0.00    -0.408 OA
ATOM     35  H   UNK A   1       0.894   9.835   4.222  0.00  0.00    +0.207 HD
ENDBRANCH  26  34
ENDBRANCH   1  26
TORSDOF 15
