REMARK  Name = ZINC03008561
REMARK  6 active torsions:
REMARK  status: ('A' for Active; 'I' for Inactive)
REMARK    1  A    between atoms: C_1  and  C_2
REMARK    2  A    between atoms: C_5  and  N_8
REMARK    3  A    between atoms: C_9  and  N_18
REMARK    4  A    between atoms: C_19  and  C_21
REMARK    5  A    between atoms: C_26  and  O_27
REMARK    6  A    between atoms: O_27  and  C_28
REMARK                            x       y       z     vdW  Elec       q    Type
REMARK                         _______ _______ _______ _____ _____    ______ ____
ROOT
ATOM      1  N   UNL     1       0.005   1.295  -0.196  0.00  0.00    -0.218 N 
ATOM      2  C   UNL     1      -0.021  -0.033   0.076  0.00  0.00    +0.134 A 
ATOM      3  C   UNL     1       1.270  -0.430   0.340  0.00  0.00    +0.038 A 
ATOM      4  C   UNL     1       2.087   0.682   0.225  0.00  0.00    +0.091 A 
ATOM      5  N   UNL     1       1.331   1.722  -0.098  0.00  0.00    -0.168 NA
ATOM      6  C   UNL     1       3.578   0.469   0.480  0.00  0.00    +0.223 C 
ATOM      7  S   UNL     1       3.586  -1.169   1.318  0.00  0.00    -0.021 S 
ATOM      8  O   UNL     1       3.525  -0.978   2.725  0.00  0.00    -0.174 OA
ATOM      9  O   UNL     1       4.610  -1.980   0.760  0.00  0.00    -0.174 OA
ATOM     10  C   UNL     1       1.949  -1.747   0.710  0.00  0.00    +0.206 C 
ENDROOT
BRANCH   1  15
ATOM     11  C   UNL     1      -4.464   4.532  -1.522  0.00  0.00    +0.044 C 
ATOM     12  C   UNL     1      -3.277   3.672  -1.169  0.00  0.00    -0.050 A 
ATOM     13  C   UNL     1      -2.313   4.150  -0.301  0.00  0.00    +0.005 A 
ATOM     14  C   UNL     1      -1.224   3.365   0.023  0.00  0.00    +0.028 A 
ATOM     15  C   UNL     1      -1.098   2.094  -0.523  0.00  0.00    +0.067 A 
ATOM     16  C   UNL     1      -2.066   1.620  -1.399  0.00  0.00    +0.028 A 
ATOM     17  C   UNL     1      -3.155   2.408  -1.715  0.00  0.00    +0.005 A 
ENDBRANCH   1  15
BRANCH   2  18
ATOM     18  N   UNL     1      -1.151  -0.849   0.086  0.00  0.00    -0.266 N 
ATOM     19  C   UNL     1      -1.038  -2.161  -0.200  0.00  0.00    +0.253 C 
ATOM     20  O   UNL     1       0.057  -2.644  -0.415  0.00  0.00    -0.270 OA
ATOM     21  H   UNL     1      -2.020  -0.472   0.298  0.00  0.00    +0.157 HD
BRANCH  19  22
ATOM     22  C   UNL     1      -2.242  -3.011  -0.253  0.00  0.00    +0.080 A 
ATOM     23  C   UNL     1      -3.503  -2.460  -0.007  0.00  0.00    +0.036 A 
ATOM     24  C   UNL     1      -4.625  -3.260  -0.058  0.00  0.00    +0.042 A 
ATOM     25  C   UNL     1      -4.507  -4.610  -0.352  0.00  0.00    +0.023 A 
ATOM     26  C   UNL     1      -3.268  -5.166  -0.597  0.00  0.00    +0.048 A 
ATOM     27  C   UNL     1      -2.130  -4.375  -0.555  0.00  0.00    +0.132 A 
ATOM     28 CL   UNL     1      -6.190  -2.574   0.247  0.00  0.00    -0.084 Cl
BRANCH  27  29
ATOM     29  O   UNL     1      -0.912  -4.919  -0.802  0.00  0.00    -0.494 OA
ATOM     30  C   UNL     1      -0.875  -6.316  -1.103  0.00  0.00    +0.277 C 
ENDBRANCH  27  29
ENDBRANCH  19  22
ENDBRANCH   2  18
TORSDOF 4
