REMARK  Name = ZINC14832050
REMARK  13 active torsions:
REMARK  status: ('A' for Active; 'I' for Inactive)
REMARK    1  A    between atoms: C_1  and  C_2
REMARK    2  A    between atoms: C_2  and  C_3
REMARK    3  A    between atoms: C_3  and  C_5
REMARK    4  A    between atoms: C_3  and  C_6
REMARK    5  A    between atoms: C_9  and  O_13
REMARK    6  A    between atoms: O_13  and  C_14
REMARK    7  A    between atoms: C_14  and  C_15
REMARK    8  A    between atoms: N_17  and  C_18
REMARK    9  A    between atoms: C_22  and  O_24
REMARK   10  A    between atoms: O_24  and  C_25
REMARK   11  A    between atoms: C_25  and  C_26
REMARK   12  A    between atoms: C_26  and  C_27
REMARK   13  A    between atoms: C_26  and  C_28
REMARK                            x       y       z     vdW  Elec       q    Type
REMARK                         _______ _______ _______ _____ _____    ______ ____
ROOT
ATOM      1  C   UNL     1       1.092   5.931   0.125  0.00  0.00    +0.255 C 
ATOM      2  O   UNL     1       2.151   5.339   0.113  0.00  0.00    -0.272 OA
ATOM      3  N   UNL     1      -0.064   5.245   0.030  0.00  0.00    -0.283 N 
ATOM      4  H   UNL     1      -0.906   5.721  -0.037  0.00  0.00    +0.155 HD
ENDROOT
BRANCH   3   5
ATOM      5  C   UNL     1      -0.050   3.846   0.029  0.00  0.00    +0.037 A 
ATOM      6  C   UNL     1       0.906   3.159   0.767  0.00  0.00    +0.023 A 
ATOM      7  C   UNL     1       0.920   1.778   0.765  0.00  0.00    +0.005 A 
ATOM      8  C   UNL     1      -0.016   1.076   0.030  0.00  0.00    +0.046 A 
ATOM      9  C   UNL     1      -0.969   1.756  -0.714  0.00  0.00    +0.122 A 
ATOM     10  C   UNL     1      -0.990   3.143  -0.711  0.00  0.00    +0.069 A 
BRANCH   9  11
ATOM     11  O   UNL     1      -1.885   1.064  -1.442  0.00  0.00    -0.492 OA
BRANCH  11  12
ATOM     12  C   UNL     1      -1.808  -0.362  -1.395  0.00  0.00    +0.232 C 
BRANCH  12  13
ATOM     13  C   UNL     1      -2.911  -0.961  -2.269  0.00  0.00    +0.020 C 
ATOM     14  C   UNL     1      -2.752  -2.482  -2.319  0.00  0.00    +0.010 C 
ATOM     15  C   UNL     1      -4.277  -0.611  -1.677  0.00  0.00    +0.010 C 
ENDBRANCH  12  13
ENDBRANCH  11  12
ENDBRANCH   9  11
ENDBRANCH   3   5
BRANCH   1  16
ATOM     16  C   UNL     1       1.070   7.433   0.247  0.00  0.00    +0.324 C 
BRANCH  16  17
ATOM     17  O   UNL     1       2.409   7.924   0.332  0.00  0.00    -0.482 OA
BRANCH  17  21
ATOM     18  C   UNL     1       2.888  12.007   0.681  0.00  0.00    -0.043 A 
ATOM     19  C   UNL     1       1.619  11.466   0.595  0.00  0.00    +0.007 A 
ATOM     20  C   UNL     1       1.456  10.099   0.472  0.00  0.00    +0.047 A 
ATOM     21  C   UNL     1       2.567   9.269   0.447  0.00  0.00    +0.135 A 
ATOM     22  C   UNL     1       3.840   9.814   0.534  0.00  0.00    +0.060 A 
ATOM     23  C   UNL     1       3.998  11.183   0.651  0.00  0.00    +0.022 A 
ATOM     24 BR   UNL     1       5.358   8.687   0.493  0.00  0.00    -0.047 Br
BRANCH  18  25
ATOM     25  C   UNL     1       3.063  13.498   0.809  0.00  0.00    +0.016 C 
ATOM     26  C   UNL     1       2.364  13.987   2.080  0.00  0.00    +0.012 C 
BRANCH  25  28
ATOM     27  C   UNL     1       2.733  15.692  -0.342  0.00  0.00    +0.004 C 
ATOM     28  C   UNL     1       2.447  14.190  -0.409  0.00  0.00    +0.004 C 
ENDBRANCH  25  28
ENDBRANCH  18  25
ENDBRANCH  17  21
ENDBRANCH  16  17
ENDBRANCH   1  16
TORSDOF 9
