REMARK  Name = ZINC03111072
REMARK  4 active torsions:
REMARK  status: ('A' for Active; 'I' for Inactive)
REMARK    1  A    between atoms: C_3  and  N_11
REMARK    2  A    between atoms: C_6  and  C_7
REMARK    3  A    between atoms: N_21  and  C_24
REMARK    4  A    between atoms: C_27  and  C_29
REMARK                            x       y       z     vdW  Elec       q    Type
REMARK                         _______ _______ _______ _____ _____    ______ ____
ROOT
ATOM      1  N   UNL     1       1.061  -8.196  -0.281  0.00  0.00    -0.269 N 
ATOM      2  C   UNL     1       1.088  -6.849  -0.264  0.00  0.00    +0.309 C 
ATOM      3  O   UNL     1       1.474  -6.236  -1.240  0.00  0.00    -0.252 OA
ATOM      4  N   UNL     1       0.687  -6.181   0.836  0.00  0.00    -0.255 N 
ATOM      5  C   UNL     1       0.191  -6.767   2.102  0.00  0.00    +0.140 C 
ATOM      6  C   UNL     1       0.418  -5.621   3.121  0.00  0.00    +0.181 C 
ATOM      7  O   UNL     1       0.132  -4.443   2.331  0.00  0.00    -0.354 OA
ATOM      8  C   UNL     1       0.652  -4.723   1.022  0.00  0.00    +0.142 C 
ATOM      9  C   UNL     1      -0.253  -4.089  -0.036  0.00  0.00    +0.074 C 
ATOM     10  C   UNL     1      -0.237  -2.568   0.131  0.00  0.00    +0.111 C 
ATOM     11  N   UNL     1       1.139  -2.074  -0.006  0.00  0.00    -0.315 N 
ATOM     12  C   UNL     1       2.011  -2.630   1.037  0.00  0.00    +0.111 C 
ATOM     13  C   UNL     1       2.066  -4.154   0.898  0.00  0.00    +0.074 C 
ATOM     14  H   UNL     1       0.679  -8.684   0.466  0.00  0.00    +0.156 HD
ENDROOT
BRANCH  11  15
ATOM     15  C   UNL     1       1.173  -0.684   0.004  0.00  0.00    +0.118 A 
ATOM     16  C   UNL     1       2.223  -0.015  -0.620  0.00  0.00    +0.079 A 
ATOM     17  C   UNL     1       2.243   1.369  -0.602  0.00  0.00    +0.037 A 
ATOM     18  C   UNL     1       1.211   2.039   0.042  0.00  0.00    +0.072 A 
ATOM     19  C   UNL     1       0.202   1.311   0.640  0.00  0.00    +0.096 A 
ATOM     20 CL   UNL     1       3.488  -0.903  -1.409  0.00  0.00    -0.080 Cl
ATOM     21  N   UNL     1       0.149  -0.048   0.643  0.00  0.00    -0.348 N 
ATOM     22  H   UNL     1      -0.614  -0.564   1.096  0.00  0.00    +0.167 HD
BRANCH  18  23
ATOM     23  C   UNL     1       1.192   3.545   0.087  0.00  0.00    +0.419 C 
ATOM     24  F   UNL     1       0.059   3.976   0.786  0.00  0.00    -0.166 F 
ATOM     25  F   UNL     1       2.343   4.007   0.734  0.00  0.00    -0.166 F 
ATOM     26  F   UNL     1       1.155   4.050  -1.217  0.00  0.00    -0.166 F 
ENDBRANCH  18  23
ENDBRANCH  11  15
BRANCH   1  29
ATOM     27  C   UNL     1       3.209  -9.087  -3.130  0.00  0.00    +0.014 A 
ATOM     28  C   UNL     1       2.694  -8.398  -2.049  0.00  0.00    +0.024 A 
ATOM     29  C   UNL     1       1.585  -8.893  -1.376  0.00  0.00    +0.035 A 
ATOM     30  C   UNL     1       1.001 -10.083  -1.788  0.00  0.00    +0.024 A 
ATOM     31  C   UNL     1       1.517 -10.765  -2.872  0.00  0.00    +0.014 A 
ATOM     32  C   UNL     1       2.622 -10.269  -3.541  0.00  0.00    +0.055 A 
BRANCH  32  33
ATOM     33  C   UNL     1       3.186 -11.019  -4.720  0.00  0.00    +0.417 C 
ATOM     34  F   UNL     1       4.154 -11.927  -4.276  0.00  0.00    -0.166 F 
ATOM     35  F   UNL     1       2.158 -11.713  -5.367  0.00  0.00    -0.166 F 
ATOM     36  F   UNL     1       3.770 -10.114  -5.612  0.00  0.00    -0.166 F 
ENDBRANCH  32  33
ENDBRANCH   1  29
TORSDOF 4
