REMARK  Name = ZINC14032048
REMARK  15 active torsions:
REMARK  status: ('A' for Active; 'I' for Inactive)
REMARK    1  A    between atoms: C_1  and  C_2
REMARK    2  A    between atoms: C_2  and  C_3
REMARK    3  A    between atoms: C_3  and  C_4
REMARK    4  A    between atoms: C_4  and  O_5
REMARK    5  A    between atoms: O_5  and  C_6
REMARK    6  A    between atoms: C_11  and  C_12
REMARK    7  A    between atoms: N_14  and  C_15
REMARK    8  A    between atoms: C_18  and  S_21
REMARK    9  A    between atoms: S_21  and  N_24
REMARK   10  A    between atoms: N_24  and  C_25
REMARK   11  A    between atoms: N_24  and  C_28
REMARK   12  A    between atoms: C_25  and  C_26
REMARK   13  A    between atoms: C_26  and  C_27
REMARK   14  A    between atoms: C_28  and  C_29
REMARK   15  A    between atoms: C_29  and  C_30
REMARK                            x       y       z     vdW  Elec       q    Type
REMARK                         _______ _______ _______ _____ _____    ______ ____
ROOT
ATOM      1  C   UNL     1      -2.350   2.660   3.687  0.00  0.00    +0.034 A 
ATOM      2  C   UNL     1      -2.672   1.486   3.018  0.00  0.00    +0.025 A 
ATOM      3  C   UNL     1      -1.952   1.110   1.901  0.00  0.00    +0.030 A 
ATOM      4  C   UNL     1      -0.911   1.901   1.449  0.00  0.00    +0.106 A 
ATOM      5  C   UNL     1      -0.585   3.067   2.116  0.00  0.00    +0.030 A 
ATOM      6  C   UNL     1      -1.304   3.452   3.231  0.00  0.00    +0.025 A 
ENDROOT
BRANCH   1   9
ATOM      7  C   UNL     1      -3.282   4.351   5.077  0.00  0.00    +0.252 C 
ATOM      8  O   UNL     1      -2.918   5.192   4.278  0.00  0.00    -0.270 OA
ATOM      9  N   UNL     1      -3.078   3.044   4.818  0.00  0.00    -0.281 N 
ATOM     10  H   UNL     1      -3.436   2.369   5.417  0.00  0.00    +0.155 HD
BRANCH   7  16
ATOM     11  C   UNL     1      -4.162   6.118   6.601  0.00  0.00    +0.133 A 
ATOM     12  C   UNL     1      -4.788   6.491   7.780  0.00  0.00    +0.046 A 
ATOM     13  C   UNL     1      -5.199   5.529   8.681  0.00  0.00    +0.004 A 
ATOM     14  C   UNL     1      -4.989   4.185   8.415  0.00  0.00    +0.001 A 
ATOM     15  C   UNL     1      -4.373   3.796   7.245  0.00  0.00    +0.017 A 
ATOM     16  C   UNL     1      -3.947   4.760   6.328  0.00  0.00    +0.079 A 
BRANCH  11  17
ATOM     17  O   UNL     1      -3.759   7.063   5.715  0.00  0.00    -0.491 OA
BRANCH  17  18
ATOM     18  C   UNL     1      -4.011   8.426   6.060  0.00  0.00    +0.229 C 
BRANCH  18  19
ATOM     19  C   UNL     1      -3.490   9.339   4.949  0.00  0.00    +0.041 C 
BRANCH  19  21
ATOM     20  C   UNL     1      -3.239  11.712   4.207  0.00  0.00    +0.004 C 
ATOM     21  C   UNL     1      -3.760  10.799   5.319  0.00  0.00    -0.000 C 
ENDBRANCH  19  21
ENDBRANCH  18  19
ENDBRANCH  17  18
ENDBRANCH  11  17
ENDBRANCH   7  16
ENDBRANCH   1   9
BRANCH   4  22
ATOM     22  S   UNL     1       0.005   1.418   0.024  0.00  0.00    +0.061 S 
ATOM     23  O   UNL     1      -0.141   0.009  -0.095  0.00  0.00    -0.153 OA
ATOM     24  O   UNL     1       1.275   2.046   0.125  0.00  0.00    -0.153 OA
BRANCH  22  25
ATOM     25  N   UNL     1      -0.749   2.084  -1.292  0.00  0.00    -0.177 NA
BRANCH  25  26
ATOM     26  C   UNL     1      -0.361   3.416  -1.762  0.00  0.00    +0.109 C 
BRANCH  26  27
ATOM     27  C   UNL     1       0.673   3.281  -2.881  0.00  0.00    +0.014 C 
ATOM     28  C   UNL     1       1.079   4.673  -3.371  0.00  0.00    +0.005 C 
ENDBRANCH  26  27
ENDBRANCH  25  26
BRANCH  25  29
ATOM     29  C   UNL     1      -1.804   1.341  -1.986  0.00  0.00    +0.109 C 
BRANCH  29  30
ATOM     30  C   UNL     1      -3.170   1.770  -1.445  0.00  0.00    +0.014 C 
ATOM     31  C   UNL     1      -4.271   0.994  -2.169  0.00  0.00    +0.005 C 
ENDBRANCH  29  30
ENDBRANCH  25  29
ENDBRANCH  22  25
ENDBRANCH   4  22
TORSDOF 12
