REMARK  Name = ZINC12070931
REMARK  12 active torsions:
REMARK  status: ('A' for Active; 'I' for Inactive)
REMARK    1  A    between atoms: C_1  and  C_2
REMARK    2  A    between atoms: C_2  and  O_3
REMARK    3  A    between atoms: O_3  and  C_4
REMARK    4  A    between atoms: C_4  and  C_6
REMARK    5  A    between atoms: C_10  and  N_11
REMARK    6  A    between atoms: C_12  and  C_14
REMARK    7  A    between atoms: C_14  and  C_15
REMARK    8  A    between atoms: C_18  and  S_21
REMARK    9  A    between atoms: S_21  and  C_22
REMARK   10  A    between atoms: C_22  and  C_23
REMARK   11  A    between atoms: C_22  and  C_24
REMARK   12  A    between atoms: C_29  and  C_31
REMARK                            x       y       z     vdW  Elec       q    Type
REMARK                         _______ _______ _______ _____ _____    ______ ____
ROOT
ATOM      1  C   UNL     1       1.004   7.311   4.108  0.00  0.00    +0.091 A 
ATOM      2  C   UNL     1       1.040   7.433   5.557  0.00  0.00    -0.018 A 
ATOM      3  C   UNL     1       1.097   6.262   6.228  0.00  0.00    +0.013 A 
ATOM      4  S   UNL     1       1.097   5.015   4.972  0.00  0.00    -0.076 S 
ATOM      5  C   UNL     1       1.022   6.031   3.571  0.00  0.00    +0.086 A 
ATOM      6  C   UNL     1       1.145   6.080   7.715  0.00  0.00    +0.150 C 
ATOM      7  N   UNL     1       1.353   7.415   8.311  0.00  0.00    -0.297 N 
ATOM      8  C   UNL     1       0.593   8.538   7.742  0.00  0.00    +0.113 C 
ATOM      9  C   UNL     1       1.025   8.767   6.292  0.00  0.00    +0.056 C 
ATOM     10  C   UNL     1       2.207   7.598   9.337  0.00  0.00    +0.213 C 
ATOM     11  O   UNL     1       2.298   8.686   9.865  0.00  0.00    -0.276 OA
ATOM     12  C   UNL     1       3.050   6.449   9.830  0.00  0.00    +0.109 C 
ENDROOT
BRANCH   5  13
ATOM     13  N   UNL     1       0.992   5.657   2.236  0.00  0.00    -0.279 N 
ATOM     14  C   UNL     1       1.023   4.352   1.901  0.00  0.00    +0.222 C 
ATOM     15  O   UNL     1       1.076   3.505   2.768  0.00  0.00    -0.275 OA
ATOM     16  H   UNL     1       0.950   6.334   1.543  0.00  0.00    +0.155 HD
BRANCH  14  17
ATOM     17  C   UNL     1       0.991   3.945   0.451  0.00  0.00    +0.131 C 
BRANCH  17  18
ATOM     18  C   UNL     1       1.034   2.442   0.349  0.00  0.00    -0.039 A 
ATOM     19  C   UNL     1      -0.143   1.716   0.340  0.00  0.00    +0.005 A 
ATOM     20  C   UNL     1      -0.106   0.339   0.247  0.00  0.00    +0.015 A 
ATOM     21  C   UNL     1       1.115  -0.318   0.163  0.00  0.00    +0.008 A 
ATOM     22  C   UNL     1       2.296   0.414   0.173  0.00  0.00    +0.015 A 
ATOM     23  C   UNL     1       2.252   1.791   0.266  0.00  0.00    +0.005 A 
BRANCH  21  24
ATOM     24  S   UNL     1       1.167  -2.075   0.045  0.00  0.00    -0.122 S 
BRANCH  24  25
ATOM     25  C   UNL     1       0.979  -2.402  -1.729  0.00  0.00    +0.045 C 
ATOM     26  C   UNL     1       1.226  -3.886  -2.003  0.00  0.00    +0.019 C 
ATOM     27  C   UNL     1      -0.439  -2.031  -2.168  0.00  0.00    +0.019 C 
ENDBRANCH  24  25
ENDBRANCH  21  24
ENDBRANCH  17  18
ENDBRANCH  14  17
ENDBRANCH   5  13
BRANCH   1  28
ATOM     28  C   UNL     1       0.946   8.495   3.248  0.00  0.00    +0.342 C 
ATOM     29  O   UNL     1      -0.131   8.959   2.924  0.00  0.00    -0.245 OA
BRANCH  28  30
ATOM     30  O   UNL     1       2.087   9.071   2.816  0.00  0.00    -0.461 OA
BRANCH  30  32
ATOM     31  C   UNL     1       3.343  10.752   1.580  0.00  0.00    +0.048 C 
ATOM     32  C   UNL     1       1.953  10.242   1.967  0.00  0.00    +0.229 C 
ENDBRANCH  30  32
ENDBRANCH  28  30
ENDBRANCH   1  28
TORSDOF 8
