REMARK  Name = ZINC35469324
REMARK  4 active torsions:
REMARK  status: ('A' for Active; 'I' for Inactive)
REMARK    1  A    between atoms: C_1  and  N_2
REMARK    2  A    between atoms: N_2  and  C_3
REMARK    3  A    between atoms: C_3  and  C_5
REMARK    4  A    between atoms: C_3  and  C_18
REMARK                            x       y       z     vdW  Elec       q    Type
REMARK                         _______ _______ _______ _____ _____    ______ ____
ROOT
ATOM      1  C   UNL     1       0.212  -1.918   1.484  0.00  0.00    -0.020 A 
ATOM      2  C   UNL     1      -0.037  -2.806   0.453  0.00  0.00    +0.007 A 
ATOM      3  C   UNL     1      -0.489  -4.077   0.735  0.00  0.00    +0.025 A 
ATOM      4  C   UNL     1      -0.700  -4.483   2.055  0.00  0.00    +0.055 A 
ATOM      5  C   UNL     1      -0.451  -3.594   3.088  0.00  0.00    +0.055 A 
ATOM      6  C   UNL     1       0.012  -2.310   2.790  0.00  0.00    +0.030 A 
ATOM      7  N   UNL     1      -0.629  -3.901   4.433  0.00  0.00    -0.284 N 
ATOM      8  C   UNL     1      -1.648  -4.589   4.943  0.00  0.00    +0.226 C 
ATOM      9  O   UNL     1      -1.712  -4.759   6.142  0.00  0.00    -0.275 OA
ATOM     10  C   UNL     1      -2.725  -5.162   4.057  0.00  0.00    +0.192 C 
ATOM     11  C   UNL     1      -2.087  -6.157   3.122  0.00  0.00    +0.226 C 
ATOM     12  O   UNL     1      -2.429  -7.319   3.167  0.00  0.00    -0.275 OA
ATOM     13  N   UNL     1      -1.157  -5.783   2.247  0.00  0.00    -0.284 N 
ATOM     14  H   UNL     1       0.048  -3.587   5.053  0.00  0.00    +0.155 HD
ATOM     15  H   UNL     1      -0.763  -6.477   1.696  0.00  0.00    +0.155 HD
ENDROOT
BRANCH   1  16
ATOM     16  C   UNL     1       0.706  -0.527   1.180  0.00  0.00    +0.189 C 
BRANCH  16  17
ATOM     17  C   UNL     1       2.209  -0.571   0.898  0.00  0.00    +0.409 C 
ATOM     18  F   UNL     1       2.668   0.720   0.616  0.00  0.00    -0.169 F 
ATOM     19  F   UNL     1       2.880  -1.069   2.021  0.00  0.00    -0.169 F 
ATOM     20  F   UNL     1       2.454  -1.403  -0.199  0.00  0.00    -0.169 F 
ENDBRANCH  16  17
BRANCH  16  22
ATOM     21  C   UNL     1      -0.018   1.465   0.010  0.00  0.00    +0.101 C 
ATOM     22  N   UNL     1       0.002  -0.004   0.002  0.00  0.00    -0.305 NA
ATOM     23  H   UNL     1      -0.933  -0.378  -0.056  0.00  0.00    +0.122 HD
ENDBRANCH  16  22
ENDBRANCH   1  16
TORSDOF 3
