REMARK  Name = ZINC19853167
REMARK  9 active torsions:
REMARK  status: ('A' for Active; 'I' for Inactive)
REMARK    1  A    between atoms: C_1  and  C_2
REMARK    2  A    between atoms: C_2  and  C_3
REMARK    3  A    between atoms: C_2  and  C_4
REMARK    4  A    between atoms: C_2  and  C_5
REMARK    5  A    between atoms: N_20  and  C_23
REMARK    6  A    between atoms: C_24  and  C_32
REMARK    7  A    between atoms: C_25  and  N_31
REMARK    8  A    between atoms: C_26  and  C_27
REMARK    9  A    between atoms: C_26  and  C_29
REMARK                            x       y       z     vdW  Elec       q    Type
REMARK                         _______ _______ _______ _____ _____    ______ ____
ROOT
ATOM      1  C   UNL     1       0.718  -0.497  -1.257  0.00  0.00    -0.001 C 
ATOM      2  C   UNL     1      -0.011   0.020  -2.503  0.00  0.00    +0.031 C 
ATOM      3  C   UNL     1       0.743  -0.453  -3.715  0.00  0.00    -0.024 C 
ATOM      4  C   UNL     1       2.025  -0.668  -3.700  0.00  0.00    -0.030 C 
ATOM      5  C   UNL     1       2.907  -0.453  -2.501  0.00  0.00    +0.042 C 
ATOM      6  C   UNL     1       2.147   0.040  -1.280  0.00  0.00    +0.014 C 
ATOM      7  C   UNL     1       3.986   0.569  -2.868  0.00  0.00    +0.116 C 
ATOM      8  C   UNL     1       5.050   0.604  -1.813  0.00  0.00    -0.005 A 
ATOM      9  C   UNL     1       5.932  -0.362  -1.377  0.00  0.00    +0.007 A 
ATOM     10  C   UNL     1       6.808  -0.000  -0.359  0.00  0.00    +0.000 A 
ATOM     11  C   UNL     1       6.792   1.267   0.187  0.00  0.00    +0.002 A 
ATOM     12  C   UNL     1       5.908   2.243  -0.247  0.00  0.00    +0.024 A 
ATOM     13  C   UNL     1       5.024   1.893  -1.269  0.00  0.00    +0.041 A 
ATOM     14  N   UNL     1       4.050   2.656  -1.888  0.00  0.00    -0.273 N 
ATOM     15  C   UNL     1       3.391   1.963  -2.839  0.00  0.00    +0.236 C 
ATOM     16  O   UNL     1       2.491   2.377  -3.539  0.00  0.00    -0.274 OA
ATOM     17  C   UNL     1       3.767   4.053  -1.549  0.00  0.00    +0.138 C 
ATOM     18  C   UNL     1       4.574   0.288  -4.214  0.00  0.00    +0.069 C 
ATOM     19  C   UNL     1       4.002  -0.464  -5.153  0.00  0.00    +0.055 C 
ATOM     20  C   UNL     1       2.691  -1.172  -4.967  0.00  0.00    +0.202 C 
ENDROOT
BRANCH   1  22
ATOM     21  C   UNL     1      -0.019   1.526   0.010  0.00  0.00    +0.011 C 
ATOM     22  C   UNL     1       0.002  -0.004   0.002  0.00  0.00    -0.035 C 
ATOM     23  C   UNL     1       0.742  -0.511   1.242  0.00  0.00    +0.011 C 
ATOM     24  C   UNL     1      -1.433  -0.534   0.013  0.00  0.00    +0.011 C 
ENDBRANCH   1  22
BRANCH  19  25
ATOM     25  N   UNL     1       4.645  -0.598  -6.356  0.00  0.00    -0.358 N 
ATOM     26  H   UNL     1       5.494  -0.151  -6.504  0.00  0.00    +0.142 HD
ATOM     27  H   UNL     1       4.252  -1.139  -7.058  0.00  0.00    +0.142 HD
ENDBRANCH  19  25
BRANCH  20  28
ATOM     28  C   UNL     1       1.818  -0.903  -6.122  0.00  0.00    +0.095 C 
ATOM     29  N   UNL     1       1.145  -0.695  -7.013  0.00  0.00    -0.194 NA
ENDBRANCH  20  28
BRANCH  20  30
ATOM     30  C   UNL     1       2.926  -2.621  -4.856  0.00  0.00    +0.095 C 
ATOM     31  N   UNL     1       3.108  -3.739  -4.769  0.00  0.00    -0.194 NA
ENDBRANCH  20  30
BRANCH  18  32
ATOM     32  C   UNL     1       5.846   0.871  -4.517  0.00  0.00    +0.098 C 
ATOM     33  N   UNL     1       6.856   1.333  -4.757  0.00  0.00    -0.191 NA
ENDBRANCH  18  32
TORSDOF 5
