REMARK  Name = ZINC33253167
REMARK  10 active torsions:
REMARK  status: ('A' for Active; 'I' for Inactive)
REMARK    1  A    between atoms: C_1  and  C_2
REMARK    2  A    between atoms: C_2  and  C_3
REMARK    3  A    between atoms: C_3  and  N_4
REMARK    4  A    between atoms: C_5  and  C_7
REMARK    5  A    between atoms: C_7  and  N_8
REMARK    6  A    between atoms: N_11  and  C_14
REMARK    7  A    between atoms: C_17  and  N_23
REMARK    8  A    between atoms: C_19  and  C_20
REMARK    9  A    between atoms: N_23  and  S_24
REMARK   10  A    between atoms: S_24  and  C_27
REMARK                            x       y       z     vdW  Elec       q    Type
REMARK                         _______ _______ _______ _____ _____    ______ ____
ROOT
ATOM      1  C   UNL     1      -6.989  -7.039  -1.441  0.00  0.00    +0.044 A 
ATOM      2  C   UNL     1      -6.464  -7.733  -2.525  0.00  0.00    +0.026 A 
ATOM      3  C   UNL     1      -7.257  -8.609  -3.236  0.00  0.00    +0.026 A 
ATOM      4  C   UNL     1      -8.587  -8.807  -2.875  0.00  0.00    +0.049 A 
ATOM      5  C   UNL     1      -9.126  -8.125  -1.800  0.00  0.00    +0.041 A 
ATOM      6  C   UNL     1      -8.328  -7.237  -1.069  0.00  0.00    +0.086 A 
ENDROOT
BRANCH   1  10
ATOM      7  N   UNL     1      -3.929  -4.704   0.014  0.00  0.00    -0.291 NA
ATOM      8  C   UNL     1      -4.630  -4.349  -1.227  0.00  0.00    +0.104 C 
ATOM      9  C   UNL     1      -6.108  -4.736  -1.103  0.00  0.00    +0.120 C 
ATOM     10  N   UNL     1      -6.190  -6.155  -0.726  0.00  0.00    -0.327 N 
ATOM     11  C   UNL     1      -5.403  -6.614   0.429  0.00  0.00    +0.120 C 
ATOM     12  C   UNL     1      -3.953  -6.154   0.245  0.00  0.00    +0.104 C 
BRANCH   7  13
ATOM     13  C   UNL     1      -2.551  -4.195   0.004  0.00  0.00    +0.180 C 
BRANCH  13  15
ATOM     14  N   UNL     1      -1.413  -1.998   0.005  0.00  0.00    -0.314 N 
ATOM     15  C   UNL     1      -2.571  -2.688   0.012  0.00  0.00    +0.227 C 
ATOM     16  O   UNL     1      -3.630  -2.096   0.025  0.00  0.00    -0.274 OA
ATOM     17  H   UNL     1      -0.567  -2.472  -0.006  0.00  0.00    +0.149 HD
BRANCH  14  18
ATOM     18  C   UNL     1      -1.433  -0.534   0.013  0.00  0.00    +0.104 C 
BRANCH  18  20
ATOM     19  C   UNL     1      -0.019   1.526   0.010  0.00  0.00    +0.005 C 
ATOM     20  C   UNL     1       0.002  -0.004   0.002  0.00  0.00    +0.015 C 
ENDBRANCH  18  20
ENDBRANCH  14  18
ENDBRANCH  13  15
ENDBRANCH   7  13
ENDBRANCH   1  10
BRANCH   6  21
ATOM     21  C   UNL     1      -8.891  -6.513   0.080  0.00  0.00    +0.388 C 
ATOM     22  O   UNL     1     -10.059  -6.688   0.402  0.00  0.00    -0.241 OA
ATOM     23  O   UNL     1      -8.193  -5.734   0.715  0.00  0.00    -0.241 OA
ENDBRANCH   6  21
BRANCH   4  24
ATOM     24  N   UNL     1      -9.382  -9.699  -3.605  0.00  0.00    -0.216 N 
ATOM     25  H   UNL     1     -10.282  -9.446  -3.864  0.00  0.00    +0.174 HD
BRANCH  24  26
ATOM     26  S   UNL     1      -8.786 -11.186  -4.025  0.00  0.00    +0.072 S 
ATOM     27  O   UNL     1      -9.825 -11.857  -4.724  0.00  0.00    -0.150 OA
ATOM     28  O   UNL     1      -7.504 -10.964  -4.595  0.00  0.00    -0.150 OA
BRANCH  26  29
ATOM     29  C   UNL     1      -8.524 -12.083  -2.531  0.00  0.00    +0.109 A 
ATOM     30  C   UNL     1      -7.307 -12.001  -1.880  0.00  0.00    +0.031 A 
ATOM     31  C   UNL     1      -7.101 -12.704  -0.709  0.00  0.00    +0.040 A 
ATOM     32  C   UNL     1      -8.113 -13.491  -0.186  0.00  0.00    +0.124 A 
ATOM     33  C   UNL     1      -9.332 -13.572  -0.839  0.00  0.00    +0.040 A 
ATOM     34  C   UNL     1      -9.538 -12.864  -2.008  0.00  0.00    +0.031 A 
ATOM     35  F   UNL     1      -7.912 -14.178   0.959  0.00  0.00    -0.205 F 
ENDBRANCH  26  29
ENDBRANCH  24  26
ENDBRANCH   4  24
TORSDOF 9
