REMARK  Name = ZINC40793257
REMARK  8 active torsions:
REMARK  status: ('A' for Active; 'I' for Inactive)
REMARK    1  A    between atoms: C_1  and  C_2
REMARK    2  A    between atoms: C_5  and  S_8
REMARK    3  A    between atoms: S_8  and  N_11
REMARK    4  A    between atoms: N_11  and  N_12
REMARK    5  A    between atoms: C_14  and  N_33
REMARK    6  A    between atoms: C_15  and  N_19
REMARK    7  A    between atoms: N_19  and  N_20
REMARK    8  A    between atoms: C_21  and  C_23
REMARK                            x       y       z     vdW  Elec       q    Type
REMARK                         _______ _______ _______ _____ _____    ______ ____
ROOT
ATOM      1  N   UNL     1       2.551  -4.616   0.972  0.00  0.00    -0.244 N 
ATOM      2  C   UNL     1       3.255  -5.583   1.679  0.00  0.00    +0.159 A 
ATOM      3  C   UNL     1       4.083  -5.221   2.743  0.00  0.00    +0.108 A 
ATOM      4  C   UNL     1       4.767  -6.233   3.419  0.00  0.00    +0.161 A 
ATOM      5  N   UNL     1       4.605  -7.494   3.026  0.00  0.00    -0.217 NA
ATOM      6  C   UNL     1       3.814  -7.793   2.017  0.00  0.00    +0.225 A 
ATOM      7  N   UNL     1       3.146  -6.870   1.355  0.00  0.00    -0.218 NA
ATOM      8  H   UNL     1       2.636  -3.680   1.214  0.00  0.00    +0.169 HD
ENDROOT
BRANCH   3   9
ATOM      9  N   UNL     1       4.224  -3.877   3.123  0.00  0.00    -0.353 N 
ATOM     10  H   UNL     1       3.742  -3.184   2.643  0.00  0.00    +0.143 HD
ATOM     11  H   UNL     1       4.803  -3.640   3.864  0.00  0.00    +0.143 HD
ENDBRANCH   3   9
BRANCH   1  12
ATOM     12  N   UNL     1       1.718  -4.991  -0.090  0.00  0.00    -0.109 NA
ATOM     13  H   UNL     1       2.074  -5.518  -0.823  0.00  0.00    +0.172 HD
BRANCH  12  14
ATOM     14  S   UNL     1       0.126  -4.536  -0.096  0.00  0.00    +0.074 S 
ATOM     15  O   UNL     1      -0.425  -4.971   1.140  0.00  0.00    -0.152 OA
ATOM     16  O   UNL     1      -0.407  -4.936  -1.351  0.00  0.00    -0.152 OA
BRANCH  14  21
ATOM     17  C   UNL     1      -0.007   1.496  -0.012  0.00  0.00    +0.044 C 
ATOM     18  C   UNL     1       0.026  -0.011  -0.033  0.00  0.00    -0.050 A 
ATOM     19  C   UNL     1       0.051  -0.685  -1.239  0.00  0.00    +0.005 A 
ATOM     20  C   UNL     1       0.082  -2.067  -1.258  0.00  0.00    +0.029 A 
ATOM     21  C   UNL     1       0.088  -2.775  -0.071  0.00  0.00    +0.107 A 
ATOM     22  C   UNL     1       0.064  -2.100   1.135  0.00  0.00    +0.029 A 
ATOM     23  C   UNL     1       0.037  -0.718   1.155  0.00  0.00    +0.005 A 
ENDBRANCH  14  21
ENDBRANCH  12  14
ENDBRANCH   1  12
BRANCH   4  24
ATOM     24  N   UNL     1       5.605  -5.927   4.485  0.00  0.00    -0.247 N 
ATOM     25  H   UNL     1       5.717  -5.005   4.765  0.00  0.00    +0.172 HD
BRANCH  24  26
ATOM     26  N   UNL     1       6.287  -6.951   5.156  0.00  0.00    -0.231 N 
ATOM     27  C   UNL     1       7.099  -6.655   6.190  0.00  0.00    +0.261 C 
ATOM     28  O   UNL     1       7.240  -5.499   6.540  0.00  0.00    -0.269 OA
ATOM     29  H   UNL     1       6.174  -7.873   4.876  0.00  0.00    +0.173 HD
BRANCH  27  30
ATOM     30  C   UNL     1       7.816  -7.732   6.896  0.00  0.00    +0.046 A 
ATOM     31  C   UNL     1       7.567  -9.061   6.586  0.00  0.00    +0.014 A 
ATOM     32  C   UNL     1       8.239 -10.081   7.248  0.00  0.00    +0.001 A 
ATOM     33  C   UNL     1       9.159  -9.807   8.216  0.00  0.00    +0.008 A 
ATOM     34  C   UNL     1       9.443  -8.475   8.563  0.00  0.00    -0.017 A 
ATOM     35  C   UNL     1       8.773  -7.422   7.895  0.00  0.00    -0.006 A 
ATOM     36  C   UNL     1       9.061  -6.094   8.238  0.00  0.00    +0.009 A 
ATOM     37  C   UNL     1       9.986  -5.832   9.203  0.00  0.00    +0.001 A 
ATOM     38  C   UNL     1      10.651  -6.866   9.857  0.00  0.00    +0.001 A 
ATOM     39  C   UNL     1      10.387  -8.168   9.558  0.00  0.00    +0.008 A 
ENDBRANCH  27  30
ENDBRANCH  24  26
ENDBRANCH   4  24
TORSDOF 7
