REMARK  Name = ZINC06075146
REMARK  11 active torsions:
REMARK  status: ('A' for Active; 'I' for Inactive)
REMARK    1  A    between atoms: C_1  and  C_2
REMARK    2  A    between atoms: C_2  and  C_3
REMARK    3  A    between atoms: C_2  and  C_4
REMARK    4  A    between atoms: C_2  and  N_5
REMARK    5  A    between atoms: C_6  and  C_8
REMARK    6  A    between atoms: C_8  and  C_10
REMARK    7  A    between atoms: C_8  and  N_15
REMARK    8  A    between atoms: N_15  and  C_16
REMARK    9  A    between atoms: C_26  and  C_28
REMARK   10  A    between atoms: C_29  and  N_36
REMARK   11  A    between atoms: C_30  and  C_33
REMARK                            x       y       z     vdW  Elec       q    Type
REMARK                         _______ _______ _______ _____ _____    ______ ____
ROOT
ATOM      1  N   UNL     1       2.809  -1.017   0.547  0.00  0.00    -0.250 N 
ATOM      2  C   UNL     1       3.070  -0.158  -0.458  0.00  0.00    +0.262 C 
ATOM      3  O   UNL     1       2.359   0.815  -0.627  0.00  0.00    -0.269 OA
ENDROOT
BRANCH   1   4
ATOM      4  C   UNL     1       1.592  -0.939   1.236  0.00  0.00    +0.041 A 
ATOM      5  C   UNL     1       1.254  -1.917   2.162  0.00  0.00    +0.027 A 
ATOM      6  C   UNL     1       0.054  -1.841   2.841  0.00  0.00    +0.051 A 
ATOM      7  C   UNL     1      -0.818  -0.789   2.600  0.00  0.00    +0.162 A 
ATOM      8  C   UNL     1      -0.482   0.193   1.675  0.00  0.00    +0.164 A 
ATOM      9  C   UNL     1       0.723   0.116   0.993  0.00  0.00    +0.073 A 
ATOM     10  O   UNL     1      -1.320   1.237   1.431  0.00  0.00    -0.485 OA
ATOM     11  C   UNL     1      -2.679   1.084   1.855  0.00  0.00    +0.270 C 
ATOM     12  C   UNL     1      -2.677   0.527   3.285  0.00  0.00    +0.270 C 
ATOM     13  O   UNL     1      -2.001  -0.736   3.272  0.00  0.00    -0.485 OA
ENDBRANCH   1   4
BRANCH   2  14
ATOM     14  C   UNL     1       4.210  -0.396  -1.346  0.00  0.00    +0.116 A 
ATOM     15  C   UNL     1       4.755   0.434  -2.328  0.00  0.00    +0.076 A 
ATOM     16  C   UNL     1       5.848  -0.146  -2.971  0.00  0.00    +0.155 A 
ATOM     17  N   UNL     1       6.240  -1.349  -2.614  0.00  0.00    -0.203 NA
ATOM     18  S   UNL     1       5.276  -1.818  -1.458  0.00  0.00    +0.019 S 
BRANCH  16  19
ATOM     19  C   UNL     1       6.556   0.582  -4.040  0.00  0.00    +0.262 C 
ATOM     20  O   UNL     1       6.188   1.694  -4.365  0.00  0.00    -0.269 OA
ATOM     21  N   UNL     1       7.612   0.014  -4.657  0.00  0.00    -0.324 N 
ATOM     22  H   UNL     1       7.905  -0.874  -4.397  0.00  0.00    +0.145 HD
ATOM     23  H   UNL     1       8.078   0.493  -5.360  0.00  0.00    +0.145 HD
ENDBRANCH  16  19
BRANCH  15  24
ATOM     24  N   UNL     1       4.264   1.697  -2.630  0.00  0.00    -0.355 N 
ATOM     25  H   UNL     1       3.499   2.049  -2.147  0.00  0.00    +0.142 HD
ATOM     26  H   UNL     1       4.685   2.228  -3.323  0.00  0.00    +0.142 HD
ENDBRANCH  15  24
ENDBRANCH   2  14
BRANCH   1  27
ATOM     27  C   UNL     1       3.797  -2.032   0.919  0.00  0.00    +0.204 C 
BRANCH  27  28
ATOM     28  C   UNL     1       4.157  -1.873   2.374  0.00  0.00    +0.019 A 
ATOM     29  C   UNL     1       5.287  -2.251   3.020  0.00  0.00    +0.013 A 
ATOM     30  C   UNL     1       5.402  -1.998   4.374  0.00  0.00    +0.008 A 
ATOM     31  C   UNL     1       4.377  -1.389   5.018  0.00  0.00    +0.045 A 
ATOM     32  S   UNL     1       3.202  -1.146   3.696  0.00  0.00    -0.099 S 
ENDBRANCH  27  28
BRANCH  27  34
ATOM     33  N   UNL     1       3.866  -4.494   1.150  0.00  0.00    -0.309 N 
ATOM     34  C   UNL     1       3.218  -3.404   0.692  0.00  0.00    +0.239 C 
ATOM     35  O   UNL     1       2.169  -3.529   0.096  0.00  0.00    -0.273 OA
ATOM     36  H   UNL     1       4.705  -4.394   1.627  0.00  0.00    +0.149 HD
BRANCH  33  38
ATOM     37  C   UNL     1       3.170  -6.082  -0.574  0.00  0.00    +0.031 C 
ATOM     38  C   UNL     1       3.303  -5.828   0.929  0.00  0.00    +0.026 C 
ATOM     39  C   UNL     1       4.228  -6.880   1.544  0.00  0.00    +0.031 C 
ATOM     40  C   UNL     1       1.924  -5.915   1.585  0.00  0.00    +0.031 C 
ENDBRANCH  33  38
ENDBRANCH  27  34
ENDBRANCH   1  27
TORSDOF 8
