REMARK  Name = ZINC02145537
REMARK  4 active torsions:
REMARK  status: ('A' for Active; 'I' for Inactive)
REMARK    1  A    between atoms: C_1  and  C_2
REMARK    2  A    between atoms: C_12  and  C_13
REMARK    3  A    between atoms: N_17  and  C_24
REMARK    4  A    between atoms: N_20  and  C_23
REMARK                            x       y       z     vdW  Elec       q    Type
REMARK                         _______ _______ _______ _____ _____    ______ ____
ROOT
ATOM      1  C   UNL     1      -1.164  -0.743  -0.531  0.00  0.00    +0.045 C 
ATOM      2  C   UNL     1       0.076   0.055  -0.221  0.00  0.00    -0.026 A 
ATOM      3  C   UNL     1       1.346  -0.559  -0.189  0.00  0.00    +0.022 A 
ATOM      4  C   UNL     1       1.475  -1.929  -0.461  0.00  0.00    +0.017 A 
ATOM      5  C   UNL     1       2.700  -2.535  -0.415  0.00  0.00    -0.025 A 
ATOM      6  C   UNL     1       3.841  -1.795  -0.080  0.00  0.00    +0.040 A 
ATOM      7  C   UNL     1       3.737  -0.430   0.155  0.00  0.00    +0.017 A 
ATOM      8  C   UNL     1       2.493   0.198   0.110  0.00  0.00    +0.144 A 
ATOM      9  O   UNL     1       2.425   1.521   0.358  0.00  0.00    -0.421 OA
ATOM     10  C   UNL     1       1.244   2.151   0.336  0.00  0.00    +0.345 A 
ATOM     11  O   UNL     1       1.198   3.345   0.564  0.00  0.00    -0.245 OA
ATOM     12  C   UNL     1       0.001   1.424   0.042  0.00  0.00    +0.064 A 
ATOM     13  C   UNL     1       4.923   0.450   0.442  0.00  0.00    +0.042 C 
ATOM     14  C   UNL     1       6.229  -0.331   0.455  0.00  0.00    +0.024 C 
ATOM     15  C   UNL     1       5.965  -1.746   0.970  0.00  0.00    +0.105 C 
ATOM     16  N   UNL     1       5.070  -2.428   0.027  0.00  0.00    -0.329 N 
ATOM     17  C   UNL     1       4.936  -3.842   0.399  0.00  0.00    +0.105 C 
ATOM     18  C   UNL     1       4.152  -4.564  -0.697  0.00  0.00    +0.024 C 
ATOM     19  C   UNL     1       2.743  -3.997  -0.764  0.00  0.00    +0.038 C 
ENDROOT
BRANCH  12  20
ATOM     20  C   UNL     1      -1.241   2.097   0.019  0.00  0.00    +0.033 C 
ATOM     21  C   UNL     1      -1.460   3.117  -0.893  0.00  0.00    +0.100 C 
ATOM     22  C   UNL     1      -0.483   3.424  -1.954  0.00  0.00    +0.257 C 
ATOM     23  O   UNL     1       0.549   2.788  -2.057  0.00  0.00    -0.269 OA
ATOM     24  N   UNL     1      -0.766   4.427  -2.811  0.00  0.00    -0.252 N 
ATOM     25  C   UNL     1      -1.896   5.141  -2.705  0.00  0.00    +0.148 C 
ATOM     26  S   UNL     1      -2.167   6.400  -3.833  0.00  0.00    -0.018 S 
ATOM     27  N   UNL     1      -2.825   4.920  -1.765  0.00  0.00    -0.252 N 
ATOM     28  C   UNL     1      -2.679   3.946  -0.844  0.00  0.00    +0.257 C 
ATOM     29  O   UNL     1      -3.529   3.756   0.006  0.00  0.00    -0.269 OA
ATOM     30  C   UNL     1      -4.027   5.758  -1.736  0.00  0.00    +0.140 C 
ATOM     31  C   UNL     1       0.186   4.748  -3.877  0.00  0.00    +0.140 C 
ENDBRANCH  12  20
TORSDOF 1
