REMARK  Name = ZINC02660274
REMARK  9 active torsions:
REMARK  status: ('A' for Active; 'I' for Inactive)
REMARK    1  A    between atoms: C_1  and  C_2
REMARK    2  A    between atoms: C_2  and  C_4
REMARK    3  A    between atoms: C_2  and  N_59
REMARK    4  A    between atoms: C_7  and  S_16
REMARK    5  A    between atoms: N_8  and  C_9
REMARK    6  A    between atoms: S_16  and  C_17
REMARK    7  A    between atoms: C_17  and  C_18
REMARK    8  A    between atoms: N_20  and  C_21
REMARK    9  A    between atoms: C_25  and  N_27
REMARK                            x       y       z     vdW  Elec       q    Type
REMARK                         _______ _______ _______ _____ _____    ______ ____
ROOT
ATOM      1  C   UNL     1      -0.736   1.966   1.236  0.00  0.00    +0.125 A 
ATOM      2  N   UNL     1      -1.858   1.509   1.716  0.00  0.00    -0.135 NA
ATOM      3  N   UNL     1      -2.173   2.145   2.788  0.00  0.00    -0.122 NA
ATOM      4  C   UNL     1      -1.262   3.053   3.054  0.00  0.00    +0.197 A 
ATOM      5  N   UNL     1      -0.311   2.963   2.074  0.00  0.00    -0.275 N 
ENDROOT
BRANCH   5   6
ATOM      6  C   UNL     1       0.855   3.735   1.951  0.00  0.00    +0.050 A 
ATOM      7  C   UNL     1       2.100   3.134   2.066  0.00  0.00    +0.029 A 
ATOM      8  C   UNL     1       3.247   3.894   1.940  0.00  0.00    +0.040 A 
ATOM      9  C   UNL     1       3.154   5.256   1.710  0.00  0.00    +0.124 A 
ATOM     10  C   UNL     1       1.911   5.858   1.600  0.00  0.00    +0.040 A 
ATOM     11  C   UNL     1       0.763   5.100   1.720  0.00  0.00    +0.029 A 
ATOM     12  F   UNL     1       4.276   5.999   1.593  0.00  0.00    -0.205 F 
ENDBRANCH   5   6
BRANCH   1  14
ATOM     13  C   UNL     1      -0.771   2.001  -1.243  0.00  0.00    -0.005 C 
ATOM     14  C   UNL     1      -0.034   1.484  -0.006  0.00  0.00    -0.002 C 
BRANCH  14  20
ATOM     15  C   UNL     1       0.592  -0.520   1.200  0.00  0.00    -0.078 C 
ATOM     16  C   UNL     1       0.457  -2.044   1.216  0.00  0.00    -0.019 C 
ATOM     17  C   UNL     1       1.149  -2.625  -0.020  0.00  0.00    -0.004 C 
ATOM     18  C   UNL     1       0.524  -2.016  -1.279  0.00  0.00    -0.019 C 
ATOM     19  C   UNL     1       0.657  -0.492  -1.222  0.00  0.00    -0.078 C 
ATOM     20  N   UNL     1      -0.050   0.006  -0.023  0.00  0.00    +0.386 N 
ATOM     21  H   UNL     1      -1.024  -0.316  -0.053  0.00  0.00    -0.081 HD
ENDBRANCH  14  20
ENDBRANCH   1  14
BRANCH   4  22
ATOM     22  S   UNL     1      -1.260   4.168   4.417  0.00  0.00    -0.076 S 
BRANCH  22  23
ATOM     23  C   UNL     1      -2.797   3.670   5.233  0.00  0.00    +0.173 C 
BRANCH  23  24
ATOM     24  C   UNL     1      -3.010   4.514   6.463  0.00  0.00    +0.227 C 
ATOM     25  O   UNL     1      -2.201   5.369   6.759  0.00  0.00    -0.275 OA
ATOM     26  N   UNL     1      -4.098   4.320   7.234  0.00  0.00    -0.285 N 
ATOM     27  H   UNL     1      -4.778   3.684   6.962  0.00  0.00    +0.155 HD
BRANCH  26  28
ATOM     28  C   UNL     1      -4.247   5.036   8.428  0.00  0.00    +0.036 A 
ATOM     29  C   UNL     1      -4.851   4.439   9.526  0.00  0.00    +0.025 A 
ATOM     30  C   UNL     1      -4.992   5.146  10.704  0.00  0.00    +0.024 A 
ATOM     31  C   UNL     1      -4.542   6.452  10.787  0.00  0.00    +0.071 A 
ATOM     32  C   UNL     1      -3.945   7.051   9.692  0.00  0.00    +0.146 A 
ATOM     33  C   UNL     1      -3.796   6.346   8.513  0.00  0.00    +0.057 A 
ATOM     34 CL   UNL     1      -4.726   7.340  12.267  0.00  0.00    -0.081 Cl
BRANCH  32  35
ATOM     35  N   UNL     1      -3.465   8.448   9.784  0.00  0.00    +0.058 N 
ATOM     36  O   UNL     1      -2.939   8.976   8.820  0.00  0.00    -0.126 OA
ATOM     37  O   UNL     1      -3.595   9.070  10.823  0.00  0.00    -0.126 OA
ENDBRANCH  32  35
ENDBRANCH  26  28
ENDBRANCH  23  24
ENDBRANCH  22  23
ENDBRANCH   4  22
TORSDOF 8
