REMARK  Name = ZINC34726704
REMARK  6 active torsions:
REMARK  status: ('A' for Active; 'I' for Inactive)
REMARK    1  A    between atoms: C_1  and  C_2
REMARK    2  A    between atoms: C_2  and  C_3
REMARK    3  A    between atoms: C_4  and  C_22
REMARK    4  A    between atoms: N_15  and  C_18
REMARK    5  A    between atoms: C_18  and  C_19
REMARK    6  A    between atoms: C_19  and  C_21
REMARK                            x       y       z     vdW  Elec       q    Type
REMARK                         _______ _______ _______ _____ _____    ______ ____
ROOT
ATOM      1  C   UNL     1       0.707  -0.490  -1.238  0.00  0.00    -0.040 C 
ATOM      2  C   UNL     1       1.986  -0.815  -1.285  0.00  0.00    -0.064 C 
ATOM      3  C   UNL     1       2.292  -1.248  -2.701  0.00  0.00    +0.073 C 
ATOM      4  C   UNL     1       0.991  -1.115  -3.433  0.00  0.00    +0.004 A 
ATOM      5  C   UNL     1       0.046  -0.670  -2.561  0.00  0.00    +0.003 A 
ATOM      6  C   UNL     1      -1.313  -0.483  -3.113  0.00  0.00    +0.078 A 
ATOM      7  C   UNL     1      -1.476  -0.789  -4.461  0.00  0.00    +0.095 A 
ATOM      8  S   UNL     1       0.142  -1.298  -4.978  0.00  0.00    -0.074 S 
ATOM      9  N   UNL     1      -2.685  -0.657  -5.084  0.00  0.00    -0.301 N 
ATOM     10  H   UNL     1      -2.769  -0.878  -6.025  0.00  0.00    +0.171 HD
ATOM     11  C   UNL     1      -3.762  -0.224  -4.399  0.00  0.00    +0.330 A 
ATOM     12  O   UNL     1      -4.829  -0.114  -4.972  0.00  0.00    -0.246 OA
ATOM     13  N   UNL     1      -3.679   0.089  -3.095  0.00  0.00    -0.256 N 
ATOM     14  C   UNL     1      -2.525  -0.013  -2.412  0.00  0.00    +0.266 A 
ATOM     15  O   UNL     1      -2.481   0.277  -1.230  0.00  0.00    -0.267 OA
ATOM     16  C   UNL     1       2.962  -0.763  -0.138  0.00  0.00    +0.039 C 
ENDROOT
BRANCH   1  18
ATOM     17  C   UNL     1      -0.019   1.526   0.010  0.00  0.00    +0.009 C 
ATOM     18  C   UNL     1       0.002  -0.004   0.002  0.00  0.00    +0.032 C 
ENDBRANCH   1  18
BRANCH  13  19
ATOM     19  C   UNL     1      -4.880   0.556  -2.398  0.00  0.00    +0.160 C 
BRANCH  19  20
ATOM     20  C   UNL     1      -5.614  -0.625  -1.817  0.00  0.00    -0.060 C 
ATOM     21  C   UNL     1      -5.408  -0.976  -0.571  0.00  0.00    +0.009 C 
ATOM     22  C   UNL     1      -6.585  -1.402  -2.667  0.00  0.00    +0.040 C 
ENDBRANCH  19  20
ENDBRANCH  13  19
TORSDOF 3
