REMARK  Name = ZINC28243712
REMARK  13 active torsions:
REMARK  status: ('A' for Active; 'I' for Inactive)
REMARK    1  A    between atoms: C_1  and  C_2
REMARK    2  A    between atoms: C_2  and  C_3
REMARK    3  A    between atoms: C_2  and  C_4
REMARK    4  A    between atoms: C_2  and  N_5
REMARK    5  A    between atoms: N_7  and  C_8
REMARK    6  A    between atoms: C_12  and  C_14
REMARK    7  A    between atoms: C_14  and  C_22
REMARK    8  A    between atoms: C_15  and  C_16
REMARK    9  A    between atoms: C_16  and  C_17
REMARK   10  A    between atoms: C_17  and  C_18
REMARK   11  A    between atoms: C_18  and  C_19
REMARK   12  A    between atoms: N_28  and  S_29
REMARK   13  A    between atoms: S_29  and  C_32
REMARK                            x       y       z     vdW  Elec       q    Type
REMARK                         _______ _______ _______ _____ _____    ______ ____
ROOT
ATOM      1  C   UNL     1       1.643  -1.422  -3.296  0.00  0.00    +0.042 A 
ATOM      2  C   UNL     1       0.307  -1.725  -3.057  0.00  0.00    +0.026 A 
ATOM      3  C   UNL     1      -0.378  -2.565  -3.914  0.00  0.00    +0.003 A 
ATOM      4  C   UNL     1       0.260  -3.108  -5.012  0.00  0.00    +0.008 A 
ATOM      5  C   UNL     1       1.599  -2.809  -5.259  0.00  0.00    -0.016 A 
ATOM      6  C   UNL     1       2.289  -1.958  -4.399  0.00  0.00    +0.034 A 
ENDROOT
BRANCH   1   9
ATOM      7  N   UNL     1       2.602   0.374  -0.255  0.00  0.00    -0.350 N 
ATOM      8  C   UNL     1       2.013  -0.549  -1.087  0.00  0.00    +0.222 C 
ATOM      9  N   UNL     1       2.333  -0.571  -2.425  0.00  0.00    -0.325 N 
ATOM     10  N   UNL     1       1.153  -1.402  -0.608  0.00  0.00    -0.093 NA
ATOM     11  H   UNL     1       3.037   0.003  -2.766  0.00  0.00    +0.169 HD
ATOM     12  H   UNL     1       2.312   0.450   0.668  0.00  0.00    +0.163 HD
BRANCH   7  14
ATOM     13  C   UNL     1       3.124   2.108  -1.899  0.00  0.00    +0.033 C 
ATOM     14  C   UNL     1       3.668   1.242  -0.761  0.00  0.00    +0.033 C 
ATOM     15  C   UNL     1       4.822   0.382  -1.282  0.00  0.00    +0.033 C 
ATOM     16  C   UNL     1       4.173   2.142   0.369  0.00  0.00    +0.033 C 
ENDBRANCH   7  14
BRANCH  10  17
ATOM     17  S   UNL     1       0.713  -1.329   0.987  0.00  0.00    +0.102 S 
ATOM     18  O   UNL     1       1.876  -1.634   1.743  0.00  0.00    -0.146 OA
ATOM     19  O   UNL     1      -0.008  -0.115   1.154  0.00  0.00    -0.146 OA
BRANCH  17  20
ATOM     20  C   UNL     1      -0.432  -2.637   1.272  0.00  0.00    +0.113 A 
ATOM     21  C   UNL     1      -1.786  -2.422   1.096  0.00  0.00    +0.029 A 
ATOM     22  C   UNL     1      -2.684  -3.449   1.320  0.00  0.00    +0.002 A 
ATOM     23  C   UNL     1      -2.228  -4.691   1.720  0.00  0.00    +0.000 A 
ATOM     24  C   UNL     1      -0.874  -4.906   1.896  0.00  0.00    +0.002 A 
ATOM     25  C   UNL     1       0.025  -3.881   1.668  0.00  0.00    +0.029 A 
ENDBRANCH  17  20
ENDBRANCH  10  17
ENDBRANCH   1   9
BRANCH   5  26
ATOM     26  C   UNL     1       2.286  -3.392  -6.438  0.00  0.00    -0.013 C 
ATOM     27  C   UNL     1       2.717  -2.595  -7.422  0.00  0.00    -0.018 C 
BRANCH  26  28
ATOM     28  C   UNL     1       2.495  -4.857  -6.525  0.00  0.00    +0.000 A 
ATOM     29  C   UNL     1       1.870  -5.606  -7.526  0.00  0.00    +0.011 A 
ATOM     30  C   UNL     1       2.097  -6.970  -7.565  0.00  0.00    +0.020 A 
ATOM     31  C   UNL     1       2.929  -7.545  -6.620  0.00  0.00    +0.111 A 
ATOM     32  N   UNL     1       3.504  -6.812  -5.686  0.00  0.00    -0.263 NA
ATOM     33  C   UNL     1       3.322  -5.510  -5.613  0.00  0.00    +0.119 A 
ENDBRANCH  26  28
BRANCH  27  34
ATOM     34  C   UNL     1       2.504  -1.105  -7.334  0.00  0.00    +0.028 C 
BRANCH  34  35
ATOM     35  C   UNL     1       3.847  -0.389  -7.486  0.00  0.00    +0.015 C 
BRANCH  35  36
ATOM     36  C   UNL     1       3.632   1.124  -7.396  0.00  0.00    +0.125 C 
BRANCH  36  37
ATOM     37  C   UNL     1       4.955   1.829  -7.546  0.00  0.00    +0.356 C 
ATOM     38  O   UNL     1       5.975   1.183  -7.710  0.00  0.00    -0.246 OA
ATOM     39  O   UNL     1       5.004   3.047  -7.504  0.00  0.00    -0.246 OA
ENDBRANCH  36  37
ENDBRANCH  35  36
ENDBRANCH  34  35
ENDBRANCH  27  34
ENDBRANCH   5  26
TORSDOF 10
