REMARK  Name = ZINC64120733
REMARK  5 active torsions:
REMARK  status: ('A' for Active; 'I' for Inactive)
REMARK    1  A    between atoms: C_1  and  C_2
REMARK    2  A    between atoms: C_3  and  C_7
REMARK    3  A    between atoms: C_22  and  C_24
REMARK    4  A    between atoms: C_27  and  O_31
REMARK    5  A    between atoms: O_31  and  C_32
REMARK                            x       y       z     vdW  Elec       q    Type
REMARK                         _______ _______ _______ _____ _____    ______ ____
ROOT
ATOM      1  C   UNL     1       0.679  -0.297  -2.615  0.00  0.00    +0.257 C 
ATOM      2  O   UNL     1       0.484   0.883  -2.836  0.00  0.00    -0.269 OA
ATOM      3  N   UNL     1       0.497  -1.205  -3.594  0.00  0.00    -0.287 N 
ATOM      4  C   UNL     1       0.590  -2.635  -3.284  0.00  0.00    +0.113 C 
ATOM      5  C   UNL     1       1.674  -3.281  -4.166  0.00  0.00    +0.052 C 
ATOM      6  C   UNL     1       1.454  -2.769  -5.567  0.00  0.00    -0.035 C 
ATOM      7  C   UNL     1       1.325  -3.406  -6.725  0.00  0.00    -0.001 A 
ATOM      8  C   UNL     1       1.458  -4.827  -7.081  0.00  0.00    +0.010 A 
ATOM      9  C   UNL     1       1.236  -5.142  -8.384  0.00  0.00    +0.001 A 
ATOM     10  C   UNL     1       0.898  -4.197  -9.358  0.00  0.00    +0.002 A 
ATOM     11  C   UNL     1       0.762  -2.868  -9.121  0.00  0.00    +0.026 A 
ATOM     12  C   UNL     1       0.980  -2.413  -7.788  0.00  0.00    +0.043 A 
ATOM     13  N   UNL     1       0.941  -1.212  -7.292  0.00  0.00    -0.375 N 
ATOM     14  C   UNL     1       1.313  -1.283  -5.878  0.00  0.00    +0.131 C 
ATOM     15  C   UNL     1       0.200  -0.750  -4.962  0.00  0.00    +0.136 C 
ATOM     16  H   UNL     1       0.704  -0.405  -7.776  0.00  0.00    +0.160 HD
ENDROOT
BRANCH  15  17
ATOM     17  C   UNL     1       0.177   0.756  -5.006  0.00  0.00    +0.011 A 
ATOM     18  C   UNL     1       1.320   1.454  -5.349  0.00  0.00    +0.012 A 
ATOM     19  C   UNL     1       1.302   2.835  -5.390  0.00  0.00    +0.046 A 
ATOM     20  C   UNL     1       0.136   3.522  -5.086  0.00  0.00    +0.123 A 
ATOM     21  C   UNL     1      -1.010   2.822  -4.742  0.00  0.00    +0.084 A 
ATOM     22  C   UNL     1      -0.990   1.438  -4.707  0.00  0.00    +0.132 A 
ATOM     23  F   UNL     1      -2.107   0.754  -4.378  0.00  0.00    -0.205 F 
BRANCH  20  24
ATOM     24  O   UNL     1       0.117   4.881  -5.125  0.00  0.00    -0.495 OA
ATOM     25  C   UNL     1      -1.118   5.522  -4.801  0.00  0.00    +0.277 C 
ENDBRANCH  20  24
ENDBRANCH  15  17
BRANCH   1  28
ATOM     26  C   UNL     1       1.505   1.526  -0.177  0.00  0.00    +0.069 C 
ATOM     27  C   UNL     1       1.489   0.019  -0.171  0.00  0.00    +0.081 A 
ATOM     28  C   UNL     1       1.115  -0.734  -1.279  0.00  0.00    +0.117 A 
ATOM     29  S   UNL     1       1.312  -2.380  -0.618  0.00  0.00    +0.041 S 
ATOM     30  N   UNL     1       1.809  -1.976   0.872  0.00  0.00    -0.110 NA
ATOM     31  N   UNL     1       1.831  -0.691   0.875  0.00  0.00    -0.146 NA
ENDBRANCH   1  28
TORSDOF 3
