REMARK  Name = ZINC09462052
REMARK  5 active torsions:
REMARK  status: ('A' for Active; 'I' for Inactive)
REMARK    1  A    between atoms: C_1  and  C_2
REMARK    2  A    between atoms: C_5  and  C_8
REMARK    3  A    between atoms: C_8  and  N_9
REMARK    4  A    between atoms: C_10  and  C_35
REMARK    5  A    between atoms: N_18  and  C_19
REMARK                            x       y       z     vdW  Elec       q    Type
REMARK                         _______ _______ _______ _____ _____    ______ ____
ROOT
ATOM      1  N   UNL     1       1.081   2.035   0.134  0.00  0.00    -0.292 N 
ATOM      2  C   UNL     1      -0.036   1.272   0.195  0.00  0.00    +0.112 A 
ATOM      3  N   UNL     1      -0.005  -0.024   0.058  0.00  0.00    -0.216 NA
ATOM      4  C   UNL     1       1.148  -0.679  -0.152  0.00  0.00    +0.156 A 
ATOM      5  C   UNL     1       2.337   0.056  -0.224  0.00  0.00    +0.111 A 
ATOM      6  C   UNL     1       2.286   1.458  -0.074  0.00  0.00    +0.266 A 
ATOM      7  O   UNL     1       3.301   2.131  -0.131  0.00  0.00    -0.267 OA
ATOM      8  C   UNL     1       3.419  -0.910  -0.458  0.00  0.00    +0.123 A 
ATOM      9  C   UNL     1       2.798  -2.187  -0.512  0.00  0.00    +0.167 A 
ATOM     10  N   UNL     1       1.440  -2.008  -0.325  0.00  0.00    -0.276 N 
ATOM     11  N   UNL     1       3.528  -3.266  -0.714  0.00  0.00    -0.225 NA
ATOM     12  C   UNL     1       4.852  -3.157  -0.868  0.00  0.00    +0.092 A 
ATOM     13  C   UNL     1       5.648  -4.296  -1.083  0.00  0.00    +0.030 A 
ATOM     14  C   UNL     1       6.994  -4.162  -1.236  0.00  0.00    +0.002 A 
ATOM     15  C   UNL     1       7.600  -2.908  -1.183  0.00  0.00    +0.002 A 
ATOM     16  C   UNL     1       6.864  -1.783  -0.976  0.00  0.00    +0.030 A 
ATOM     17  C   UNL     1       5.470  -1.881  -0.813  0.00  0.00    +0.090 A 
ATOM     18  N   UNL     1       4.725  -0.791  -0.608  0.00  0.00    -0.241 NA
ATOM     19  C   UNL     1      -1.364   1.947   0.422  0.00  0.00    +0.086 C 
ENDROOT
BRANCH  10  20
ATOM     20  C   UNL     1       0.493  -3.042  -0.314  0.00  0.00    +0.052 A 
ATOM     21  C   UNL     1       0.259  -3.783  -1.464  0.00  0.00    +0.029 A 
ATOM     22  C   UNL     1      -0.674  -4.801  -1.452  0.00  0.00    +0.042 A 
ATOM     23  C   UNL     1      -1.377  -5.083  -0.292  0.00  0.00    +0.142 A 
ATOM     24  C   UNL     1      -1.146  -4.345   0.857  0.00  0.00    +0.078 A 
ATOM     25  C   UNL     1      -0.208  -3.329   0.850  0.00  0.00    +0.049 A 
ATOM     26 CL   UNL     1      -2.028  -4.700   2.309  0.00  0.00    -0.081 Cl
ATOM     27  F   UNL     1      -2.290  -6.079  -0.282  0.00  0.00    -0.204 F 
ENDBRANCH  10  20
BRANCH   1  28
ATOM     28  C   UNL     1       0.985   3.488   0.295  0.00  0.00    +0.161 C 
BRANCH  28  33
ATOM     29  C   UNL     1       0.682   5.984  -4.908  0.00  0.00    +0.044 C 
ATOM     30  C   UNL     1       0.761   5.334  -3.551  0.00  0.00    -0.050 A 
ATOM     31  C   UNL     1      -0.398   5.036  -2.859  0.00  0.00    +0.004 A 
ATOM     32  C   UNL     1      -0.326   4.439  -1.615  0.00  0.00    +0.005 A 
ATOM     33  C   UNL     1       0.906   4.139  -1.062  0.00  0.00    -0.028 A 
ATOM     34  C   UNL     1       2.065   4.441  -1.752  0.00  0.00    +0.005 A 
ATOM     35  C   UNL     1       1.992   5.035  -2.998  0.00  0.00    +0.004 A 
ENDBRANCH  28  33
ENDBRANCH   1  28
TORSDOF 3
