REMARK  Name = ZINC02864518
REMARK  2 active torsions:
REMARK  status: ('A' for Active; 'I' for Inactive)
REMARK    1  A    between atoms: C_1  and  C_2
REMARK    2  A    between atoms: C_5  and  N_8
REMARK                            x       y       z     vdW  Elec       q    Type
REMARK                         _______ _______ _______ _____ _____    ______ ____
ROOT
ATOM      1  N   UNL     1      -2.484   4.861   2.899  0.00  0.00    -0.209 N 
ATOM      2  C   UNL     1      -2.557   6.065   2.319  0.00  0.00    +0.241 C 
ATOM      3  O   UNL     1      -2.367   7.052   2.998  0.00  0.00    -0.274 OA
ATOM      4  C   UNL     1      -2.869   6.245   0.856  0.00  0.00    +0.193 C 
ATOM      5  C   UNL     1      -2.506   4.959   0.097  0.00  0.00    +0.060 C 
ATOM      6  C   UNL     1      -1.015   4.816   0.033  0.00  0.00    +0.001 A 
ATOM      7  C   UNL     1      -0.419   3.581  -0.141  0.00  0.00    +0.022 A 
ATOM      8  C   UNL     1       0.958   3.445  -0.163  0.00  0.00    +0.018 A 
ATOM      9  C   UNL     1       1.766   4.560  -0.042  0.00  0.00    +0.019 A 
ATOM     10  C   UNL     1       1.186   5.804   0.087  0.00  0.00    +0.048 A 
ATOM     11  C   UNL     1      -0.198   5.939   0.121  0.00  0.00    +0.135 A 
ATOM     12  O   UNL     1      -0.703   7.193   0.198  0.00  0.00    -0.425 OA
ATOM     13  C   UNL     1      -2.021   7.381   0.329  0.00  0.00    +0.325 C 
ATOM     14  O   UNL     1      -2.526   8.446   0.032  0.00  0.00    -0.250 OA
ATOM     15 BR   UNL     1       1.731   1.732  -0.370  0.00  0.00    -0.050 Br
ATOM     16  C   UNL     1      -3.213   3.806   0.797  0.00  0.00    +0.056 C 
ATOM     17  C   UNL     1      -2.749   3.727   2.228  0.00  0.00    +0.233 C 
ATOM     18  O   UNL     1      -2.621   2.654   2.769  0.00  0.00    -0.274 OA
ATOM     19  C   UNL     1      -3.006   2.464   0.089  0.00  0.00    +0.017 C 
ATOM     20  C   UNL     1      -4.356   1.719   0.262  0.00  0.00    +0.001 C 
ATOM     21  C   UNL     1      -5.394   2.856   0.107  0.00  0.00    +0.001 C 
ATOM     22  C   UNL     1      -4.734   4.073   0.787  0.00  0.00    +0.017 C 
ENDROOT
BRANCH   1  27
ATOM     23  C   UNL     1      -0.974   4.527   8.360  0.00  0.00    +0.044 C 
ATOM     24  C   UNL     1      -1.375   4.615   6.910  0.00  0.00    -0.050 A 
ATOM     25  C   UNL     1      -2.711   4.717   6.569  0.00  0.00    +0.005 A 
ATOM     26  C   UNL     1      -3.081   4.799   5.241  0.00  0.00    +0.024 A 
ATOM     27  C   UNL     1      -2.111   4.778   4.248  0.00  0.00    +0.044 A 
ATOM     28  C   UNL     1      -0.771   4.669   4.594  0.00  0.00    +0.024 A 
ATOM     29  C   UNL     1      -0.406   4.594   5.924  0.00  0.00    +0.005 A 
ENDBRANCH   1  27
TORSDOF 1
