REMARK  Name = ZINC18199040
REMARK  6 active torsions:
REMARK  status: ('A' for Active; 'I' for Inactive)
REMARK    1  A    between atoms: C_1  and  O_2
REMARK    2  A    between atoms: O_2  and  C_3
REMARK    3  A    between atoms: C_6  and  C_11
REMARK    4  A    between atoms: C_8  and  O_9
REMARK    5  A    between atoms: O_9  and  C_10
REMARK    6  A    between atoms: C_16  and  C_25
REMARK                            x       y       z     vdW  Elec       q    Type
REMARK                         _______ _______ _______ _____ _____    ______ ____
ROOT
ATOM      1  C   UNL     1       3.423   1.880   1.003  0.00  0.00    +0.032 C 
ATOM      2  C   UNL     1       2.436   0.944   0.303  0.00  0.00    +0.060 C 
ATOM      3  C   UNL     1       1.157   1.689   0.000  0.00  0.00    +0.020 C 
ATOM      4  C   UNL     1       1.174   3.012  -0.269  0.00  0.00    +0.041 C 
ATOM      5  C   UNL     1      -0.086   3.780  -0.605  0.00  0.00    +0.176 C 
ATOM      6  N   UNL     1      -1.259   2.988  -0.260  0.00  0.00    -0.219 N 
ATOM      7  C   UNL     1      -1.208   1.663   0.017  0.00  0.00    +0.220 A 
ATOM      8  N   UNL     1      -2.421   1.256   0.281  0.00  0.00    -0.180 NA
ATOM      9  C   UNL     1      -3.271   2.288   0.180  0.00  0.00    +0.233 A 
ATOM     10  N   UNL     1      -2.596   3.368  -0.148  0.00  0.00    -0.132 NA
ATOM     11  N   UNL     1      -4.649   2.226   0.391  0.00  0.00    -0.326 N 
ATOM     12  N   UNL     1      -0.011   0.966   0.007  0.00  0.00    -0.287 N 
ATOM     13  C   UNL     1       2.379   3.737  -0.250  0.00  0.00    +0.164 C 
ATOM     14  O   UNL     1       2.362   4.924  -0.510  0.00  0.00    -0.292 OA
ATOM     15  C   UNL     1       3.688   3.076   0.083  0.00  0.00    +0.088 C 
ATOM     16  H   UNL     1      -5.190   3.026   0.296  0.00  0.00    +0.145 HD
ATOM     17  H   UNL     1      -5.066   1.384   0.631  0.00  0.00    +0.145 HD
ATOM     18  H   UNL     1       0.002  -0.004   0.002  0.00  0.00    +0.155 HD
ENDROOT
BRANCH   5  19
ATOM     19  C   UNL     1      -0.106   4.086  -2.080  0.00  0.00    -0.017 A 
ATOM     20  C   UNL     1      -0.080   3.055  -3.001  0.00  0.00    +0.007 A 
ATOM     21  C   UNL     1      -0.103   3.334  -4.354  0.00  0.00    +0.022 A 
ATOM     22  C   UNL     1      -0.142   4.647  -4.789  0.00  0.00    +0.059 A 
ATOM     23  C   UNL     1      -0.162   5.680  -3.867  0.00  0.00    +0.060 A 
ATOM     24  C   UNL     1      -0.144   5.398  -2.513  0.00  0.00    +0.027 A 
ATOM     25 CL   UNL     1      -0.211   7.328  -4.411  0.00  0.00    -0.082 Cl
ATOM     26 CL   UNL     1      -0.164   4.999  -6.489  0.00  0.00    -0.082 Cl
ENDBRANCH   5  19
BRANCH   1  30
ATOM     27  C   UNL     1       7.086  -0.194   1.757  0.00  0.00    +0.161 A 
ATOM     28  C   UNL     1       6.614  -0.064   0.461  0.00  0.00    +0.049 A 
ATOM     29  C   UNL     1       5.427   0.602   0.221  0.00  0.00    +0.008 A 
ATOM     30  C   UNL     1       4.713   1.150   1.271  0.00  0.00    -0.040 A 
ATOM     31  C   UNL     1       5.178   1.024   2.567  0.00  0.00    +0.053 A 
ATOM     32  C   UNL     1       6.365   0.352   2.815  0.00  0.00    +0.162 A 
BRANCH  27  34
ATOM     33  C   UNL     1       8.937  -1.389   0.862  0.00  0.00    +0.277 C 
ATOM     34  O   UNL     1       8.251  -0.854   1.996  0.00  0.00    -0.491 OA
ENDBRANCH  27  34
BRANCH  32  35
ATOM     35  O   UNL     1       6.823   0.227   4.089  0.00  0.00    -0.491 OA
ATOM     36  C   UNL     1       6.031   0.812   5.124  0.00  0.00    +0.277 C 
ENDBRANCH  32  35
ENDBRANCH   1  30
TORSDOF 4
