REMARK  Name = ZINC36582778
REMARK  19 active torsions:
REMARK  status: ('A' for Active; 'I' for Inactive)
REMARK    1  A    between atoms: C_1  and  C_2
REMARK    2  A    between atoms: C_2  and  C_3
REMARK    3  A    between atoms: C_3  and  C_4
REMARK    4  A    between atoms: C_4  and  C_5
REMARK    5  A    between atoms: C_5  and  C_7
REMARK    6  A    between atoms: C_5  and  C_9
REMARK    7  A    between atoms: C_7  and  C_8
REMARK    8  A    between atoms: N_11  and  C_12
REMARK    9  A    between atoms: N_11  and  C_24
REMARK   10  A    between atoms: C_12  and  C_14
REMARK   11  A    between atoms: C_12  and  C_17
REMARK   12  A    between atoms: C_15  and  C_16
REMARK   13  A    between atoms: N_19  and  C_20
REMARK   14  A    between atoms: C_20  and  C_21
REMARK   15  A    between atoms: C_21  and  C_22
REMARK   16  A    between atoms: C_22  and  C_23
REMARK   17  A    between atoms: C_24  and  C_25
REMARK   18  A    between atoms: C_24  and  C_26
REMARK   19  A    between atoms: C_24  and  C_27
REMARK                            x       y       z     vdW  Elec       q    Type
REMARK                         _______ _______ _______ _____ _____    ______ ____
ROOT
ATOM      1  C   UNL     1       1.548  -2.977   3.053  0.00  0.00    +0.220 C 
ATOM      2  O   UNL     1       0.794  -2.698   2.145  0.00  0.00    -0.275 OA
ATOM      3  N   UNL     1       1.896  -4.261   3.269  0.00  0.00    -0.281 N 
ENDROOT
BRANCH   3   4
ATOM      4  C   UNL     1       2.852  -4.592   4.329  0.00  0.00    +0.030 C 
ATOM      5  C   UNL     1       2.246  -4.243   5.690  0.00  0.00    +0.031 C 
ATOM      6  C   UNL     1       3.169  -6.088   4.280  0.00  0.00    +0.031 C 
ATOM      7  C   UNL     1       4.139  -3.792   4.123  0.00  0.00    +0.031 C 
ENDBRANCH   3   4
BRANCH   1   8
ATOM      8  C   UNL     1       2.095  -1.888   3.940  0.00  0.00    +0.075 C 
BRANCH   8   9
ATOM      9  C   UNL     1       0.941  -1.040   4.478  0.00  0.00    +0.009 C 
ATOM     10  C   UNL     1       0.073  -1.891   5.407  0.00  0.00    +0.004 C 
ENDBRANCH   8   9
BRANCH   8  11
ATOM     11  C   UNL     1       3.046  -1.002   3.132  0.00  0.00    +0.013 C 
BRANCH  11  12
ATOM     12  C   UNL     1       3.697   0.025   4.060  0.00  0.00    +0.000 C 
BRANCH  12  14
ATOM     13  C   UNL     1       5.299   1.939   4.179  0.00  0.00    +0.004 C 
ATOM     14  C   UNL     1       4.648   0.911   3.252  0.00  0.00    -0.003 C 
ENDBRANCH  12  14
ENDBRANCH  11  12
ENDBRANCH   8  11
ENDBRANCH   1   8
BRANCH   3  15
ATOM     15  C   UNL     1       1.319  -5.325   2.445  0.00  0.00    +0.185 C 
BRANCH  15  16
ATOM     16  C   UNL     1       0.542  -6.274   3.321  0.00  0.00    +0.238 C 
ATOM     17  O   UNL     1       0.391  -6.026   4.498  0.00  0.00    -0.273 OA
ATOM     18  N   UNL     1       0.015  -7.398   2.796  0.00  0.00    -0.314 N 
ATOM     19  H   UNL     1       0.136  -7.596   1.854  0.00  0.00    +0.149 HD
BRANCH  18  20
ATOM     20  C   UNL     1      -0.740  -8.321   3.647  0.00  0.00    +0.104 C 
BRANCH  20  21
ATOM     21  C   UNL     1      -1.224  -9.506   2.811  0.00  0.00    +0.018 C 
BRANCH  21  22
ATOM     22  C   UNL     1      -2.013 -10.470   3.700  0.00  0.00    -0.002 C 
ATOM     23  C   UNL     1      -2.497 -11.656   2.863  0.00  0.00    +0.004 C 
ENDBRANCH  21  22
ENDBRANCH  20  21
ENDBRANCH  18  20
ENDBRANCH  15  16
BRANCH  15  24
ATOM     24  C   UNL     1       2.424  -6.076   1.747  0.00  0.00    +0.000 C 
ATOM     25  C   UNL     1       2.522  -6.033   0.442  0.00  0.00    -0.032 C 
ATOM     26  C   UNL     1       3.627  -6.783  -0.256  0.00  0.00    +0.035 C 
ENDBRANCH  15  24
ENDBRANCH   3  15
TORSDOF 12
