REMARK  Name = ZINC22066565
REMARK  13 active torsions:
REMARK  status: ('A' for Active; 'I' for Inactive)
REMARK    1  A    between atoms: C_1  and  C_2
REMARK    2  A    between atoms: C_1  and  O_31
REMARK    3  A    between atoms: C_4  and  O_30
REMARK    4  A    between atoms: C_6  and  O_29
REMARK    5  A    between atoms: C_8  and  O_28
REMARK    6  A    between atoms: C_10  and  O_13
REMARK    7  A    between atoms: O_13  and  C_14
REMARK    8  A    between atoms: C_14  and  C_26
REMARK    9  A    between atoms: C_15  and  O_25
REMARK   10  A    between atoms: C_17  and  O_24
REMARK   11  A    between atoms: C_19  and  C_22
REMARK   12  A    between atoms: C_22  and  O_23
REMARK   13  A    between atoms: C_26  and  O_27
REMARK                            x       y       z     vdW  Elec       q    Type
REMARK                         _______ _______ _______ _____ _____    ______ ____
ROOT
ATOM      1  O   UNL     1      -2.038   0.792   1.220  0.00  0.00    -0.313 OA
ENDROOT
BRANCH   1   6
ATOM      2  C   UNL     1       0.133   3.601   0.430  0.00  0.00    +0.178 C 
ATOM      3  C   UNL     1       1.178   2.890  -0.434  0.00  0.00    +0.177 C 
ATOM      4  C   UNL     1       1.497   1.525   0.184  0.00  0.00    +0.179 C 
ATOM      5  C   UNL     1       0.201   0.718   0.310  0.00  0.00    +0.201 C 
ATOM      6  C   UNL     1      -0.806   1.513   1.145  0.00  0.00    +0.285 C 
ATOM      7  O   UNL     1      -1.035   2.784   0.531  0.00  0.00    -0.340 OA
BRANCH   5   8
ATOM      8  O   UNL     1      -0.340   0.477  -0.991  0.00  0.00    -0.384 OA
ATOM      9  H   UNL     1      -1.275  -0.091  -1.101  0.00  0.00    +0.210 HD
ENDBRANCH   5   8
BRANCH   4  10
ATOM     10  O   UNL     1       2.417   0.824  -0.654  0.00  0.00    -0.386 OA
ATOM     11  H   UNL     1       2.764  -0.181  -0.371  0.00  0.00    +0.210 HD
ENDBRANCH   4  10
BRANCH   3  12
ATOM     12  O   UNL     1       2.369   3.678  -0.490  0.00  0.00    -0.386 OA
ATOM     13  H   UNL     1       3.235   3.325  -1.069  0.00  0.00    +0.210 HD
ENDBRANCH   3  12
BRANCH   2  14
ATOM     14  C   UNL     1      -0.235   4.939  -0.213  0.00  0.00    +0.190 C 
BRANCH  14  15
ATOM     15  O   UNL     1      -1.129   5.650   0.646  0.00  0.00    -0.392 OA
ATOM     16  H   UNL     1      -1.506   6.640   0.349  0.00  0.00    +0.210 HD
ENDBRANCH  14  15
ENDBRANCH   2  14
ENDBRANCH   1   6
BRANCH   1  17
ATOM     17  C   UNL     1      -2.840   1.126   2.354  0.00  0.00    +0.225 C 
ATOM     18  C   UNL     1      -4.054   0.177   2.435  0.00  0.00    +0.207 C 
ATOM     19  C   UNL     1      -3.582  -0.875   3.475  0.00  0.00    +0.179 C 
ATOM     20  C   UNL     1      -2.724   0.006   4.417  0.00  0.00    +0.178 C 
ATOM     21  O   UNL     1      -2.077   0.956   3.555  0.00  0.00    -0.336 OA
BRANCH  19  22
ATOM     22  O   UNL     1      -2.790  -1.891   2.856  0.00  0.00    -0.386 OA
ATOM     23  H   UNL     1      -2.378  -2.712   3.461  0.00  0.00    +0.210 HD
ENDBRANCH  19  22
BRANCH  18  24
ATOM     24  O   UNL     1      -4.306  -0.436   1.169  0.00  0.00    -0.384 OA
ATOM     25  H   UNL     1      -5.141  -1.143   1.056  0.00  0.00    +0.210 HD
ENDBRANCH  18  24
BRANCH  20  26
ATOM     26  C   UNL     1      -1.682  -0.849   5.141  0.00  0.00    +0.190 C 
BRANCH  26  27
ATOM     27  O   UNL     1      -0.935  -0.028   6.041  0.00  0.00    -0.392 OA
ATOM     28  H   UNL     1      -0.136  -0.470   6.654  0.00  0.00    +0.210 HD
ENDBRANCH  26  27
ENDBRANCH  20  26
BRANCH  17  29
ATOM     29  C   UNL     1      -3.317   2.576   2.243  0.00  0.00    +0.223 C 
BRANCH  29  30
ATOM     30  O   UNL     1      -2.196   3.456   2.347  0.00  0.00    -0.390 OA
ATOM     31  H   UNL     1      -2.344   4.544   2.290  0.00  0.00    +0.210 HD
ENDBRANCH  29  30
ENDBRANCH  17  29
ENDBRANCH   1  17
TORSDOF 13
