REMARK  Name = ZINC45939651
REMARK  7 active torsions:
REMARK  status: ('A' for Active; 'I' for Inactive)
REMARK    1  A    between atoms: C_1  and  C_2
REMARK    2  A    between atoms: C_4  and  C_30
REMARK    3  A    between atoms: C_6  and  N_8
REMARK    4  A    between atoms: N_10  and  C_11
REMARK    5  A    between atoms: C_11  and  C_12
REMARK    6  A    between atoms: N_18  and  C_19
REMARK    7  A    between atoms: C_19  and  C_21
REMARK                            x       y       z     vdW  Elec       q    Type
REMARK                         _______ _______ _______ _____ _____    ______ ____
ROOT
ATOM      1  N   UNL     1      -0.151  -2.673   2.120  0.00  0.00    -0.328 N 
ATOM      2  C   UNL     1      -0.126  -2.116   3.366  0.00  0.00    +0.194 C 
ATOM      3  N   UNL     1      -0.091  -2.916   4.471  0.00  0.00    -0.353 N 
ATOM      4  N   UNL     1      -0.135  -0.799   3.503  0.00  0.00    -0.143 NA
ATOM      5  H   UNL     1      -0.095  -2.521   5.356  0.00  0.00    +0.163 HD
ATOM      6  H   UNL     1       0.515  -2.420   1.462  0.00  0.00    +0.169 HD
ENDROOT
BRANCH   1  12
ATOM      7  C   UNL     1      -4.805  -4.217   2.477  0.00  0.00    +0.044 C 
ATOM      8  C   UNL     1      -3.402  -4.382   1.951  0.00  0.00    -0.048 A 
ATOM      9  C   UNL     1      -3.089  -5.461   1.145  0.00  0.00    +0.006 A 
ATOM     10  C   UNL     1      -1.803  -5.615   0.660  0.00  0.00    -0.048 A 
ATOM     11  C   UNL     1      -0.827  -4.693   0.982  0.00  0.00    +0.029 A 
ATOM     12  C   UNL     1      -1.138  -3.609   1.792  0.00  0.00    +0.042 A 
ATOM     13  C   UNL     1      -2.432  -3.453   2.272  0.00  0.00    +0.029 A 
ATOM     14  C   UNL     1      -1.467  -6.792  -0.219  0.00  0.00    +0.044 C 
ENDBRANCH   1  12
BRANCH   4  15
ATOM     15  C   UNL     1      -0.286  -0.015   2.427  0.00  0.00    +0.270 C 
ATOM     16  O   UNL     1      -0.465  -0.513   1.330  0.00  0.00    -0.268 OA
BRANCH  15  17
ATOM     17  C   UNL     1      -0.235   1.457   2.571  0.00  0.00    +0.043 A 
ATOM     18  C   UNL     1       0.084   2.028   3.805  0.00  0.00    +0.017 A 
ATOM     19  C   UNL     1       0.132   3.399   3.938  0.00  0.00    +0.050 A 
ATOM     20  C   UNL     1      -0.137   4.216   2.848  0.00  0.00    +0.166 A 
ATOM     21  C   UNL     1      -0.456   3.651   1.613  0.00  0.00    +0.167 A 
ATOM     22  C   UNL     1      -0.499   2.277   1.473  0.00  0.00    +0.062 A 
ATOM     23  O   UNL     1      -0.674   4.657   0.717  0.00  0.00    -0.453 OA
ATOM     24  C   UNL     1      -0.887   5.839   1.512  0.00  0.00    +0.466 C 
ATOM     25  O   UNL     1      -0.155   5.574   2.723  0.00  0.00    -0.453 OA
ENDBRANCH  15  17
ENDBRANCH   4  15
BRANCH   3  26
ATOM     26  C   UNL     1      -0.049  -4.373   4.319  0.00  0.00    +0.151 C 
BRANCH  26  27
ATOM     27  C   UNL     1       0.038  -5.017   5.678  0.00  0.00    -0.025 A 
ATOM     28  C   UNL     1       1.262  -5.183   6.308  0.00  0.00    +0.025 A 
ATOM     29  C   UNL     1       1.302  -5.779   7.555  0.00  0.00    +0.111 A 
ATOM     30  N   UNL     1       0.195  -6.187   8.144  0.00  0.00    -0.263 NA
ATOM     31  C   UNL     1      -0.986  -6.045   7.574  0.00  0.00    +0.111 A 
ATOM     32  C   UNL     1      -1.105  -5.453   6.331  0.00  0.00    +0.025 A 
ENDBRANCH  26  27
ENDBRANCH   3  26
TORSDOF 5
