REMARK  Name = ZINC41893924
REMARK  9 active torsions:
REMARK  status: ('A' for Active; 'I' for Inactive)
REMARK    1  A    between atoms: C_1  and  C_2
REMARK    2  A    between atoms: C_2  and  C_3
REMARK    3  A    between atoms: C_3  and  C_4
REMARK    4  A    between atoms: C_3  and  C_5
REMARK    5  A    between atoms: C_3  and  C_6
REMARK    6  A    between atoms: C_9  and  C_12
REMARK    7  A    between atoms: C_9  and  N_15
REMARK    8  A    between atoms: C_16  and  C_21
REMARK    9  A    between atoms: C_18  and  C_20
REMARK                            x       y       z     vdW  Elec       q    Type
REMARK                         _______ _______ _______ _____ _____    ______ ____
ROOT
ATOM      1  C   UNL     1       1.137  -2.220  -0.595  0.00  0.00    -0.005 C 
ATOM      2  C   UNL     1       2.458  -2.750  -0.032  0.00  0.00    +0.007 C 
ATOM      3  C   UNL     1       2.447  -4.280  -0.060  0.00  0.00    +0.042 C 
ATOM      4  C   UNL     1       2.277  -4.762  -1.502  0.00  0.00    +0.164 C 
ATOM      5  C   UNL     1       0.957  -4.233  -2.065  0.00  0.00    +0.042 C 
ATOM      6  C   UNL     1       0.967  -2.703  -2.037  0.00  0.00    +0.007 C 
ENDROOT
BRANCH   4   7
ATOM      7  N   UNL     1       3.389  -4.267  -2.317  0.00  0.00    -0.251 N 
ATOM      8  C   UNL     1       4.686  -4.618  -2.189  0.00  0.00    +0.038 A 
ATOM      9  C   UNL     1       5.391  -3.943  -3.125  0.00  0.00    +0.047 A 
ATOM     10  C   UNL     1       4.494  -3.151  -3.851  0.00  0.00    +0.060 A 
ATOM     11  N   UNL     1       3.293  -3.349  -3.371  0.00  0.00    -0.175 NA
ATOM     12  C   UNL     1       4.849  -2.234  -4.993  0.00  0.00    +0.067 C 
ATOM     13  C   UNL     1       5.248  -5.589  -1.182  0.00  0.00    +0.065 C 
ENDBRANCH   4   7
BRANCH   1  14
ATOM     14  C   UNL     1       1.148  -0.691  -0.567  0.00  0.00    -0.032 C 
ATOM     15  C   UNL     1      -0.172  -0.161  -1.130  0.00  0.00    +0.011 C 
ATOM     16  C   UNL     1       2.309  -0.173  -1.419  0.00  0.00    +0.011 C 
BRANCH  14  18
ATOM     17  C   UNL     1       1.329   1.322   0.902  0.00  0.00    +0.004 C 
ATOM     18  C   UNL     1       1.318  -0.208   0.875  0.00  0.00    +0.003 C 
ENDBRANCH  14  18
ENDBRANCH   1  14
BRANCH   4  19
ATOM     19  C   UNL     1       2.267  -6.269  -1.529  0.00  0.00    +0.383 C 
ATOM     20  O   UNL     1       2.250  -6.859  -2.596  0.00  0.00    -0.244 OA
ATOM     21  O   UNL     1       2.275  -6.898  -0.485  0.00  0.00    -0.244 OA
ENDBRANCH   4  19
TORSDOF 4
