REMARK  Name = ZINC04710984
REMARK  7 active torsions:
REMARK  status: ('A' for Active; 'I' for Inactive)
REMARK    1  A    between atoms: C_1  and  C_2
REMARK    2  A    between atoms: C_2  and  C_3
REMARK    3  A    between atoms: C_6  and  C_9
REMARK    4  A    between atoms: N_11  and  C_12
REMARK    5  A    between atoms: C_12  and  N_14
REMARK    6  A    between atoms: N_14  and  C_15
REMARK    7  A    between atoms: C_19  and  C_21
REMARK                            x       y       z     vdW  Elec       q    Type
REMARK                         _______ _______ _______ _____ _____    ______ ____
ROOT
ATOM      1  N   UNL     1       0.002  -0.004   0.002  0.00  0.00    -0.297 N 
ATOM      2  H   UNL     1       0.846  -0.477  -0.071  0.00  0.00    +0.154 HD
ENDROOT
BRANCH   1   3
ATOM      3  C   UNL     1      -0.018   1.395  -0.006  0.00  0.00    +0.033 A 
ATOM      4  C   UNL     1      -0.944   2.072  -0.792  0.00  0.00    +0.023 A 
ATOM      5  C   UNL     1      -0.972   3.453  -0.799  0.00  0.00    +0.003 A 
ATOM      6  C   UNL     1      -0.074   4.171  -0.035  0.00  0.00    +0.013 A 
ATOM      7  C   UNL     1       0.864   3.500   0.752  0.00  0.00    +0.039 A 
ATOM      8  C   UNL     1       0.888   2.106   0.764  0.00  0.00    +0.036 A 
BRANCH   7   9
ATOM      9  C   UNL     1       1.828   4.266   1.571  0.00  0.00    +0.228 A 
ATOM     10  N   UNL     1       1.890   5.572   1.631  0.00  0.00    -0.209 NA
ATOM     11  C   UNL     1       2.891   5.923   2.479  0.00  0.00    +0.110 A 
ATOM     12  C   UNL     1       3.399   7.148   2.916  0.00  0.00    +0.031 A 
ATOM     13  C   UNL     1       4.451   7.173   3.805  0.00  0.00    +0.002 A 
ATOM     14  C   UNL     1       5.008   5.990   4.267  0.00  0.00    +0.004 A 
ATOM     15  C   UNL     1       4.516   4.772   3.844  0.00  0.00    +0.048 A 
ATOM     16  C   UNL     1       3.458   4.727   2.950  0.00  0.00    +0.156 A 
ATOM     17  O   UNL     1       2.767   3.722   2.368  0.00  0.00    -0.435 OA
ENDBRANCH   7   9
ENDBRANCH   1   3
BRANCH   1  18
ATOM     18  C   UNL     1      -1.150  -0.694   0.111  0.00  0.00    +0.141 C 
ATOM     19  S   UNL     1      -2.647   0.137   0.130  0.00  0.00    -0.018 S 
BRANCH  18  22
ATOM     20  C   UNL     1      -2.277  -2.729   0.314  0.00  0.00    +0.250 C 
ATOM     21  O   UNL     1      -3.340  -2.139   0.328  0.00  0.00    -0.270 OA
ATOM     22  N   UNL     1      -1.125  -2.038   0.205  0.00  0.00    -0.264 N 
ATOM     23  H   UNL     1      -0.277  -2.509   0.194  0.00  0.00    +0.157 HD
BRANCH  20  27
ATOM     24  C   UNL     1      -2.196  -6.965   0.610  0.00  0.00    -0.048 A 
ATOM     25  C   UNL     1      -3.407  -6.296   0.626  0.00  0.00    +0.004 A 
ATOM     26  C   UNL     1      -3.441  -4.920   0.530  0.00  0.00    +0.013 A 
ATOM     27  C   UNL     1      -2.249  -4.202   0.417  0.00  0.00    +0.037 A 
ATOM     28  C   UNL     1      -1.030  -4.884   0.396  0.00  0.00    +0.013 A 
ATOM     29  C   UNL     1      -1.011  -6.259   0.499  0.00  0.00    +0.004 A 
BRANCH  24  31
ATOM     30  C   UNL     1      -2.232  -9.078  -0.686  0.00  0.00    +0.009 C 
ATOM     31  C   UNL     1      -2.167  -8.468   0.715  0.00  0.00    +0.032 C 
ENDBRANCH  24  31
ENDBRANCH  20  27
ENDBRANCH  18  22
ENDBRANCH   1  18
TORSDOF 6
