REMARK  Name = ZINC21884619
REMARK  4 active torsions:
REMARK  status: ('A' for Active; 'I' for Inactive)
REMARK    1  A    between atoms: C_1  and  C_2
REMARK    2  A    between atoms: C_5  and  C_8
REMARK    3  A    between atoms: C_14  and  N_18
REMARK    4  A    between atoms: C_24  and  C_26
REMARK                            x       y       z     vdW  Elec       q    Type
REMARK                         _______ _______ _______ _____ _____    ______ ____
ROOT
ATOM      1  C   UNL     1       5.941   2.046  -2.748  0.00  0.00    +0.132 A 
ATOM      2  N   UNL     1       4.670   2.149  -3.035  0.00  0.00    -0.154 NA
ATOM      3  N   UNL     1       3.942   3.288  -2.705  0.00  0.00    -0.171 N 
ATOM      4  C   UNL     1       2.617   3.515  -2.945  0.00  0.00    +0.277 A 
ATOM      5  O   UNL     1       1.943   2.661  -3.502  0.00  0.00    -0.266 OA
ATOM      6  C   UNL     1       2.035   4.715  -2.558  0.00  0.00    +0.115 A 
ATOM      7  C   UNL     1       2.808   5.682  -1.925  0.00  0.00    +0.129 A 
ATOM      8  N   UNL     1       4.102   5.425  -1.706  0.00  0.00    -0.206 NA
ATOM      9  C   UNL     1       4.634   4.290  -2.078  0.00  0.00    +0.201 A 
ATOM     10  S   UNL     1       6.275   3.612  -1.959  0.00  0.00    -0.028 S 
ENDROOT
BRANCH   7  11
ATOM     11  N   UNL     1       2.250   6.884  -1.530  0.00  0.00    -0.312 N 
ATOM     12  C   UNL     1       1.717   7.621  -2.684  0.00  0.00    +0.125 C 
ATOM     13  C   UNL     1       0.951   8.853  -2.190  0.00  0.00    +0.127 C 
ATOM     14  N   UNL     1       1.837   9.631  -1.310  0.00  0.00    -0.295 N 
ATOM     15  C   UNL     1       2.517   8.930  -0.210  0.00  0.00    +0.127 C 
ATOM     16  C   UNL     1       3.220   7.695  -0.783  0.00  0.00    +0.125 C 
ATOM     17  C   UNL     1       2.019  10.952  -1.506  0.00  0.00    +0.247 C 
ATOM     18  O   UNL     1       2.699  11.593  -0.728  0.00  0.00    -0.270 OA
BRANCH  17  19
ATOM     19  C   UNL     1       1.393  11.621  -2.666  0.00  0.00    +0.038 A 
ATOM     20  C   UNL     1       0.036  11.433  -2.935  0.00  0.00    +0.013 A 
ATOM     21  C   UNL     1      -0.544  12.063  -4.016  0.00  0.00    +0.002 A 
ATOM     22  C   UNL     1       0.218  12.874  -4.839  0.00  0.00    +0.020 A 
ATOM     23  C   UNL     1       1.565  13.061  -4.581  0.00  0.00    +0.042 A 
ATOM     24  C   UNL     1       2.157  12.439  -3.499  0.00  0.00    +0.033 A 
ATOM     25 CL   UNL     1       2.513  14.079  -5.620  0.00  0.00    -0.084 Cl
ENDBRANCH  17  19
ENDBRANCH   7  11
BRANCH   1  30
ATOM     26  C   UNL     1       9.540  -2.325  -3.782  0.00  0.00    +0.044 C 
ATOM     27  C   UNL     1       8.598  -1.181  -3.511  0.00  0.00    -0.050 A 
ATOM     28  C   UNL     1       9.062  -0.041  -2.879  0.00  0.00    +0.004 A 
ATOM     29  C   UNL     1       8.204   1.010  -2.628  0.00  0.00    +0.011 A 
ATOM     30  C   UNL     1       6.866   0.921  -3.013  0.00  0.00    +0.009 A 
ATOM     31  C   UNL     1       6.403  -0.233  -3.644  0.00  0.00    +0.011 A 
ATOM     32  C   UNL     1       7.272  -1.275  -3.894  0.00  0.00    +0.004 A 
ENDBRANCH   1  30
TORSDOF 3
