REMARK  Name = ZINC15133890
REMARK  6 active torsions:
REMARK  status: ('A' for Active; 'I' for Inactive)
REMARK    1  A    between atoms: C_1  and  C_2
REMARK    2  A    between atoms: C_5  and  C_30
REMARK    3  A    between atoms: C_7  and  C_29
REMARK    4  A    between atoms: C_19  and  O_28
REMARK    5  A    between atoms: C_22  and  C_27
REMARK    6  A    between atoms: C_30  and  C_32
REMARK                            x       y       z     vdW  Elec       q    Type
REMARK                         _______ _______ _______ _____ _____    ______ ____
ROOT
ATOM      1  C   UNL     1      -1.681   6.303  -0.636  0.00  0.00    +0.008 C 
ATOM      2  C   UNL     1      -0.600   5.300  -0.444  0.00  0.00    -0.009 C 
ATOM      3  C   UNL     1       0.216   5.168  -1.837  0.00  0.00    +0.015 C 
ATOM      4  C   UNL     1       0.258   3.726  -2.201  0.00  0.00    +0.061 C 
ATOM      5  C   UNL     1      -0.841   3.074  -1.424  0.00  0.00    -0.019 C 
ATOM      6  C   UNL     1      -1.144   3.874  -0.179  0.00  0.00    +0.002 C 
ATOM      7  C   UNL     1      -0.577   3.376   1.117  0.00  0.00    -0.001 C 
ATOM      8  C   UNL     1       0.813   3.941   1.444  0.00  0.00    +0.038 C 
ATOM      9  C   UNL     1       1.571   3.185   2.467  0.00  0.00    +0.152 C 
ATOM     10  C   UNL     1       1.128   1.841   3.012  0.00  0.00    +0.102 C 
ATOM     11  O   UNL     1       2.066   1.924   2.032  0.00  0.00    -0.364 OA
ATOM     12  C   UNL     1       1.620   1.317   4.361  0.00  0.00    +0.041 C 
ATOM     13  C   UNL     1       1.585  -0.261   4.254  0.00  0.00    +0.034 C 
ATOM     14  C   UNL     1       0.214  -0.769   4.033  0.00  0.00    +0.115 C 
ATOM     15  C   UNL     1      -0.335  -0.129   2.670  0.00  0.00    +0.041 C 
ATOM     16  C   UNL     1      -0.293   1.394   2.664  0.00  0.00    +0.005 C 
ATOM     17  C   UNL     1      -0.653   1.929   1.287  0.00  0.00    +0.001 C 
ATOM     18  C   UNL     1       0.043   1.241   0.189  0.00  0.00    +0.005 C 
ATOM     19  C   UNL     1      -0.639   1.530  -1.171  0.00  0.00    +0.008 C 
ATOM     20  C   UNL     1      -1.315   1.898   3.697  0.00  0.00    +0.014 C 
ATOM     21  C   UNL     1      -2.094   3.113  -2.258  0.00  0.00    +0.012 C 
ENDROOT
BRANCH   4  22
ATOM     22  C   UNL     1       1.574   3.107  -2.070  0.00  0.00    +0.134 C 
ATOM     23  O   UNL     1       2.333   3.479  -1.208  0.00  0.00    -0.297 OA
ATOM     24  C   UNL     1       1.985   2.003  -3.011  0.00  0.00    +0.086 C 
ENDBRANCH   4  22
BRANCH  14  25
ATOM     25  O   UNL     1      -0.672  -0.457   5.055  0.00  0.00    -0.392 OA
ATOM     26  H   UNL     1      -0.417  -0.809   5.919  0.00  0.00    +0.210 HD
ENDBRANCH  14  25
TORSDOF 2
