REMARK  Name = ZINC67391428
REMARK  18 active torsions:
REMARK  status: ('A' for Active; 'I' for Inactive)
REMARK    1  A    between atoms: C_1  and  C_2
REMARK    2  A    between atoms: C_2  and  C_3
REMARK    3  A    between atoms: C_2  and  C_4
REMARK    4  A    between atoms: C_2  and  O_5
REMARK    5  A    between atoms: O_5  and  C_6
REMARK    6  A    between atoms: N_8  and  C_9
REMARK    7  A    between atoms: N_8  and  C_25
REMARK    8  A    between atoms: C_9  and  C_10
REMARK    9  A    between atoms: C_10  and  N_11
REMARK   10  A    between atoms: N_14  and  C_15
REMARK   11  A    between atoms: C_15  and  C_16
REMARK   12  A    between atoms: C_16  and  C_17
REMARK   13  A    between atoms: C_17  and  C_18
REMARK   14  A    between atoms: C_18  and  C_19
REMARK   15  A    between atoms: C_19  and  C_20
REMARK   16  A    between atoms: C_20  and  C_21
REMARK   17  A    between atoms: C_21  and  O_23
REMARK   18  A    between atoms: O_23  and  C_24
REMARK                            x       y       z     vdW  Elec       q    Type
REMARK                         _______ _______ _______ _____ _____    ______ ____
ROOT
ATOM      1  N   UNL     1       6.365  -0.419  -2.220  0.00  0.00    -0.298 N 
ATOM      2  C   UNL     1       7.424  -1.086  -1.721  0.00  0.00    +0.300 C 
ATOM      3  O   UNL     1       7.253  -2.103  -1.077  0.00  0.00    -0.253 OA
ATOM      4  N   UNL     1       8.672  -0.626  -1.935  0.00  0.00    -0.299 N 
ATOM      5  H   UNL     1       6.501   0.392  -2.734  0.00  0.00    +0.150 HD
ATOM      6  H   UNL     1       8.809   0.185  -2.449  0.00  0.00    +0.150 HD
ENDROOT
BRANCH   1   7
ATOM      7  C   UNL     1       5.008  -0.919  -1.988  0.00  0.00    +0.125 C 
BRANCH   7   8
ATOM      8  C   UNL     1       3.998   0.015  -2.657  0.00  0.00    +0.130 C 
BRANCH   8  11
ATOM      9  C   UNL     1       1.952  -0.084  -1.337  0.00  0.00    +0.404 C 
ATOM     10  O   UNL     1       2.488   0.619  -0.503  0.00  0.00    -0.226 OA
ATOM     11  N   UNL     1       2.641  -0.485  -2.424  0.00  0.00    -0.263 N 
BRANCH  11  12
ATOM     12  C   UNL     1       2.033  -1.421  -3.373  0.00  0.00    +0.079 C 
ATOM     13  C   UNL     1       2.953  -2.084  -4.400  0.00  0.00    +0.024 C 
ATOM     14  C   UNL     1       1.970  -0.998  -4.841  0.00  0.00    +0.024 C 
ENDBRANCH  11  12
BRANCH   9  15
ATOM     15  O   UNL     1       0.670  -0.462  -1.176  0.00  0.00    -0.445 OA
BRANCH  15  17
ATOM     16  C   UNL     1      -0.018   1.530   0.008  0.00  0.00    +0.055 C 
ATOM     17  C   UNL     1       0.000   0.000  -0.001  0.00  0.00    +0.107 C 
ATOM     18  C   UNL     1       0.738  -0.508   1.240  0.00  0.00    +0.055 C 
ATOM     19  C   UNL     1      -1.436  -0.527   0.009  0.00  0.00    +0.055 C 
ENDBRANCH  15  17
ENDBRANCH   9  15
ENDBRANCH   8  11
ENDBRANCH   7   8
ENDBRANCH   1   7
BRANCH   4  20
ATOM     20  C   UNL     1       9.823  -1.351  -1.391  0.00  0.00    +0.106 C 
BRANCH  20  21
ATOM     21  C   UNL     1      11.113  -0.623  -1.776  0.00  0.00    +0.019 C 
BRANCH  21  22
ATOM     22  C   UNL     1      12.315  -1.380  -1.208  0.00  0.00    +0.002 C 
BRANCH  22  23
ATOM     23  C   UNL     1      13.604  -0.652  -1.593  0.00  0.00    +0.001 C 
BRANCH  23  24
ATOM     24  C   UNL     1      14.807  -1.409  -1.025  0.00  0.00    +0.011 C 
BRANCH  24  25
ATOM     25  C   UNL     1      16.096  -0.680  -1.409  0.00  0.00    +0.120 C 
BRANCH  25  26
ATOM     26  C   UNL     1      17.280  -1.427  -0.851  0.00  0.00    +0.307 C 
ATOM     27  O   UNL     1      17.110  -2.437  -0.211  0.00  0.00    -0.251 OA
BRANCH  26  28
ATOM     28  O   UNL     1      18.524  -0.968  -1.064  0.00  0.00    -0.468 OA
ATOM     29  C   UNL     1      19.599  -1.725  -0.505  0.00  0.00    +0.280 C 
ENDBRANCH  26  28
ENDBRANCH  25  26
ENDBRANCH  24  25
ENDBRANCH  23  24
ENDBRANCH  22  23
ENDBRANCH  21  22
ENDBRANCH  20  21
ENDBRANCH   4  20
TORSDOF 14
