REMARK  Name = ZINC24534430
REMARK  8 active torsions:
REMARK  status: ('A' for Active; 'I' for Inactive)
REMARK    1  A    between atoms: C_1  and  C_2
REMARK    2  A    between atoms: C_2  and  N_3
REMARK    3  A    between atoms: N_3  and  C_4
REMARK    4  A    between atoms: C_4  and  C_5
REMARK    5  A    between atoms: C_6  and  C_8
REMARK    6  A    between atoms: C_8  and  N_9
REMARK    7  A    between atoms: N_12  and  S_15
REMARK    8  A    between atoms: S_15  and  C_18
REMARK                            x       y       z     vdW  Elec       q    Type
REMARK                         _______ _______ _______ _____ _____    ______ ____
ROOT
ATOM      1  N   UNL     1      -0.781   1.745   1.374  0.00  0.00    +0.387 N 
ATOM      2  C   UNL     1      -0.154   1.509   0.066  0.00  0.00    -0.061 C 
ATOM      3  C   UNL     1      -0.975   2.205  -1.024  0.00  0.00    +0.091 C 
ATOM      4  N   UNL     1      -1.134   3.621  -0.657  0.00  0.00    -0.180 NA
ATOM      5  C   UNL     1      -1.629   3.939   0.691  0.00  0.00    +0.091 C 
ATOM      6  C   UNL     1      -0.782   3.175   1.713  0.00  0.00    -0.061 C 
ATOM      7  H   UNL     1      -1.828   1.417   1.307  0.00  0.00    -0.081 HD
ENDROOT
BRANCH   4   8
ATOM      8  S   UNL     1      -0.765   4.824  -1.734  0.00  0.00    +0.064 S 
ATOM      9  O   UNL     1      -0.479   5.984  -0.964  0.00  0.00    -0.153 OA
ATOM     10  O   UNL     1       0.165   4.273  -2.656  0.00  0.00    -0.153 OA
BRANCH   8  11
ATOM     11  C   UNL     1      -2.232   5.174  -2.646  0.00  0.00    +0.142 A 
ATOM     12  C   UNL     1      -2.494   4.492  -3.821  0.00  0.00    +0.070 A 
ATOM     13  C   UNL     1      -3.648   4.764  -4.535  0.00  0.00    +0.037 A 
ATOM     14  C   UNL     1      -4.533   5.724  -4.079  0.00  0.00    +0.021 A 
ATOM     15  C   UNL     1      -4.268   6.409  -2.907  0.00  0.00    +0.037 A 
ATOM     16  C   UNL     1      -3.117   6.134  -2.191  0.00  0.00    +0.070 A 
ATOM     17 CL   UNL     1      -2.784   6.994  -0.720  0.00  0.00    -0.081 Cl
ATOM     18 BR   UNL     1      -6.106   6.100  -5.059  0.00  0.00    -0.050 Br
ATOM     19 CL   UNL     1      -1.380   3.292  -4.397  0.00  0.00    -0.081 Cl
ENDBRANCH   8  11
ENDBRANCH   4   8
BRANCH   1  20
ATOM     20  C   UNL     1      -0.123   0.955   2.423  0.00  0.00    +0.019 C 
BRANCH  20  22
ATOM     21  N   UNL     1       2.065   0.918   3.575  0.00  0.00    -0.304 N 
ATOM     22  C   UNL     1       1.300   1.423   2.588  0.00  0.00    +0.199 C 
ATOM     23  O   UNL     1       1.756   2.255   1.832  0.00  0.00    -0.278 OA
BRANCH  21  25
ATOM     24  C   UNL     1       1.770  -1.485   3.922  0.00  0.00    +0.024 C 
ATOM     25  C   UNL     1       1.514  -0.087   4.488  0.00  0.00    +0.104 C 
ENDBRANCH  21  25
BRANCH  21  26
ATOM     26  C   UNL     1       3.449   1.373   3.735  0.00  0.00    +0.104 C 
ATOM     27  C   UNL     1       3.483   2.580   4.675  0.00  0.00    +0.024 C 
ENDBRANCH  21  26
ENDBRANCH  20  22
ENDBRANCH   1  20
TORSDOF 6
