REMARK  Name = ZINC65182071
REMARK  10 active torsions:
REMARK  status: ('A' for Active; 'I' for Inactive)
REMARK    1  A    between atoms: C_1  and  C_2
REMARK    2  A    between atoms: C_2  and  C_3
REMARK    3  A    between atoms: C_3  and  C_5
REMARK    4  A    between atoms: C_3  and  C_11
REMARK    5  A    between atoms: N_13  and  C_14
REMARK    6  A    between atoms: N_13  and  C_15
REMARK    7  A    between atoms: C_15  and  C_16
REMARK    8  A    between atoms: C_16  and  C_17
REMARK    9  A    between atoms: C_20  and  C_23
REMARK   10  A    between atoms: C_28  and  C_33
REMARK                            x       y       z     vdW  Elec       q    Type
REMARK                         _______ _______ _______ _____ _____    ______ ____
ROOT
ATOM      1  C   UNL     1      -0.569  -6.062   0.325  0.00  0.00    +0.139 C 
ATOM      2  N   UNL     1      -0.432  -6.858  -0.672  0.00  0.00    -0.072 NA
ATOM      3  O   UNL     1      -0.464  -8.209  -0.251  0.00  0.00    -0.367 OA
ATOM      4  C   UNL     1      -0.642  -8.183   1.174  0.00  0.00    +0.318 C 
ATOM      5  N   UNL     1      -0.701  -6.751   1.507  0.00  0.00    -0.291 N 
ATOM      6  H   UNL     1      -0.812  -6.367   2.391  0.00  0.00    +0.151 HD
ENDROOT
BRANCH   4   7
ATOM      7  C   UNL     1      -1.946  -8.884   1.563  0.00  0.00    +0.165 C 
ATOM      8  C   UNL     1      -1.867 -10.356   1.226  0.00  0.00    +0.012 C 
ATOM      9  C   UNL     1      -2.856 -10.590   0.334  0.00  0.00    -0.004 A 
ATOM     10  C   UNL     1      -3.297 -11.801  -0.368  0.00  0.00    +0.013 A 
ATOM     11  C   UNL     1      -4.343 -11.721  -1.222  0.00  0.00    -0.050 A 
ATOM     12  C   UNL     1      -5.014 -10.513  -1.453  0.00  0.00    +0.005 A 
ATOM     13  C   UNL     1      -4.668  -9.358  -0.847  0.00  0.00    +0.026 A 
ATOM     14  C   UNL     1      -3.582  -9.326   0.072  0.00  0.00    +0.043 A 
ATOM     15  N   UNL     1      -3.062  -8.348   0.776  0.00  0.00    -0.373 N 
ATOM     16  C   UNL     1      -4.797 -12.964  -1.944  0.00  0.00    +0.044 C 
ATOM     17  H   UNL     1      -3.364  -7.427   0.776  0.00  0.00    +0.160 HD
ENDBRANCH   4   7
BRANCH   1  18
ATOM     18  C   UNL     1      -0.577  -4.559   0.214  0.00  0.00    +0.094 C 
BRANCH  18  19
ATOM     19  C   UNL     1      -0.408  -4.154  -1.252  0.00  0.00    +0.115 C 
BRANCH  19  22
ATOM     20  C   UNL     1       0.739  -2.005  -1.270  0.00  0.00    +0.223 C 
ATOM     21  O   UNL     1       1.793  -2.598  -1.170  0.00  0.00    -0.275 OA
ATOM     22  N   UNL     1      -0.416  -2.693  -1.359  0.00  0.00    -0.304 N 
ATOM     23  C   UNL     1      -1.679  -1.981  -1.564  0.00  0.00    +0.132 C 
BRANCH  20  24
ATOM     24  C   UNL     1       0.722  -0.498  -1.295  0.00  0.00    +0.105 C 
BRANCH  24  25
ATOM     25  C   UNL     1       2.122   0.017  -1.511  0.00  0.00    -0.036 A 
ATOM     26  C   UNL     1       3.120  -0.296  -0.608  0.00  0.00    +0.004 A 
ATOM     27  C   UNL     1       4.404   0.177  -0.806  0.00  0.00    +0.000 A 
ATOM     28  C   UNL     1       4.689   0.962  -1.908  0.00  0.00    +0.000 A 
ATOM     29  C   UNL     1       3.691   1.273  -2.811  0.00  0.00    +0.000 A 
ATOM     30  C   UNL     1       2.408   0.797  -2.615  0.00  0.00    +0.004 A 
ENDBRANCH  24  25
BRANCH  24  32
ATOM     31  C   UNL     1       0.031   1.548  -0.038  0.00  0.00    +0.005 C 
ATOM     32  C   UNL     1       0.185   0.028   0.038  0.00  0.00    +0.014 C 
ENDBRANCH  24  32
ENDBRANCH  20  24
ENDBRANCH  19  22
ENDBRANCH  18  19
ENDBRANCH   1  18
TORSDOF 7
