REMARK  Name = ZINC36056327
REMARK  4 active torsions:
REMARK  status: ('A' for Active; 'I' for Inactive)
REMARK    1  A    between atoms: C_1  and  C_2
REMARK    2  A    between atoms: C_5  and  N_8
REMARK    3  A    between atoms: N_23  and  C_26
REMARK    4  A    between atoms: C_28  and  C_30
REMARK                            x       y       z     vdW  Elec       q    Type
REMARK                         _______ _______ _______ _____ _____    ______ ____
ROOT
ATOM      1  N   UNL     1       0.059  -4.170  -0.021  0.00  0.00    -0.160 N 
ATOM      2  C   UNL     1       0.070  -4.941   1.089  0.00  0.00    +0.253 C 
ATOM      3  O   UNL     1       0.065  -4.573   2.245  0.00  0.00    -0.272 OA
ATOM      4  C   UNL     1       0.089  -6.362   0.573  0.00  0.00    +0.109 C 
ATOM      5  C   UNL     1       1.348  -7.081   1.036  0.00  0.00    +0.061 C 
ATOM      6  C   UNL     1       1.291  -8.526   0.610  0.00  0.00    -0.024 A 
ATOM      7  C   UNL     1       2.472  -9.229   0.449  0.00  0.00    +0.020 A 
ATOM      8  C   UNL     1       2.444 -10.554   0.057  0.00  0.00    +0.018 A 
ATOM      9  C   UNL     1       1.233 -11.182  -0.176  0.00  0.00    +0.017 A 
ATOM     10  C   UNL     1       0.052 -10.486  -0.017  0.00  0.00    +0.024 A 
ATOM     11  C   UNL     1       0.079  -9.151   0.379  0.00  0.00    +0.033 A 
ATOM     12  N   UNL     1      -1.142  -8.475   0.537  0.00  0.00    -0.329 N 
ATOM     13  C   UNL     1      -1.162  -7.107   1.033  0.00  0.00    +0.078 C 
ATOM     14  C   UNL     1      -2.395  -6.328   0.603  0.00  0.00    -0.055 C 
ATOM     15  N   UNL     1      -3.600  -7.156   0.625  0.00  0.00    +0.380 N 
ATOM     16  C   UNL     1      -3.434  -8.264  -0.328  0.00  0.00    -0.060 C 
ATOM     17  C   UNL     1      -2.367  -9.212   0.214  0.00  0.00    +0.087 C 
ATOM     18  C   UNL     1      -4.762  -6.344   0.237  0.00  0.00    -0.096 C 
ATOM     19 BR   UNL     1       4.061 -11.509  -0.163  0.00  0.00    -0.050 Br
ATOM     20  C   UNL     1       0.086  -6.205  -0.929  0.00  0.00    +0.051 C 
ATOM     21  N   UNL     1       0.064  -4.952  -1.173  0.00  0.00    -0.181 NA
ATOM     22  C   UNL     1       0.101  -7.317  -1.946  0.00  0.00    +0.063 C 
ATOM     23  H   UNL     1      -3.740  -7.526   1.553  0.00  0.00    -0.082 HD
ENDROOT
BRANCH   1  28
ATOM     24  C   UNL     1      -0.018   1.503   0.010  0.00  0.00    +0.044 C 
ATOM     25  C   UNL     1       0.002  -0.004   0.002  0.00  0.00    -0.050 A 
ATOM     26  C   UNL     1       0.006  -0.687  -1.200  0.00  0.00    +0.005 A 
ATOM     27  C   UNL     1       0.025  -2.068  -1.211  0.00  0.00    +0.026 A 
ATOM     28  C   UNL     1       0.041  -2.771  -0.013  0.00  0.00    +0.060 A 
ATOM     29  C   UNL     1       0.037  -2.081   1.192  0.00  0.00    +0.026 A 
ATOM     30  C   UNL     1       0.023  -0.700   1.197  0.00  0.00    +0.005 A 
ENDBRANCH   1  28
TORSDOF 1
