REMARK  Name = ZINC14707084
REMARK  4 active torsions:
REMARK  status: ('A' for Active; 'I' for Inactive)
REMARK    1  A    between atoms: C_1  and  C_2
REMARK    2  A    between atoms: N_11  and  C_15
REMARK    3  A    between atoms: C_15  and  C_16
REMARK    4  A    between atoms: C_21  and  C_24
REMARK                            x       y       z     vdW  Elec       q    Type
REMARK                         _______ _______ _______ _____ _____    ______ ____
ROOT
ATOM      1  C   UNL     1      -0.827  -2.225  -0.002  0.00  0.00    +0.237 C 
ATOM      2  O   UNL     1       0.313  -2.639  -0.015  0.00  0.00    -0.274 OA
ATOM      3  N   UNL     1      -1.062  -0.898   0.007  0.00  0.00    -0.263 N 
ATOM      4  C   UNL     1       0.002  -0.004   0.002  0.00  0.00    +0.165 A 
ATOM      5  N   UNL     1      -0.016   1.316   0.009  0.00  0.00    -0.225 NA
ATOM      6  C   UNL     1       1.107   2.019   0.002  0.00  0.00    +0.083 A 
ATOM      7  C   UNL     1       2.307   1.365  -0.013  0.00  0.00    +0.077 A 
ATOM      8  S   UNL     1       1.758  -0.336  -0.017  0.00  0.00    -0.060 S 
ATOM      9  H   UNL     1      -1.974  -0.567   0.018  0.00  0.00    +0.157 HD
ENDROOT
BRANCH   6  10
ATOM     10  C   UNL     1       1.061   3.501   0.010  0.00  0.00    +0.039 A 
ATOM     11  C   UNL     1      -0.165   4.163   0.026  0.00  0.00    +0.051 A 
ATOM     12  C   UNL     1      -0.201   5.545   0.033  0.00  0.00    +0.124 A 
ATOM     13  C   UNL     1       0.979   6.272   0.026  0.00  0.00    +0.041 A 
ATOM     14  C   UNL     1       2.198   5.620   0.011  0.00  0.00    +0.042 A 
ATOM     15  C   UNL     1       2.247   4.238   0.008  0.00  0.00    +0.133 A 
ATOM     16  F   UNL     1       3.439   3.603  -0.001  0.00  0.00    -0.205 F 
ATOM     17  F   UNL     1      -1.389   6.189   0.048  0.00  0.00    -0.205 F 
ENDBRANCH   6  10
BRANCH   1  18
ATOM     18  C   UNL     1      -1.981  -3.194   0.004  0.00  0.00    +0.214 C 
BRANCH  18  28
ATOM     19  C   UNL     1      -3.042  -7.456   0.632  0.00  0.00    +0.010 C 
ATOM     20  C   UNL     1      -1.608  -7.739   1.085  0.00  0.00    +0.018 C 
ATOM     21  C   UNL     1      -1.562  -7.816   2.614  0.00  0.00    +0.006 C 
ATOM     22  C   UNL     1      -0.125  -8.080   3.067  0.00  0.00    +0.000 C 
ATOM     23  C   UNL     1       0.778  -6.939   2.595  0.00  0.00    +0.003 C 
ATOM     24  C   UNL     1       0.741  -6.859   1.067  0.00  0.00    +0.035 C 
ATOM     25  C   UNL     1      -0.692  -6.620   0.604  0.00  0.00    +0.115 C 
ATOM     26  C   UNL     1      -1.190  -5.282   1.101  0.00  0.00    +0.247 C 
ATOM     27  O   UNL     1      -1.314  -4.927   2.253  0.00  0.00    -0.273 OA
ATOM     28  N   UNL     1      -1.466  -4.566  -0.009  0.00  0.00    -0.215 N 
ATOM     29  C   UNL     1      -1.218  -5.266  -1.122  0.00  0.00    +0.310 C 
ATOM     30  O   UNL     1      -1.394  -4.836  -2.245  0.00  0.00    -0.252 OA
ATOM     31  N   UNL     1      -0.748  -6.501  -0.858  0.00  0.00    -0.285 N 
ATOM     32  H   UNL     1      -0.499  -7.178  -1.506  0.00  0.00    +0.151 HD
ENDBRANCH  18  28
ENDBRANCH   1  18
TORSDOF 3
