REMARK  Name = ZINC16675632
REMARK  8 active torsions:
REMARK  status: ('A' for Active; 'I' for Inactive)
REMARK    1  A    between atoms: C_1  and  C_2
REMARK    2  A    between atoms: C_5  and  C_8
REMARK    3  A    between atoms: N_10  and  C_11
REMARK    4  A    between atoms: C_11  and  C_19
REMARK    5  A    between atoms: C_12  and  C_13
REMARK    6  A    between atoms: N_21  and  C_22
REMARK    7  A    between atoms: C_25  and  S_28
REMARK    8  A    between atoms: S_28  and  N_31
REMARK                            x       y       z     vdW  Elec       q    Type
REMARK                         _______ _______ _______ _____ _____    ______ ____
ROOT
ATOM      1  C   UNL     1      -2.614   4.252   5.349  0.00  0.00    +0.262 C 
ATOM      2  O   UNL     1      -3.091   4.653   4.305  0.00  0.00    -0.268 OA
ATOM      3  N   UNL     1      -1.533   3.447   5.331  0.00  0.00    -0.280 N 
ATOM      4  H   UNL     1      -1.141   3.030   6.271  0.00  0.00    +0.155 HD
ENDROOT
BRANCH   3   5
ATOM      5  C   UNL     1      -0.908   3.143   4.117  0.00  0.00    +0.034 A 
ATOM      6  C   UNL     1       0.466   2.948   4.071  0.00  0.00    +0.025 A 
ATOM      7  C   UNL     1       1.079   2.647   2.871  0.00  0.00    +0.031 A 
ATOM      8  C   UNL     1       0.327   2.539   1.716  0.00  0.00    +0.113 A 
ATOM      9  C   UNL     1      -1.041   2.738   1.757  0.00  0.00    +0.031 A 
ATOM     10  C   UNL     1      -1.661   3.034   2.955  0.00  0.00    +0.025 A 
BRANCH   8  11
ATOM     11  S   UNL     1       1.113   2.155   0.187  0.00  0.00    +0.102 S 
ATOM     12  O   UNL     1       2.470   2.559   0.315  0.00  0.00    -0.146 OA
ATOM     13  O   UNL     1       0.265   2.648  -0.841  0.00  0.00    -0.146 OA
BRANCH  11  14
ATOM     14  N   UNL     1       1.122   0.505   0.042  0.00  0.00    -0.093 NA
ATOM     15  C   UNL     1      -0.063  -0.181  -0.075  0.00  0.00    +0.212 C 
ATOM     16  N   UNL     1      -1.194   0.467  -0.073  0.00  0.00    -0.369 N 
ATOM     17  N   UNL     1      -0.056  -1.551  -0.195  0.00  0.00    -0.369 N 
ATOM     18  H   UNL     1      -2.143  -0.083  -0.167  0.00  0.00    +0.159 HD
ATOM     19  H   UNL     1      -1.004  -2.100  -0.289  0.00  0.00    +0.159 HD
ATOM     20  H   UNL     1       0.899  -2.098  -0.197  0.00  0.00    +0.159 HD
ATOM     21  H   UNL     1      -1.200   1.562   0.024  0.00  0.00    +0.159 HD
ENDBRANCH  11  14
ENDBRANCH   8  11
ENDBRANCH   3   5
BRANCH   1  22
ATOM     22  C   UNL     1      -3.216   4.644   6.632  0.00  0.00    +0.097 C 
ATOM     23  C   UNL     1      -4.066   3.802   7.265  0.00  0.00    +0.036 C 
BRANCH  23  24
ATOM     24  C   UNL     1      -4.377   2.490   6.677  0.00  0.00    -0.023 A 
ATOM     25  C   UNL     1      -4.490   2.351   5.290  0.00  0.00    +0.008 A 
ATOM     26  C   UNL     1      -4.776   1.116   4.746  0.00  0.00    +0.001 A 
ATOM     27  C   UNL     1      -4.962   0.019   5.569  0.00  0.00    +0.000 A 
ATOM     28  C   UNL     1      -4.858   0.151   6.943  0.00  0.00    +0.001 A 
ATOM     29  C   UNL     1      -4.567   1.377   7.503  0.00  0.00    +0.008 A 
ENDBRANCH  23  24
BRANCH  22  32
ATOM     30  C   UNL     1      -1.970   6.669   6.634  0.00  0.00    +0.248 C 
ATOM     31  O   UNL     1      -1.464   6.347   5.576  0.00  0.00    -0.270 OA
ATOM     32  N   UNL     1      -2.912   5.885   7.196  0.00  0.00    -0.277 N 
ATOM     33  H   UNL     1      -3.441   6.223   8.099  0.00  0.00    +0.155 HD
BRANCH  30  38
ATOM     34  C   UNL     1      -0.346  11.536   9.238  0.00  0.00    +0.044 C 
ATOM     35  C   UNL     1      -0.771  10.261   8.556  0.00  0.00    -0.050 A 
ATOM     36  C   UNL     1      -0.193   9.898   7.353  0.00  0.00    +0.004 A 
ATOM     37  C   UNL     1      -0.578   8.732   6.723  0.00  0.00    +0.013 A 
ATOM     38  C   UNL     1      -1.553   7.919   7.303  0.00  0.00    +0.037 A 
ATOM     39  C   UNL     1      -2.136   8.294   8.514  0.00  0.00    +0.013 A 
ATOM     40  C   UNL     1      -1.738   9.459   9.136  0.00  0.00    +0.004 A 
ENDBRANCH  30  38
ENDBRANCH  22  32
ENDBRANCH   1  22
TORSDOF 7
