REMARK  Name = ZINC40030075
REMARK  11 active torsions:
REMARK  status: ('A' for Active; 'I' for Inactive)
REMARK    1  A    between atoms: C_2  and  C_3
REMARK    2  A    between atoms: C_3  and  N_4
REMARK    3  A    between atoms: C_5  and  C_28
REMARK    4  A    between atoms: C_7  and  C_12
REMARK    5  A    between atoms: C_12  and  C_14
REMARK    6  A    between atoms: C_18  and  O_20
REMARK    7  A    between atoms: O_20  and  C_21
REMARK    8  A    between atoms: C_21  and  C_22
REMARK    9  A    between atoms: C_31  and  O_34
REMARK   10  A    between atoms: O_34  and  C_35
REMARK   11  A    between atoms: C_35  and  C_36
REMARK                            x       y       z     vdW  Elec       q    Type
REMARK                         _______ _______ _______ _____ _____    ______ ____
ROOT
ATOM      1  N   UNL     1       1.294  -0.993   1.381  0.00  0.00    -0.280 N 
ATOM      2  C   UNL     1       1.501  -1.080   2.831  0.00  0.00    +0.145 C 
ATOM      3  C   UNL     1       1.452  -2.550   3.176  0.00  0.00    +0.076 C 
ATOM      4  C   UNL     1       1.235  -3.217   2.018  0.00  0.00    +0.249 C 
ATOM      5  C   UNL     1       1.134  -2.243   0.910  0.00  0.00    +0.288 C 
ATOM      6  O   UNL     1       0.937  -2.530  -0.254  0.00  0.00    -0.266 OA
ATOM      7  O   UNL     1       1.125  -4.559   1.895  0.00  0.00    -0.282 OA
ENDROOT
BRANCH   2   8
ATOM      8  C   UNL     1       0.408  -0.339   3.556  0.00  0.00    -0.022 A 
ATOM      9  C   UNL     1      -0.913  -0.531   3.195  0.00  0.00    +0.009 A 
ATOM     10  C   UNL     1      -1.917   0.148   3.858  0.00  0.00    +0.046 A 
ATOM     11  C   UNL     1      -1.599   1.023   4.887  0.00  0.00    +0.121 A 
ATOM     12  C   UNL     1      -0.273   1.213   5.247  0.00  0.00    +0.046 A 
ATOM     13  C   UNL     1       0.727   0.528   4.585  0.00  0.00    +0.009 A 
BRANCH  11  14
ATOM     14  O   UNL     1      -2.585   1.692   5.540  0.00  0.00    -0.483 OA
BRANCH  14  15
ATOM     15  C   UNL     1      -2.184   2.576   6.589  0.00  0.00    +0.324 C 
BRANCH  15  16
ATOM     16  C   UNL     1      -3.403   3.224   7.193  0.00  0.00    +0.248 C 
ATOM     17  O   UNL     1      -4.506   2.956   6.768  0.00  0.00    -0.272 OA
ATOM     18  N   UNL     1      -3.267   4.102   8.207  0.00  0.00    -0.327 N 
ATOM     19  H   UNL     1      -2.384   4.317   8.547  0.00  0.00    +0.145 HD
ATOM     20  H   UNL     1      -4.051   4.520   8.595  0.00  0.00    +0.145 HD
ENDBRANCH  15  16
ENDBRANCH  14  15
ENDBRANCH  11  14
ENDBRANCH   2   8
BRANCH   3  21
ATOM     21  C   UNL     1       1.608  -3.141   4.509  0.00  0.00    +0.195 C 
ATOM     22  O   UNL     1       0.682  -3.743   5.019  0.00  0.00    -0.287 OA
BRANCH  21  23
ATOM     23  C   UNL     1       2.890  -3.006   5.232  0.00  0.00    +0.026 A 
ATOM     24  C   UNL     1       3.988  -2.409   4.607  0.00  0.00    +0.012 A 
ATOM     25  C   UNL     1       5.183  -2.284   5.284  0.00  0.00    +0.004 A 
ATOM     26  C   UNL     1       5.299  -2.749   6.582  0.00  0.00    +0.046 A 
ATOM     27  C   UNL     1       4.213  -3.343   7.212  0.00  0.00    +0.122 A 
ATOM     28  C   UNL     1       3.007  -3.468   6.543  0.00  0.00    +0.057 A 
BRANCH  27  29
ATOM     29  O   UNL     1       4.333  -3.798   8.487  0.00  0.00    -0.487 OA
BRANCH  29  30
ATOM     30  C   UNL     1       5.604  -3.631   9.118  0.00  0.00    +0.264 C 
BRANCH  30  31
ATOM     31  C   UNL     1       5.548  -4.191  10.516  0.00  0.00    -0.010 A 
ATOM     32  C   UNL     1       5.171  -3.379  11.570  0.00  0.00    +0.007 A 
ATOM     33  C   UNL     1       5.119  -3.892  12.853  0.00  0.00    +0.000 A 
ATOM     34  C   UNL     1       5.444  -5.216  13.082  0.00  0.00    +0.000 A 
ATOM     35  C   UNL     1       5.820  -6.028  12.027  0.00  0.00    +0.000 A 
ATOM     36  C   UNL     1       5.868  -5.516  10.744  0.00  0.00    +0.007 A 
ENDBRANCH  30  31
ENDBRANCH  29  30
ENDBRANCH  27  29
ENDBRANCH  21  23
ENDBRANCH   3  21
BRANCH   1  37
ATOM     37  C   UNL     1       1.261   0.238   0.587  0.00  0.00    +0.136 C 
BRANCH  37  39
ATOM     38  C   UNL     1      -0.414   1.985   0.905  0.00  0.00    +0.005 C 
ATOM     39  C   UNL     1      -0.152   0.759   0.527  0.00  0.00    -0.016 C 
ENDBRANCH  37  39
ENDBRANCH   1  37
TORSDOF 11
