REMARK  Name = ZINC05574469
REMARK  7 active torsions:
REMARK  status: ('A' for Active; 'I' for Inactive)
REMARK    1  A    between atoms: C_1  and  C_2
REMARK    2  A    between atoms: C_2  and  O_3
REMARK    3  A    between atoms: O_3  and  C_4
REMARK    4  A    between atoms: C_9  and  C_10
REMARK    5  A    between atoms: C_13  and  C_24
REMARK    6  A    between atoms: C_19  and  N_23
REMARK    7  A    between atoms: C_20  and  C_21
REMARK                            x       y       z     vdW  Elec       q    Type
REMARK                         _______ _______ _______ _____ _____    ______ ____
ROOT
ATOM      1  C   UNL     1       1.990  -1.397  -3.491  0.00  0.00    +0.105 C 
ATOM      2  C   UNL     1       1.345  -1.662  -4.827  0.00  0.00    +0.055 A 
ATOM      3  C   UNL     1       0.050  -1.358  -5.261  0.00  0.00    +0.107 A 
ATOM      4  N   UNL     1      -0.070  -1.780  -6.507  0.00  0.00    -0.170 NA
ATOM      5  N   UNL     1       1.147  -2.362  -6.895  0.00  0.00    -0.246 N 
ATOM      6  H   UNL     1       1.340  -2.755  -7.760  0.00  0.00    +0.192 HD
ATOM      7  C   UNL     1       2.000  -2.279  -5.853  0.00  0.00    +0.223 A 
ATOM      8  O   UNL     1       3.286  -2.701  -5.752  0.00  0.00    -0.423 OA
ATOM      9  C   UNL     1       4.009  -2.256  -4.704  0.00  0.00    +0.200 C 
ATOM     10  C   UNL     1       3.473  -1.641  -3.626  0.00  0.00    +0.098 C 
ENDROOT
BRANCH   1  16
ATOM     11  C   UNL     1       0.777  -1.810  -1.336  0.00  0.00    +0.125 A 
ATOM     12  C   UNL     1       0.243  -2.669  -0.386  0.00  0.00    +0.046 A 
ATOM     13  C   UNL     1       0.351  -4.036  -0.554  0.00  0.00    +0.004 A 
ATOM     14  C   UNL     1       0.991  -4.548  -1.667  0.00  0.00    +0.001 A 
ATOM     15  C   UNL     1       1.525  -3.695  -2.615  0.00  0.00    +0.008 A 
ATOM     16  C   UNL     1       1.414  -2.327  -2.455  0.00  0.00    +0.007 A 
BRANCH  11  17
ATOM     17  O   UNL     1       0.671  -0.465  -1.174  0.00  0.00    -0.492 OA
BRANCH  17  19
ATOM     18  C   UNL     1      -0.019   1.526   0.010  0.00  0.00    +0.048 C 
ATOM     19  C   UNL     1       0.002  -0.004   0.002  0.00  0.00    +0.225 C 
ENDBRANCH  17  19
ENDBRANCH  11  17
ENDBRANCH   1  16
BRANCH   3  20
ATOM     20  C   UNL     1      -0.999  -0.684  -4.465  0.00  0.00    +0.040 A 
ATOM     21  C   UNL     1      -1.967   0.191  -4.879  0.00  0.00    +0.018 A 
ATOM     22  C   UNL     1      -2.846   0.698  -3.946  0.00  0.00    +0.008 A 
ATOM     23  C   UNL     1      -2.726   0.315  -2.649  0.00  0.00    +0.046 A 
ATOM     24  S   UNL     1      -1.337  -0.805  -2.716  0.00  0.00    -0.095 S 
ENDBRANCH   3  20
BRANCH   9  25
ATOM     25  N   UNL     1       5.369  -2.439  -4.734  0.00  0.00    -0.328 N 
ATOM     26  H   UNL     1       5.783  -2.877  -5.494  0.00  0.00    +0.145 HD
ATOM     27  H   UNL     1       5.916  -2.130  -3.995  0.00  0.00    +0.145 HD
ENDBRANCH   9  25
BRANCH  10  28
ATOM     28  C   UNL     1       4.342  -1.206  -2.575  0.00  0.00    +0.101 C 
ATOM     29  N   UNL     1       5.032  -0.861  -1.740  0.00  0.00    -0.191 NA
ENDBRANCH  10  28
TORSDOF 6
