REMARK  Name = ZINC50840657
REMARK  5 active torsions:
REMARK  status: ('A' for Active; 'I' for Inactive)
REMARK    1  A    between atoms: C_1  and  C_2
REMARK    2  A    between atoms: C_3  and  C_19
REMARK    3  A    between atoms: N_5  and  C_8
REMARK    4  A    between atoms: C_6  and  C_7
REMARK    5  A    between atoms: C_8  and  C_9
REMARK                            x       y       z     vdW  Elec       q    Type
REMARK                         _______ _______ _______ _____ _____    ______ ____
ROOT
ATOM      1  C   UNL     1       1.482  -3.669   1.794  0.00  0.00    +0.153 A 
ATOM      2  N   UNL     1       2.101  -4.497   0.975  0.00  0.00    -0.223 NA
ATOM      3  C   UNL     1       3.347  -4.850   1.206  0.00  0.00    +0.113 A 
ATOM      4  C   UNL     1       4.056  -4.357   2.329  0.00  0.00    +0.044 A 
ATOM      5  C   UNL     1       5.422  -4.839   2.445  0.00  0.00    +0.020 A 
ATOM      6  C   UNL     1       5.900  -5.684   1.520  0.00  0.00    +0.048 A 
ATOM      7  S   UNL     1       4.528  -5.900   0.402  0.00  0.00    -0.077 S 
ATOM      8  C   UNL     1       3.333  -3.475   3.164  0.00  0.00    +0.141 A 
ATOM      9  N   UNL     1       2.088  -3.170   2.856  0.00  0.00    -0.218 NA
ATOM     10 CL   UNL     1       4.078  -2.795   4.577  0.00  0.00    -0.061 Cl
ENDROOT
BRANCH   1  11
ATOM     11  C   UNL     1       0.054  -3.280   1.509  0.00  0.00    +0.219 C 
BRANCH  11  16
ATOM     12  C   UNL     1      -0.018   1.503   0.010  0.00  0.00    +0.047 C 
ATOM     13  C   UNL     1       0.002  -0.004   0.002  0.00  0.00    -0.007 A 
ATOM     14  C   UNL     1       0.009  -0.821  -1.133  0.00  0.00    +0.063 A 
ATOM     15  N   UNL     1       0.028  -2.068  -0.740  0.00  0.00    -0.176 NA
ATOM     16  N   UNL     1       0.034  -2.085   0.661  0.00  0.00    -0.261 N 
ATOM     17  C   UNL     1       0.023  -0.806   1.092  0.00  0.00    +0.040 A 
ATOM     18  C   UNL     1       0.030  -0.352   2.529  0.00  0.00    +0.065 C 
ATOM     19  C   UNL     1      -0.004  -0.346  -2.564  0.00  0.00    +0.068 C 
ENDBRANCH  11  16
ENDBRANCH   1  11
TORSDOF 2
