REMARK  Name = ZINC25392697
REMARK  7 active torsions:
REMARK  status: ('A' for Active; 'I' for Inactive)
REMARK    1  A    between atoms: C_3  and  C_28
REMARK    2  A    between atoms: C_5  and  S_7
REMARK    3  A    between atoms: S_7  and  N_10
REMARK    4  A    between atoms: N_10  and  C_11
REMARK    5  A    between atoms: C_15  and  S_17
REMARK    6  A    between atoms: S_17  and  N_20
REMARK    7  A    between atoms: N_20  and  C_21
REMARK                            x       y       z     vdW  Elec       q    Type
REMARK                         _______ _______ _______ _____ _____    ______ ____
ROOT
ATOM      1  C   UNL     1      -0.007  -2.571   2.321  0.00  0.00    +0.050 A 
ATOM      2  C   UNL     1      -0.700  -1.385   2.116  0.00  0.00    +0.024 A 
ATOM      3  C   UNL     1      -1.841  -1.119   2.846  0.00  0.00    +0.004 A 
ATOM      4  C   UNL     1      -2.295  -2.033   3.780  0.00  0.00    +0.029 A 
ATOM      5  C   UNL     1      -1.607  -3.214   3.987  0.00  0.00    +0.112 A 
ATOM      6  C   UNL     1      -0.468  -3.489   3.256  0.00  0.00    +0.053 A 
ENDROOT
BRANCH   5   7
ATOM      7  S   UNL     1      -2.189  -4.374   5.179  0.00  0.00    +0.092 S 
ATOM      8  O   UNL     1      -1.066  -5.152   5.570  0.00  0.00    -0.148 OA
ATOM      9  O   UNL     1      -2.969  -3.640   6.112  0.00  0.00    -0.148 OA
BRANCH   7  10
ATOM     10  N   UNL     1      -3.227  -5.401   4.398  0.00  0.00    -0.098 NA
BRANCH  10  11
ATOM     11  C   UNL     1      -3.848  -6.436   5.102  0.00  0.00    +0.074 A 
ATOM     12  C   UNL     1      -3.600  -6.601   6.459  0.00  0.00    +0.028 A 
ATOM     13  C   UNL     1      -4.216  -7.624   7.152  0.00  0.00    +0.017 A 
ATOM     14  C   UNL     1      -5.078  -8.485   6.497  0.00  0.00    +0.018 A 
ATOM     15  C   UNL     1      -5.327  -8.323   5.145  0.00  0.00    +0.017 A 
ATOM     16  C   UNL     1      -4.719  -7.298   4.448  0.00  0.00    +0.028 A 
ATOM     17 BR   UNL     1      -5.918  -9.886   7.449  0.00  0.00    -0.050 Br
ENDBRANCH  10  11
ENDBRANCH   7  10
ENDBRANCH   5   7
BRANCH   1  18
ATOM     18  N   UNL     1       1.148  -2.844   1.584  0.00  0.00    -0.216 N 
ATOM     19  H   UNL     1       2.020  -2.767   2.003  0.00  0.00    +0.174 HD
BRANCH  18  20
ATOM     20  S   UNL     1       1.030  -3.296  -0.005  0.00  0.00    +0.072 S 
ATOM     21  O   UNL     1       2.351  -3.576  -0.447  0.00  0.00    -0.150 OA
ATOM     22  O   UNL     1       0.201  -2.333  -0.641  0.00  0.00    -0.150 OA
BRANCH  20  27
ATOM     23  C   UNL     1       0.145  -7.218   0.111  0.00  0.00    +0.003 A 
ATOM     24  C   UNL     1      -1.217  -7.237  -0.110  0.00  0.00    +0.015 A 
ATOM     25  C   UNL     1      -1.907  -6.038  -0.301  0.00  0.00    +0.065 A 
ATOM     26  C   UNL     1      -1.211  -4.826  -0.268  0.00  0.00    +0.044 A 
ATOM     27  C   UNL     1       0.150  -4.823  -0.047  0.00  0.00    +0.109 A 
ATOM     28  C   UNL     1       0.827  -6.015   0.142  0.00  0.00    +0.029 A 
BRANCH  25  29
ATOM     29  C   UNL     1      -3.363  -6.050  -0.538  0.00  0.00    +0.387 C 
ATOM     30  O   UNL     1      -3.969  -7.112  -0.567  0.00  0.00    -0.241 OA
ATOM     31  O   UNL     1      -3.964  -4.998  -0.706  0.00  0.00    -0.241 OA
ENDBRANCH  25  29
ENDBRANCH  20  27
ENDBRANCH  18  20
ENDBRANCH   1  18
TORSDOF 7
