REMARK  Name = ZINC09729947
REMARK  9 active torsions:
REMARK  status: ('A' for Active; 'I' for Inactive)
REMARK    1  A    between atoms: C_1  and  C_2
REMARK    2  A    between atoms: C_3  and  N_9
REMARK    3  A    between atoms: C_10  and  C_12
REMARK    4  A    between atoms: C_12  and  N_13
REMARK    5  A    between atoms: C_14  and  C_16
REMARK    6  A    between atoms: C_16  and  N_50
REMARK    7  A    between atoms: C_17  and  C_19
REMARK    8  A    between atoms: C_17  and  C_25
REMARK    9  A    between atoms: C_17  and  N_50
REMARK                            x       y       z     vdW  Elec       q    Type
REMARK                         _______ _______ _______ _____ _____    ______ ____
ROOT
ATOM      1  N   UNL     1      -1.406   6.124  -0.264  0.00  0.00    -0.308 N 
ATOM      2  C   UNL     1      -1.662   7.443  -0.365  0.00  0.00    +0.196 C 
ATOM      3  O   UNL     1      -0.747   8.238  -0.389  0.00  0.00    -0.278 OA
ATOM      4  H   UNL     1      -2.138   5.487  -0.245  0.00  0.00    +0.149 HD
ENDROOT
BRANCH   1   5
ATOM      5  C   UNL     1      -0.022   5.650  -0.183  0.00  0.00    +0.200 C 
BRANCH   5   7
ATOM      6  N   UNL     1       1.161   3.486   0.010  0.00  0.00    -0.284 N 
ATOM      7  C   UNL     1      -0.011   4.147  -0.077  0.00  0.00    +0.234 C 
ATOM      8  O   UNL     1      -1.056   3.531  -0.071  0.00  0.00    -0.274 OA
ATOM      9  H   UNL     1       1.992   3.980   0.085  0.00  0.00    +0.155 HD
BRANCH   6  12
ATOM     10  C   UNL     1       3.359   2.153   1.228  0.00  0.00    +0.047 C 
ATOM     11  C   UNL     1       2.232   1.396   0.575  0.00  0.00    -0.011 A 
ATOM     12  C   UNL     1       1.178   2.087  -0.009  0.00  0.00    +0.038 A 
ATOM     13  C   UNL     1       0.141   1.387  -0.611  0.00  0.00    +0.023 A 
ATOM     14  C   UNL     1       0.160   0.005  -0.628  0.00  0.00    +0.003 A 
ATOM     15  C   UNL     1       1.210  -0.680  -0.047  0.00  0.00    +0.020 A 
ATOM     16  C   UNL     1       2.246   0.015   0.554  0.00  0.00    +0.046 A 
ATOM     17 CL   UNL     1       3.563  -0.850   1.283  0.00  0.00    -0.083 Cl
ENDBRANCH   6  12
ENDBRANCH   5   7
ENDBRANCH   1   5
BRANCH   2  18
ATOM     18  C   UNL     1      -3.086   7.930  -0.449  0.00  0.00    +0.016 C 
BRANCH  18  19
ATOM     19  N   UNL     1      -3.088   9.402  -0.551  0.00  0.00    +0.392 N 
ATOM     20  H   UNL     1      -2.573   9.683  -1.394  0.00  0.00    -0.084 HD
ATOM     21  H   UNL     1      -2.631   9.800   0.278  0.00  0.00    -0.084 HD
BRANCH  19  22
ATOM     22  C   UNL     1      -4.471   9.907  -0.635  0.00  0.00    -0.003 C 
BRANCH  22  23
ATOM     23  C   UNL     1      -4.468  11.244  -1.331  0.00  0.00    -0.057 A 
ATOM     24  C   UNL     1      -3.469  12.161  -1.062  0.00  0.00    +0.002 A 
ATOM     25  C   UNL     1      -3.464  13.385  -1.703  0.00  0.00    +0.000 A 
ATOM     26  C   UNL     1      -4.462  13.697  -2.606  0.00  0.00    +0.000 A 
ATOM     27  C   UNL     1      -5.464  12.782  -2.872  0.00  0.00    +0.000 A 
ATOM     28  C   UNL     1      -5.467  11.556  -2.233  0.00  0.00    +0.002 A 
ENDBRANCH  22  23
BRANCH  22  29
ATOM     29  C   UNL     1      -5.034  10.065   0.754  0.00  0.00    -0.020 A 
ATOM     30  C   UNL     1      -6.281   9.788   1.206  0.00  0.00    +0.010 A 
ATOM     31  C   UNL     1      -6.577  10.013   2.537  0.00  0.00    +0.008 A 
ATOM     32  C   UNL     1      -5.611  10.505   3.351  0.00  0.00    +0.045 A 
ATOM     33  S   UNL     1      -4.228  10.658   2.233  0.00  0.00    -0.103 S 
ENDBRANCH  22  29
ENDBRANCH  19  22
ENDBRANCH  18  19
ENDBRANCH   2  18
TORSDOF 8
