REMARK  Name = ZINC44425639
REMARK  19 active torsions:
REMARK  status: ('A' for Active; 'I' for Inactive)
REMARK    1  A    between atoms: C_1  and  C_2
REMARK    2  A    between atoms: C_2  and  C_3
REMARK    3  A    between atoms: C_3  and  C_4
REMARK    4  A    between atoms: C_4  and  C_5
REMARK    5  A    between atoms: C_5  and  C_7
REMARK    6  A    between atoms: C_5  and  C_9
REMARK    7  A    between atoms: C_7  and  C_8
REMARK    8  A    between atoms: C_9  and  O_10
REMARK    9  A    between atoms: O_10  and  C_11
REMARK   10  A    between atoms: C_11  and  C_12
REMARK   11  A    between atoms: C_12  and  C_14
REMARK   12  A    between atoms: C_12  and  O_23
REMARK   13  A    between atoms: C_14  and  N_15
REMARK   14  A    between atoms: N_15  and  C_16
REMARK   15  A    between atoms: C_16  and  C_18
REMARK   16  A    between atoms: C_16  and  C_19
REMARK   17  A    between atoms: C_19  and  O_20
REMARK   18  A    between atoms: O_20  and  C_21
REMARK   19  A    between atoms: C_21  and  C_22
REMARK                            x       y       z     vdW  Elec       q    Type
REMARK                         _______ _______ _______ _____ _____    ______ ____
ROOT
ATOM      1  C   UNL     1      -5.840  -6.292  -0.246  0.00  0.00    +0.123 C 
ENDROOT
BRANCH   1   2
ATOM      2  O   UNL     1      -6.365  -5.854  -1.500  0.00  0.00    -0.391 OA
ATOM      3  H   UNL     1      -5.919  -6.234  -2.268  0.00  0.00    +0.210 HD
ENDBRANCH   1   2
BRANCH   1   4
ATOM      4  C   UNL     1      -4.363  -5.904  -0.148  0.00  0.00    +0.189 C 
BRANCH   4   5
ATOM      5  O   UNL     1      -4.244  -4.481  -0.130  0.00  0.00    -0.377 OA
BRANCH   5   6
ATOM      6  C   UNL     1      -2.898  -4.010  -0.040  0.00  0.00    +0.163 C 
BRANCH   6   7
ATOM      7  C   UNL     1      -2.892  -2.480  -0.029  0.00  0.00    +0.014 C 
BRANCH   7   8
ATOM      8  C   UNL     1      -3.582  -1.977   1.241  0.00  0.00    +0.002 C 
ATOM      9  C   UNL     1      -3.705  -0.453   1.184  0.00  0.00    +0.004 C 
ENDBRANCH   7   8
BRANCH   7  10
ATOM     10  C   UNL     1      -1.448  -1.976  -0.058  0.00  0.00    +0.006 C 
BRANCH  10  11
ATOM     11  C   UNL     1      -0.801  -2.360  -1.390  0.00  0.00    +0.000 C 
BRANCH  11  13
ATOM     12  C   UNL     1       1.244  -2.127  -2.807  0.00  0.00    +0.004 C 
ATOM     13  C   UNL     1       0.597  -1.744  -1.475  0.00  0.00    -0.003 C 
ENDBRANCH  11  13
ENDBRANCH  10  11
ENDBRANCH   7  10
ENDBRANCH   6   7
ENDBRANCH   5   6
ENDBRANCH   4   5
ENDBRANCH   1   4
BRANCH   1  14
ATOM     14  C   UNL     1      -5.976  -7.813  -0.140  0.00  0.00    -0.048 C 
BRANCH  14  15
ATOM     15  N   UNL     1      -7.394  -8.185  -0.233  0.00  0.00    +0.384 N 
ATOM     16  H   UNL     1      -7.907  -7.748   0.518  0.00  0.00    -0.085 HD
ATOM     17  H   UNL     1      -7.765  -7.875  -1.119  0.00  0.00    -0.085 HD
BRANCH  15  18
ATOM     18  C   UNL     1      -7.524  -9.645  -0.131  0.00  0.00    -0.049 C 
ATOM     19  C   UNL     1      -7.077 -10.101   1.259  0.00  0.00    -0.011 C 
BRANCH  18  20
ATOM     20  C   UNL     1      -8.985 -10.043  -0.353  0.00  0.00    +0.144 C 
BRANCH  20  21
ATOM     21  O   UNL     1      -9.788  -9.516   0.705  0.00  0.00    -0.382 OA
BRANCH  21  22
ATOM     22  C   UNL     1     -11.177  -9.832   0.592  0.00  0.00    +0.156 C 
ATOM     23  C   UNL     1     -11.937  -9.221   1.772  0.00  0.00    +0.034 C 
ENDBRANCH  21  22
ENDBRANCH  20  21
ENDBRANCH  18  20
ENDBRANCH  15  18
ENDBRANCH  14  15
ENDBRANCH   1  14
TORSDOF 15
