REMARK  Name = ZINC09130448
REMARK  6 active torsions:
REMARK  status: ('A' for Active; 'I' for Inactive)
REMARK    1  A    between atoms: C_1  and  C_2
REMARK    2  A    between atoms: C_3  and  N_15
REMARK    3  A    between atoms: N_6  and  C_9
REMARK    4  A    between atoms: N_7  and  C_8
REMARK    5  A    between atoms: C_16  and  C_18
REMARK    6  A    between atoms: N_23  and  C_25
REMARK                            x       y       z     vdW  Elec       q    Type
REMARK                         _______ _______ _______ _____ _____    ______ ____
ROOT
ATOM      1  N   UNL     1      -2.501   1.497  -0.226  0.00  0.00    -0.274 N 
ATOM      2  C   UNL     1      -2.904   0.737  -1.264  0.00  0.00    +0.272 C 
ATOM      3  O   UNL     1      -2.115   0.433  -2.138  0.00  0.00    -0.268 OA
ATOM      4  H   UNL     1      -3.145   1.798   0.433  0.00  0.00    +0.155 HD
ENDROOT
BRANCH   1   7
ATOM      5  C   UNL     1      -1.450   4.379  -0.173  0.00  0.00    +0.067 C 
ATOM      6  C   UNL     1      -0.644   3.110  -0.072  0.00  0.00    +0.059 A 
ATOM      7  C   UNL     1      -1.145   1.853  -0.100  0.00  0.00    +0.122 A 
ATOM      8  C   UNL     1      -0.013   0.934   0.030  0.00  0.00    +0.293 A 
ATOM      9  O   UNL     1      -0.067  -0.283   0.050  0.00  0.00    -0.264 OA
ATOM     10  N   UNL     1       1.100   1.691   0.118  0.00  0.00    -0.216 N 
ATOM     11  N   UNL     1       0.717   3.035   0.056  0.00  0.00    -0.282 N 
ATOM     12  C   UNL     1       1.628   4.181   0.116  0.00  0.00    +0.171 C 
BRANCH  10  13
ATOM     13  C   UNL     1       2.408   1.214   0.249  0.00  0.00    +0.067 A 
ATOM     14  C   UNL     1       3.440   1.808  -0.467  0.00  0.00    +0.028 A 
ATOM     15  C   UNL     1       4.732   1.339  -0.331  0.00  0.00    +0.002 A 
ATOM     16  C   UNL     1       4.997   0.272   0.508  0.00  0.00    +0.000 A 
ATOM     17  C   UNL     1       3.971  -0.325   1.218  0.00  0.00    +0.002 A 
ATOM     18  C   UNL     1       2.678   0.143   1.091  0.00  0.00    +0.028 A 
ENDBRANCH  10  13
ENDBRANCH   1   7
BRANCH   2  19
ATOM     19  C   UNL     1      -4.303   0.273  -1.339  0.00  0.00    +0.193 A 
ATOM     20  C   UNL     1      -4.760  -0.553  -2.469  0.00  0.00    +0.212 A 
ATOM     21  O   UNL     1      -4.000  -0.875  -3.369  0.00  0.00    -0.285 OA
ATOM     22  C   UNL     1      -6.118  -0.963  -2.465  0.00  0.00    +0.073 A 
ATOM     23  C   UNL     1      -6.897  -0.560  -1.433  0.00  0.00    +0.117 A 
ATOM     24  N   UNL     1      -6.389   0.206  -0.437  0.00  0.00    -0.239 N 
ATOM     25  N   UNL     1      -5.168   0.594  -0.400  0.00  0.00    -0.158 NA
BRANCH  24  26
ATOM     26  C   UNL     1      -7.241   0.593   0.604  0.00  0.00    +0.065 A 
ATOM     27  C   UNL     1      -6.841   1.574   1.502  0.00  0.00    +0.029 A 
ATOM     28  C   UNL     1      -7.685   1.958   2.525  0.00  0.00    +0.022 A 
ATOM     29  C   UNL     1      -8.925   1.359   2.662  0.00  0.00    +0.041 A 
ATOM     30  C   UNL     1      -9.324   0.377   1.771  0.00  0.00    +0.022 A 
ATOM     31  C   UNL     1      -8.486  -0.007   0.744  0.00  0.00    +0.029 A 
ATOM     32 CL   UNL     1      -9.982   1.839   3.953  0.00  0.00    -0.084 Cl
ENDBRANCH  24  26
ENDBRANCH   2  19
TORSDOF 4
