REMARK  Name = ZINC28060410
REMARK  2 active torsions:
REMARK  status: ('A' for Active; 'I' for Inactive)
REMARK    1  A    between atoms: C_9  and  C_12
REMARK    2  A    between atoms: C_19  and  C_27
REMARK                            x       y       z     vdW  Elec       q    Type
REMARK                         _______ _______ _______ _____ _____    ______ ____
ROOT
ATOM      1  C   UNL     1      -5.005   5.208   0.439  0.00  0.00    +0.001 A 
ATOM      2  C   UNL     1      -4.777   5.004  -0.911  0.00  0.00    +0.004 A 
ATOM      3  C   UNL     1      -4.256   3.805  -1.362  0.00  0.00    +0.046 A 
ATOM      4  C   UNL     1      -3.958   2.803  -0.458  0.00  0.00    +0.131 A 
ATOM      5  C   UNL     1      -4.189   3.007   0.908  0.00  0.00    +0.038 A 
ATOM      6  C   UNL     1      -4.714   4.214   1.353  0.00  0.00    +0.013 A 
ATOM      7  C   UNL     1      -3.859   1.911   1.851  0.00  0.00    +0.050 C 
ATOM      8  C   UNL     1      -3.062   0.928   1.427  0.00  0.00    +0.026 C 
ATOM      9  C   UNL     1      -2.514   0.978   0.019  0.00  0.00    +0.234 C 
ATOM     10  O   UNL     1      -3.442   1.613  -0.860  0.00  0.00    -0.479 OA
ATOM     11  C   UNL     1      -2.687  -0.241   2.305  0.00  0.00    +0.181 C 
ATOM     12  N   UNL     1      -3.036   0.041   3.690  0.00  0.00    -0.201 N 
ATOM     13  C   UNL     1      -3.839   1.068   4.074  0.00  0.00    +0.240 A 
ATOM     14  N   UNL     1      -3.944   1.014   5.371  0.00  0.00    -0.092 NA
ATOM     15  N   UNL     1      -3.257   0.026   5.834  0.00  0.00    -0.021 NA
ATOM     16  N   UNL     1      -2.675  -0.610   4.869  0.00  0.00    -0.042 NA
ATOM     17  N   UNL     1      -4.382   1.944   3.149  0.00  0.00    -0.282 N 
ATOM     18  H   UNL     1      -5.191   2.645   3.398  0.00  0.00    +0.155 HD
ENDROOT
BRANCH   9  19
ATOM     19  C   UNL     1      -1.220   1.750   0.017  0.00  0.00    -0.000 A 
ATOM     20  C   UNL     1      -0.013   1.076   0.008  0.00  0.00    +0.008 A 
ATOM     21  C   UNL     1       1.175   1.783   0.000  0.00  0.00    +0.003 A 
ATOM     22  C   UNL     1       1.158   3.165   0.007  0.00  0.00    +0.038 A 
ATOM     23  C   UNL     1      -0.050   3.841   0.023  0.00  0.00    +0.124 A 
ATOM     24  C   UNL     1      -1.240   3.132   0.031  0.00  0.00    +0.046 A 
ATOM     25  F   UNL     1      -0.068   5.192   0.029  0.00  0.00    -0.205 F 
ENDBRANCH   9  19
BRANCH  11  26
ATOM     26  C   UNL     1      -3.427  -1.470   1.843  0.00  0.00    +0.019 A 
ATOM     27  C   UNL     1      -2.928  -2.648   1.394  0.00  0.00    +0.013 A 
ATOM     28  C   UNL     1      -3.806  -3.649   1.024  0.00  0.00    +0.008 A 
ATOM     29  C   UNL     1      -5.139  -3.420   1.110  0.00  0.00    +0.045 A 
ATOM     30  S   UNL     1      -5.187  -1.750   1.738  0.00  0.00    -0.099 S 
ENDBRANCH  11  26
TORSDOF 2
