REMARK  Name = ZINC61708621
REMARK  5 active torsions:
REMARK  status: ('A' for Active; 'I' for Inactive)
REMARK    1  A    between atoms: C_1  and  C_2
REMARK    2  A    between atoms: C_5  and  N_9
REMARK    3  A    between atoms: C_10  and  C_12
REMARK    4  A    between atoms: C_12  and  N_13
REMARK    5  A    between atoms: C_16  and  O_19
REMARK                            x       y       z     vdW  Elec       q    Type
REMARK                         _______ _______ _______ _____ _____    ______ ____
ROOT
ATOM      1  N   UNL     1       0.059  -4.172  -0.021  0.00  0.00    -0.285 N 
ATOM      2  C   UNL     1       0.473  -4.846   1.070  0.00  0.00    +0.201 C 
ATOM      3  O   UNL     1       0.743  -4.245   2.088  0.00  0.00    -0.278 OA
ATOM      4  H   UNL     1      -0.225  -4.656  -0.812  0.00  0.00    +0.155 HD
ENDROOT
BRANCH   1   9
ATOM      5  C   UNL     1      -0.020   1.503   0.010  0.00  0.00    +0.044 C 
ATOM      6  C   UNL     1       0.001  -0.004   0.002  0.00  0.00    -0.048 A 
ATOM      7  C   UNL     1       1.143  -0.676  -0.396  0.00  0.00    +0.020 A 
ATOM      8  C   UNL     1       1.165  -2.058  -0.405  0.00  0.00    +0.040 A 
ATOM      9  C   UNL     1       0.040  -2.772  -0.013  0.00  0.00    +0.062 A 
ATOM     10  C   UNL     1      -1.105  -2.094   0.386  0.00  0.00    +0.040 A 
ATOM     11  C   UNL     1      -1.119  -0.712   0.397  0.00  0.00    +0.020 A 
ATOM     12 BR   UNL     1      -2.640  -3.060   0.920  0.00  0.00    -0.048 Br
ATOM     13 BR   UNL     1       2.727  -2.975  -0.949  0.00  0.00    -0.048 Br
ENDBRANCH   1   9
BRANCH   2  14
ATOM     14  C   UNL     1       0.601  -6.347   1.025  0.00  0.00    +0.019 C 
BRANCH  14  15
ATOM     15  N   UNL     1       1.066  -6.838   2.329  0.00  0.00    +0.387 N 
ATOM     16  C   UNL     1       0.008  -6.650   3.354  0.00  0.00    -0.076 C 
ATOM     17  C   UNL     1       0.390  -7.675   4.451  0.00  0.00    +0.011 C 
ATOM     18  C   UNL     1       0.906  -8.881   3.632  0.00  0.00    +0.096 C 
ATOM     19  C   UNL     1       1.312  -8.295   2.266  0.00  0.00    -0.047 C 
ATOM     20  H   UNL     1       1.908  -6.355   2.603  0.00  0.00    -0.081 HD
BRANCH  18  21
ATOM     21  O   UNL     1      -0.131  -9.851   3.469  0.00  0.00    -0.394 OA
ATOM     22  H   UNL     1      -0.455 -10.222   4.301  0.00  0.00    +0.210 HD
ENDBRANCH  18  21
ENDBRANCH  14  15
ENDBRANCH   2  14
TORSDOF 4
