REMARK  Name = ZINC28866447
REMARK  8 active torsions:
REMARK  status: ('A' for Active; 'I' for Inactive)
REMARK    1  A    between atoms: C_1  and  C_2
REMARK    2  A    between atoms: C_2  and  C_3
REMARK    3  A    between atoms: C_3  and  N_5
REMARK    4  A    between atoms: C_3  and  N_15
REMARK    5  A    between atoms: C_6  and  C_8
REMARK    6  A    between atoms: C_16  and  N_20
REMARK    7  A    between atoms: N_17  and  C_18
REMARK    8  A    between atoms: N_20  and  C_21
REMARK                            x       y       z     vdW  Elec       q    Type
REMARK                         _______ _______ _______ _____ _____    ______ ____
ROOT
ATOM      1  C   UNL     1      -0.552   0.423   1.049  0.00  0.00    +0.206 C 
ENDROOT
BRANCH   1   3
ATOM      2  C   UNL     1      -0.779  -0.584  -1.227  0.00  0.00    +0.049 C 
ATOM      3  C   UNL     1      -0.175  -0.769   0.167  0.00  0.00    +0.152 C 
ATOM      4 CL   UNL     1      -0.815  -2.286   0.902  0.00  0.00    -0.097 Cl
ATOM      5 CL   UNL     1       1.620  -0.876   0.035  0.00  0.00    -0.097 Cl
ENDBRANCH   1   3
BRANCH   1   6
ATOM      6  N   UNL     1      -0.032   1.655   0.452  0.00  0.00    -0.289 N 
ATOM      7  C   UNL     1       0.591   2.568   1.224  0.00  0.00    +0.246 C 
ATOM      8  O   UNL     1       0.722   2.368   2.416  0.00  0.00    -0.270 OA
ATOM      9  H   UNL     1      -0.150   1.836  -0.627  0.00  0.00    +0.151 HD
BRANCH   7  10
ATOM     10  C   UNL     1       1.116   3.812   0.621  0.00  0.00    +0.039 A 
ATOM     11  C   UNL     1       1.762   4.758   1.418  0.00  0.00    +0.013 A 
ATOM     12  C   UNL     1       2.249   5.918   0.851  0.00  0.00    +0.004 A 
ATOM     13  C   UNL     1       2.100   6.144  -0.505  0.00  0.00    +0.038 A 
ATOM     14  C   UNL     1       1.461   5.209  -1.303  0.00  0.00    +0.124 A 
ATOM     15  C   UNL     1       0.973   4.041  -0.748  0.00  0.00    +0.051 A 
ATOM     16  F   UNL     1       1.319   5.437  -2.627  0.00  0.00    -0.205 F 
ENDBRANCH   7  10
ENDBRANCH   1   6
BRANCH   1  17
ATOM     17  N   UNL     1      -2.010   0.510   1.156  0.00  0.00    -0.333 N 
ATOM     18  C   UNL     1      -2.594   0.731   2.372  0.00  0.00    +0.236 C 
ATOM     19  N   UNL     1      -1.848   0.799   3.460  0.00  0.00    -0.136 NA
ATOM     20  H   UNL     1      -2.635   0.397   0.258  0.00  0.00    +0.164 HD
BRANCH  19  21
ATOM     21  C   UNL     1      -2.433   0.911   4.677  0.00  0.00    +0.208 C 
ATOM     22  N   UNL     1      -2.924   1.005   5.697  0.00  0.00    -0.169 NA
ENDBRANCH  19  21
BRANCH  18  23
ATOM     23  N   UNL     1      -3.950   0.882   2.462  0.00  0.00    -0.211 NA
BRANCH  23  24
ATOM     24  C   UNL     1      -4.726   0.938   1.299  0.00  0.00    +0.086 A 
ATOM     25  C   UNL     1      -6.036   0.463   1.300  0.00  0.00    +0.032 A 
ATOM     26  C   UNL     1      -6.765   0.539   0.126  0.00  0.00    +0.042 A 
ATOM     27  C   UNL     1      -6.174   1.082  -1.003  0.00  0.00    +0.129 A 
ATOM     28  N   UNL     1      -4.931   1.523  -0.970  0.00  0.00    -0.241 NA
ATOM     29  C   UNL     1      -4.205   1.473   0.129  0.00  0.00    +0.140 A 
ATOM     30 CL   UNL     1      -7.080   1.182  -2.480  0.00  0.00    -0.062 Cl
ENDBRANCH  23  24
ENDBRANCH  18  23
ENDBRANCH   1  17
TORSDOF 7
