REMARK  Name = ZINC43554980
REMARK  8 active torsions:
REMARK  status: ('A' for Active; 'I' for Inactive)
REMARK    1  A    between atoms: C_1  and  C_2
REMARK    2  A    between atoms: C_2  and  C_3
REMARK    3  A    between atoms: C_3  and  C_5
REMARK    4  A    between atoms: C_3  and  O_12
REMARK    5  A    between atoms: C_7  and  C_10
REMARK    6  A    between atoms: O_12  and  C_13
REMARK    7  A    between atoms: C_17  and  C_20
REMARK    8  A    between atoms: C_18  and  C_19
REMARK                            x       y       z     vdW  Elec       q    Type
REMARK                         _______ _______ _______ _____ _____    ______ ____
ROOT
ATOM      1  C   UNL     1       0.721  -0.505  -1.269  0.00  0.00    +0.228 C 
ENDROOT
BRANCH   1   2
ATOM      2  C   UNL     1       0.645  -2.000  -1.445  0.00  0.00    +0.119 A 
ATOM      3  N   UNL     1      -0.111  -2.685  -2.266  0.00  0.00    -0.244 NA
ATOM      4  C   UNL     1      -0.064  -4.002  -2.305  0.00  0.00    +0.063 A 
ATOM      5  C   UNL     1       0.803  -4.612  -1.456  0.00  0.00    +0.071 A 
ATOM      6  S   UNL     1       1.517  -3.193  -0.639  0.00  0.00    -0.077 S 
BRANCH   4   7
ATOM      7  C   UNL     1      -0.932  -4.794  -3.248  0.00  0.00    +0.164 C 
ATOM      8 CL   UNL     1      -0.062  -5.032  -4.809  0.00  0.00    -0.119 Cl
ENDBRANCH   4   7
ENDBRANCH   1   2
BRANCH   1  10
ATOM      9  C   UNL     1      -0.017   1.417   0.146  0.00  0.00    +0.008 C 
ATOM     10  C   UNL     1       0.016  -0.108   0.029  0.00  0.00    +0.048 C 
ENDBRANCH   1  10
BRANCH   1  11
ATOM     11  O   UNL     1       2.090  -0.101  -1.210  0.00  0.00    -0.482 OA
BRANCH  11  12
ATOM     12  C   UNL     1       2.421   1.054  -1.846  0.00  0.00    +0.125 A 
ATOM     13  C   UNL     1       1.430   1.844  -2.412  0.00  0.00    +0.046 A 
ATOM     14  C   UNL     1       1.768   3.017  -3.057  0.00  0.00    +0.004 A 
ATOM     15  C   UNL     1       3.093   3.405  -3.139  0.00  0.00    +0.004 A 
ATOM     16  C   UNL     1       4.082   2.620  -2.577  0.00  0.00    -0.044 A 
ATOM     17  C   UNL     1       3.748   1.448  -1.926  0.00  0.00    -0.006 A 
ATOM     18  C   UNL     1       4.826   0.596  -1.307  0.00  0.00    +0.048 C 
ATOM     19  C   UNL     1       5.525   3.046  -2.669  0.00  0.00    +0.044 C 
ENDBRANCH  11  12
ENDBRANCH   1  11
TORSDOF 5
