REMARK  Name = ZINC01411732
REMARK  6 active torsions:
REMARK  status: ('A' for Active; 'I' for Inactive)
REMARK    1  A    between atoms: C_3  and  C_6
REMARK    2  A    between atoms: N_8  and  C_9
REMARK    3  A    between atoms: C_12  and  N_15
REMARK    4  A    between atoms: N_15  and  C_16
REMARK    5  A    between atoms: C_16  and  N_18
REMARK    6  A    between atoms: C_19  and  C_21
REMARK                            x       y       z     vdW  Elec       q    Type
REMARK                         _______ _______ _______ _____ _____    ______ ____
ROOT
ATOM      1  C   UNL     1       3.534   4.788   0.114  0.00  0.00    +0.034 A 
ATOM      2  C   UNL     1       2.643   5.721   0.628  0.00  0.00    +0.025 A 
ATOM      3  C   UNL     1       3.008   7.049   0.714  0.00  0.00    +0.025 A 
ATOM      4  C   UNL     1       4.262   7.455   0.276  0.00  0.00    +0.033 A 
ATOM      5  C   UNL     1       5.151   6.523  -0.243  0.00  0.00    +0.025 A 
ATOM      6  C   UNL     1       4.788   5.193  -0.324  0.00  0.00    +0.025 A 
ENDROOT
BRANCH   1   9
ATOM      7  C   UNL     1       4.083   2.476   0.246  0.00  0.00    +0.284 C 
ATOM      8  O   UNL     1       5.242   2.777   0.461  0.00  0.00    -0.266 OA
ATOM      9  N   UNL     1       3.166   3.440   0.031  0.00  0.00    -0.279 N 
ATOM     10  H   UNL     1       2.250   3.199  -0.181  0.00  0.00    +0.155 HD
BRANCH   7  13
ATOM     11  C   UNL     1       3.709  -1.155   0.312  0.00  0.00    +0.042 A 
ATOM     12  C   UNL     1       4.507  -0.005   0.422  0.00  0.00    +0.054 A 
ATOM     13  C   UNL     1       3.684   1.065   0.222  0.00  0.00    +0.189 A 
ATOM     14  O   UNL     1       2.438   0.598  -0.003  0.00  0.00    -0.458 OA
ATOM     15  C   UNL     1       2.450  -0.741   0.051  0.00  0.00    +0.196 A 
ENDBRANCH   7  13
ENDBRANCH   1   9
BRANCH   4  16
ATOM     16  N   UNL     1       4.630   8.803   0.359  0.00  0.00    -0.297 N 
ATOM     17  H   UNL     1       4.433   9.312   1.161  0.00  0.00    +0.154 HD
BRANCH  16  18
ATOM     18  C   UNL     1       5.259   9.395  -0.676  0.00  0.00    +0.141 C 
ATOM     19  S   UNL     1       5.693   8.475  -2.053  0.00  0.00    -0.018 S 
BRANCH  18  20
ATOM     20  N   UNL     1       5.546  10.711  -0.627  0.00  0.00    -0.264 N 
ATOM     21  C   UNL     1       6.175  11.302  -1.662  0.00  0.00    +0.250 C 
ATOM     22  O   UNL     1       6.483  10.649  -2.639  0.00  0.00    -0.270 OA
ATOM     23  H   UNL     1       5.301  11.232   0.153  0.00  0.00    +0.157 HD
BRANCH  21  24
ATOM     24  C   UNL     1       6.490  12.745  -1.608  0.00  0.00    +0.037 A 
ATOM     25  C   UNL     1       6.132  13.499  -0.489  0.00  0.00    +0.014 A 
ATOM     26  C   UNL     1       6.434  14.844  -0.442  0.00  0.00    +0.016 A 
ATOM     27  C   UNL     1       7.080  15.449  -1.507  0.00  0.00    +0.018 A 
ATOM     28  C   UNL     1       7.432  14.707  -2.623  0.00  0.00    +0.016 A 
ATOM     29  C   UNL     1       7.141  13.361  -2.679  0.00  0.00    +0.014 A 
ATOM     30 BR   UNL     1       7.483  17.295  -1.438  0.00  0.00    -0.050 Br
ENDBRANCH  21  24
ENDBRANCH  18  20
ENDBRANCH  16  18
ENDBRANCH   4  16
TORSDOF 6
