REMARK  Name = ZINC02370745
REMARK  17 active torsions:
REMARK  status: ('A' for Active; 'I' for Inactive)
REMARK    1  A    between atoms: C_1  and  C_2
REMARK    2  A    between atoms: C_2  and  C_3
REMARK    3  A    between atoms: C_3  and  C_4
REMARK    4  A    between atoms: C_3  and  C_5
REMARK    5  A    between atoms: C_3  and  C_26
REMARK    6  A    between atoms: C_5  and  C_6
REMARK    7  A    between atoms: C_6  and  N_7
REMARK    8  A    between atoms: C_8  and  C_10
REMARK    9  A    between atoms: C_10  and  C_11
REMARK   10  A    between atoms: C_11  and  C_13
REMARK   11  A    between atoms: C_11  and  C_23
REMARK   12  A    between atoms: C_16  and  O_19
REMARK   13  A    between atoms: O_19  and  C_20
REMARK   14  A    between atoms: C_20  and  C_21
REMARK   15  A    between atoms: C_20  and  C_22
REMARK   16  A    between atoms: C_23  and  C_24
REMARK   17  A    between atoms: C_23  and  C_25
REMARK                            x       y       z     vdW  Elec       q    Type
REMARK                         _______ _______ _______ _____ _____    ______ ____
ROOT
ATOM      1  N   UNL     1       2.932   2.320   0.165  0.00  0.00    -0.315 N 
ATOM      2  C   UNL     1       1.611   2.588   0.174  0.00  0.00    +0.214 C 
ATOM      3  O   UNL     1       0.968   2.501  -0.851  0.00  0.00    -0.276 OA
ATOM      4  H   UNL     1       3.446   2.390   0.984  0.00  0.00    +0.149 HD
ENDROOT
BRANCH   1   5
ATOM      5  C   UNL     1       3.591   1.925  -1.082  0.00  0.00    +0.105 C 
BRANCH   5   6
ATOM      6  C   UNL     1       5.078   1.681  -0.819  0.00  0.00    +0.030 C 
BRANCH   6   7
ATOM      7  C   UNL     1       5.766   1.268  -2.121  0.00  0.00    -0.006 C 
ATOM      8  C   UNL     1       5.125  -0.017  -2.651  0.00  0.00    +0.016 C 
BRANCH   7   9
ATOM      9  C   UNL     1       7.231   1.028  -1.861  0.00  0.00    -0.041 A 
ATOM     10  C   UNL     1       7.744   1.200  -0.589  0.00  0.00    +0.004 A 
ATOM     11  C   UNL     1       9.087   0.975  -0.350  0.00  0.00    +0.000 A 
ATOM     12  C   UNL     1       9.918   0.589  -1.385  0.00  0.00    +0.000 A 
ATOM     13  C   UNL     1       9.406   0.423  -2.658  0.00  0.00    +0.000 A 
ATOM     14  C   UNL     1       8.062   0.642  -2.896  0.00  0.00    +0.004 A 
ENDBRANCH   7   9
BRANCH   7  16
ATOM     15  C   UNL     1       6.248   3.667  -2.627  0.00  0.00    +0.005 C 
ATOM     16  C   UNL     1       5.607   2.382  -3.157  0.00  0.00    +0.008 C 
ENDBRANCH   7  16
ENDBRANCH   6   7
ENDBRANCH   5   6
ENDBRANCH   1   5
BRANCH   2  17
ATOM     17  C   UNL     1       0.933   2.995   1.457  0.00  0.00    +0.104 C 
BRANCH  17  18
ATOM     18  C   UNL     1      -0.578   3.081   1.231  0.00  0.00    +0.030 C 
BRANCH  18  19
ATOM     19  C   UNL     1      -1.240   3.632   2.467  0.00  0.00    -0.043 A 
ATOM     20  C   UNL     1      -0.853   3.182   3.716  0.00  0.00    +0.007 A 
ATOM     21  C   UNL     1      -1.455   3.690   4.851  0.00  0.00    +0.046 A 
ATOM     22  C   UNL     1      -2.457   4.643   4.737  0.00  0.00    +0.121 A 
ATOM     23  C   UNL     1      -2.847   5.089   3.482  0.00  0.00    +0.046 A 
ATOM     24  C   UNL     1      -2.238   4.582   2.350  0.00  0.00    +0.007 A 
BRANCH  22  25
ATOM     25  O   UNL     1      -3.055   5.140   5.851  0.00  0.00    -0.489 OA
BRANCH  25  26
ATOM     26  C   UNL     1      -4.154   6.031   5.655  0.00  0.00    +0.167 C 
ATOM     27  C   UNL     1      -5.064   5.997   6.885  0.00  0.00    +0.051 C 
ATOM     28  C   UNL     1      -3.627   7.453   5.450  0.00  0.00    +0.051 C 
ENDBRANCH  25  26
ENDBRANCH  22  25
ENDBRANCH  18  19
BRANCH  18  29
ATOM     29  C   UNL     1      -1.129   1.684   0.936  0.00  0.00    -0.009 C 
ATOM     30  C   UNL     1      -2.634   1.775   0.673  0.00  0.00    +0.008 C 
ATOM     31  C   UNL     1      -0.876   0.772   2.138  0.00  0.00    +0.008 C 
ENDBRANCH  18  29
ENDBRANCH  17  18
ENDBRANCH   2  17
TORSDOF 11
