REMARK  Name = ZINC40383912
REMARK  9 active torsions:
REMARK  status: ('A' for Active; 'I' for Inactive)
REMARK    1  A    between atoms: C_1  and  C_2
REMARK    2  A    between atoms: C_2  and  C_4
REMARK    3  A    between atoms: C_2  and  N_7
REMARK    4  A    between atoms: C_4  and  C_5
REMARK    5  A    between atoms: C_4  and  C_6
REMARK    6  A    between atoms: C_8  and  C_10
REMARK    7  A    between atoms: C_13  and  C_15
REMARK    8  A    between atoms: C_15  and  N_16
REMARK    9  A    between atoms: C_24  and  C_26
REMARK                            x       y       z     vdW  Elec       q    Type
REMARK                         _______ _______ _______ _____ _____    ______ ____
ROOT
ATOM      1  N   UNL     1       4.371  -1.103  -5.906  0.00  0.00    +0.394 N 
ATOM      2  C   UNL     1       4.651  -0.190  -4.789  0.00  0.00    -0.055 C 
ATOM      3  C   UNL     1       5.153   1.155  -5.329  0.00  0.00    +0.103 C 
ATOM      4  N   UNL     1       6.246   0.887  -6.272  0.00  0.00    -0.353 N 
ATOM      5  C   UNL     1       7.172   1.754  -6.753  0.00  0.00    +0.086 A 
ATOM      6  C   UNL     1       7.989   1.075  -7.588  0.00  0.00    +0.019 A 
ATOM      7  C   UNL     1       7.545  -0.263  -7.622  0.00  0.00    +0.021 A 
ATOM      8  C   UNL     1       6.479  -0.351  -6.813  0.00  0.00    +0.009 A 
ATOM      9  C   UNL     1       5.634  -1.563  -6.507  0.00  0.00    +0.014 C 
ATOM     10  H   UNL     1       3.825  -0.619  -6.603  0.00  0.00    -0.080 HD
ENDROOT
BRANCH   9  11
ATOM     11  C   UNL     1       5.346  -2.317  -7.780  0.00  0.00    -0.020 A 
ATOM     12  C   UNL     1       4.187  -2.062  -8.487  0.00  0.00    +0.008 A 
ATOM     13  C   UNL     1       3.922  -2.752  -9.655  0.00  0.00    +0.039 A 
ATOM     14  C   UNL     1       4.818  -3.701 -10.117  0.00  0.00    +0.126 A 
ATOM     15  C   UNL     1       5.980  -3.958  -9.409  0.00  0.00    +0.077 A 
ATOM     16  C   UNL     1       6.247  -3.262  -8.243  0.00  0.00    +0.128 A 
ATOM     17  F   UNL     1       7.383  -3.508  -7.554  0.00  0.00    -0.205 F 
ATOM     18  F   UNL     1       4.559  -4.377 -11.258  0.00  0.00    -0.205 F 
ENDBRANCH   9  11
BRANCH   1  19
ATOM     19  C   UNL     1       3.615  -2.261  -5.412  0.00  0.00    -0.002 C 
BRANCH  19  23
ATOM     20  C   UNL     1       0.693  -1.081  -3.565  0.00  0.00    +0.189 A 
ATOM     21  C   UNL     1       0.126  -1.254  -4.795  0.00  0.00    +0.055 A 
ATOM     22  C   UNL     1       1.141  -1.716  -5.646  0.00  0.00    +0.043 A 
ATOM     23  C   UNL     1       2.269  -1.805  -4.908  0.00  0.00    +0.090 A 
ATOM     24  O   UNL     1       1.996  -1.417  -3.656  0.00  0.00    -0.457 OA
BRANCH  20  26
ATOM     25  N   UNL     1       0.688  -0.476  -1.203  0.00  0.00    -0.306 N 
ATOM     26  C   UNL     1       0.006  -0.608  -2.358  0.00  0.00    +0.280 C 
ATOM     27  O   UNL     1      -1.179  -0.335  -2.400  0.00  0.00    -0.267 OA
ATOM     28  H   UNL     1       1.632  -0.695  -1.170  0.00  0.00    +0.149 HD
BRANCH  25  30
ATOM     29  C   UNL     1      -0.019   1.526   0.010  0.00  0.00    +0.028 C 
ATOM     30  C   UNL     1       0.002  -0.004   0.002  0.00  0.00    +0.073 C 
BRANCH  30  31
ATOM     31  C   UNL     1       0.742  -0.511   1.242  0.00  0.00    +0.003 C 
ATOM     32  C   UNL     1       0.026  -0.018   2.500  0.00  0.00    +0.009 C 
ATOM     33  C   UNL     1       0.763  -2.041   1.233  0.00  0.00    +0.009 C 
ENDBRANCH  30  31
ENDBRANCH  25  30
ENDBRANCH  20  26
ENDBRANCH  19  23
ENDBRANCH   1  19
TORSDOF 6
