REMARK  Name = ZINC08781136
REMARK  7 active torsions:
REMARK  status: ('A' for Active; 'I' for Inactive)
REMARK    1  A    between atoms: C_6  and  C_7
REMARK    2  A    between atoms: N_8  and  N_9
REMARK    3  A    between atoms: C_10  and  C_12
REMARK    4  A    between atoms: C_15  and  N_18
REMARK    5  A    between atoms: C_19  and  C_21
REMARK    6  A    between atoms: C_21  and  C_22
REMARK    7  A    between atoms: C_22  and  C_23
REMARK                            x       y       z     vdW  Elec       q    Type
REMARK                         _______ _______ _______ _____ _____    ______ ____
ROOT
ATOM      1  C   UNL     1      -3.736   2.825  -0.120  0.00  0.00    +0.038 A 
ATOM      2  C   UNL     1      -3.651   1.436   0.004  0.00  0.00    +0.015 A 
ATOM      3  C   UNL     1      -2.418   0.825   0.046  0.00  0.00    +0.024 A 
ATOM      4  C   UNL     1      -1.258   1.588  -0.035  0.00  0.00    +0.033 A 
ATOM      5  C   UNL     1      -1.339   2.972  -0.152  0.00  0.00    +0.024 A 
ATOM      6  C   UNL     1      -2.569   3.590  -0.200  0.00  0.00    +0.015 A 
ENDROOT
BRANCH   1   8
ATOM      7  N   UNL     1      -5.136   4.824  -0.285  0.00  0.00    -0.203 N 
ATOM      8  C   UNL     1      -5.056   3.484  -0.166  0.00  0.00    +0.263 C 
ATOM      9  O   UNL     1      -6.071   2.818  -0.096  0.00  0.00    -0.268 OA
ATOM     10  H   UNL     1      -4.327   5.356  -0.340  0.00  0.00    +0.178 HD
BRANCH   7  12
ATOM     11  C   UNL     1      -6.467   6.740  -0.443  0.00  0.00    +0.138 C 
ATOM     12  N   UNL     1      -6.389   5.449  -0.328  0.00  0.00    -0.187 NA
BRANCH  11  18
ATOM     13  C   UNL     1      -8.954   6.635  -0.415  0.00  0.00    +0.010 A 
ATOM     14  C   UNL     1     -10.184   7.258  -0.452  0.00  0.00    +0.016 A 
ATOM     15  C   UNL     1     -10.263   8.634  -0.575  0.00  0.00    +0.018 A 
ATOM     16  C   UNL     1      -9.109   9.396  -0.654  0.00  0.00    +0.016 A 
ATOM     17  C   UNL     1      -7.873   8.787  -0.612  0.00  0.00    +0.010 A 
ATOM     18  C   UNL     1      -7.786   7.398  -0.488  0.00  0.00    -0.005 A 
ATOM     19 BR   UNL     1     -11.954   9.479  -0.634  0.00  0.00    -0.050 Br
ENDBRANCH  11  18
ENDBRANCH   7  12
ENDBRANCH   1   8
BRANCH   4  20
ATOM     20  N   UNL     1      -0.011   0.966   0.007  0.00  0.00    -0.285 N 
ATOM     21  C   UNL     1       1.026   1.574   0.617  0.00  0.00    +0.218 C 
ATOM     22  O   UNL     1       0.895   2.696   1.060  0.00  0.00    -0.275 OA
ATOM     23  H   UNL     1       0.111   0.097  -0.405  0.00  0.00    +0.155 HD
BRANCH  21  24
ATOM     24  C   UNL     1       2.347   0.862   0.748  0.00  0.00    +0.107 C 
BRANCH  24  25
ATOM     25  C   UNL     1       3.345   1.766   1.473  0.00  0.00    +0.134 C 
BRANCH  25  26
ATOM     26  C   UNL     1       4.666   1.054   1.604  0.00  0.00    +0.356 C 
ATOM     27  O   UNL     1       4.796  -0.064   1.163  0.00  0.00    -0.246 OA
ATOM     28  O   UNL     1       5.699   1.660   2.211  0.00  0.00    -0.246 OA
ENDBRANCH  25  26
ENDBRANCH  24  25
ENDBRANCH  21  24
ENDBRANCH   4  20
TORSDOF 7
