REMARK  Name = ZINC05511761
REMARK  5 active torsions:
REMARK  status: ('A' for Active; 'I' for Inactive)
REMARK    1  A    between atoms: C_1  and  C_2
REMARK    2  A    between atoms: N_4  and  C_5
REMARK    3  A    between atoms: C_8  and  C_11
REMARK    4  A    between atoms: C_17  and  C_19
REMARK    5  A    between atoms: C_23  and  C_25
REMARK                            x       y       z     vdW  Elec       q    Type
REMARK                         _______ _______ _______ _____ _____    ______ ____
ROOT
ATOM      1  C   UNL     1       1.031   1.972  -0.019  0.00  0.00    +0.080 A 
ATOM      2  C   UNL     1      -0.006   1.099   0.159  0.00  0.00    +0.076 A 
ATOM      3  S   UNL     1      -1.399   2.217   0.075  0.00  0.00    -0.060 S 
ATOM      4  C   UNL     1      -0.464   3.720  -0.176  0.00  0.00    +0.165 A 
ATOM      5  N   UNL     1       0.774   3.261  -0.182  0.00  0.00    -0.225 NA
ATOM      6  N   UNL     1      -0.919   5.022  -0.330  0.00  0.00    -0.261 N 
ATOM      7  C   UNL     1      -2.241   5.283  -0.292  0.00  0.00    +0.250 C 
ATOM      8  O   UNL     1      -3.035   4.377  -0.123  0.00  0.00    -0.270 OA
ATOM      9  H   UNL     1      -0.286   5.745  -0.464  0.00  0.00    +0.157 HD
ENDROOT
BRANCH   1  13
ATOM     10  C   UNL     1       5.044   0.562  -0.050  0.00  0.00    +0.033 A 
ATOM     11  C   UNL     1       4.784   1.917  -0.221  0.00  0.00    +0.024 A 
ATOM     12  C   UNL     1       3.484   2.376  -0.211  0.00  0.00    +0.012 A 
ATOM     13  C   UNL     1       2.430   1.481  -0.029  0.00  0.00    +0.001 A 
ATOM     14  C   UNL     1       2.695   0.123   0.148  0.00  0.00    +0.012 A 
ATOM     15  C   UNL     1       3.997  -0.332   0.132  0.00  0.00    +0.024 A 
BRANCH  10  19
ATOM     16  C   UNL     1       8.788   0.425   0.310  0.00  0.00    +0.109 C 
ATOM     17  C   UNL     1       7.354   0.872   0.429  0.00  0.00    +0.214 C 
ATOM     18  O   UNL     1       7.090   1.929   0.963  0.00  0.00    -0.276 OA
ATOM     19  N   UNL     1       6.365   0.099  -0.060  0.00  0.00    -0.286 N 
ATOM     20  H   UNL     1       6.567  -0.779  -0.418  0.00  0.00    +0.155 HD
ENDBRANCH  10  19
ENDBRANCH   1  13
BRANCH   7  21
ATOM     21  C   UNL     1      -2.726   6.669  -0.456  0.00  0.00    +0.038 A 
ATOM     22  C   UNL     1      -1.815   7.711  -0.650  0.00  0.00    +0.013 A 
ATOM     23  C   UNL     1      -2.267   9.007  -0.803  0.00  0.00    +0.002 A 
ATOM     24  C   UNL     1      -3.619   9.283  -0.766  0.00  0.00    +0.019 A 
ATOM     25  C   UNL     1      -4.541   8.251  -0.573  0.00  0.00    +0.052 A 
ATOM     26  C   UNL     1      -4.092   6.940  -0.422  0.00  0.00    +0.032 A 
BRANCH  25  27
ATOM     27  C   UNL     1      -5.943   8.539  -0.535  0.00  0.00    +0.099 C 
ATOM     28  N   UNL     1      -7.055   8.767  -0.505  0.00  0.00    -0.191 NA
ENDBRANCH  25  27
ENDBRANCH   7  21
TORSDOF 4
