REMARK  Name = ZINC35124460
REMARK  4 active torsions:
REMARK  status: ('A' for Active; 'I' for Inactive)
REMARK    1  A    between atoms: C_1  and  C_2
REMARK    2  A    between atoms: C_4  and  C_37
REMARK    3  A    between atoms: N_21  and  C_24
REMARK    4  A    between atoms: C_27  and  N_31
REMARK                            x       y       z     vdW  Elec       q    Type
REMARK                         _______ _______ _______ _____ _____    ______ ____
ROOT
ATOM      1  C   UNL     1       0.031   1.559   0.079  0.00  0.00    +0.044 C 
ATOM      2  C   UNL     1       0.058   0.053   0.050  0.00  0.00    -0.050 A 
ATOM      3  C   UNL     1      -0.019  -0.618  -1.157  0.00  0.00    +0.008 A 
ATOM      4  C   UNL     1       0.007  -1.997  -1.189  0.00  0.00    -0.029 A 
ATOM      5  C   UNL     1       0.110  -2.724  -0.006  0.00  0.00    +0.042 A 
ATOM      6  C   UNL     1       0.184  -2.038   1.203  0.00  0.00    +0.004 A 
ATOM      7  C   UNL     1       0.166  -0.662   1.230  0.00  0.00    +0.011 A 
ATOM      8  C   UNL     1       0.279  -3.093   2.270  0.00  0.00    +0.138 C 
ATOM      9  C   UNL     1      -0.888  -2.993   3.258  0.00  0.00    +0.123 C 
ATOM     10  C   UNL     1      -0.306  -2.229   4.479  0.00  0.00    +0.107 C 
ATOM     11  C   UNL     1       1.165  -1.953   4.118  0.00  0.00    +0.071 C 
ATOM     12  N   UNL     1       1.509  -2.949   3.066  0.00  0.00    -0.281 NA
ATOM     13  C   UNL     1       1.767  -4.198   3.822  0.00  0.00    +0.086 C 
ATOM     14  C   UNL     1       2.476  -3.750   5.116  0.00  0.00    +0.017 C 
ATOM     15  C   UNL     1       2.055  -2.270   5.333  0.00  0.00    +0.021 C 
ATOM     16  C   UNL     1      -1.087  -0.934   4.486  0.00  0.00    +0.232 C 
ATOM     17  O   UNL     1      -0.945  -0.035   5.286  0.00  0.00    -0.274 OA
ATOM     18  N   UNL     1      -1.959  -0.936   3.471  0.00  0.00    -0.208 N 
ATOM     19  C   UNL     1      -1.941  -2.055   2.711  0.00  0.00    +0.233 C 
ATOM     20  O   UNL     1      -2.645  -2.277   1.749  0.00  0.00    -0.274 OA
ATOM     21  C   UNL     1       0.255  -4.402   1.527  0.00  0.00    +0.243 C 
ATOM     22  O   UNL     1       0.314  -5.511   2.013  0.00  0.00    -0.273 OA
ATOM     23  N   UNL     1       0.157  -4.102   0.218  0.00  0.00    -0.283 N 
ATOM     24  C   UNL     1      -0.076  -2.719  -2.510  0.00  0.00    +0.045 C 
ATOM     25  H   UNL     1       0.121  -4.766  -0.488  0.00  0.00    +0.155 HD
ENDROOT
BRANCH  18  26
ATOM     26  C   UNL     1      -2.828   0.134   3.216  0.00  0.00    +0.062 A 
ATOM     27  C   UNL     1      -2.487   1.100   2.279  0.00  0.00    +0.027 A 
ATOM     28  C   UNL     1      -3.345   2.152   2.030  0.00  0.00    +0.034 A 
ATOM     29  C   UNL     1      -4.544   2.246   2.713  0.00  0.00    +0.128 A 
ATOM     30  C   UNL     1      -4.888   1.286   3.647  0.00  0.00    +0.054 A 
ATOM     31  C   UNL     1      -4.036   0.227   3.897  0.00  0.00    +0.065 A 
ATOM     32 CL   UNL     1      -4.471  -0.982   5.064  0.00  0.00    -0.082 Cl
BRANCH  29  33
ATOM     33  N   UNL     1      -5.461   3.377   2.444  0.00  0.00    +0.056 N 
ATOM     34  O   UNL     1      -5.162   4.217   1.628  0.00  0.00    -0.126 OA
ATOM     35  O   UNL     1      -6.510   3.460   3.040  0.00  0.00    -0.126 OA
ENDBRANCH  29  33
ENDBRANCH  18  26
TORSDOF 2
