REMARK  Name = ZINC09064712
REMARK  10 active torsions:
REMARK  status: ('A' for Active; 'I' for Inactive)
REMARK    1  A    between atoms: C_1  and  C_2
REMARK    2  A    between atoms: C_2  and  C_3
REMARK    3  A    between atoms: N_5  and  C_6
REMARK    4  A    between atoms: C_10  and  N_12
REMARK    5  A    between atoms: N_12  and  C_13
REMARK    6  A    between atoms: C_13  and  N_15
REMARK    7  A    between atoms: C_16  and  C_18
REMARK    8  A    between atoms: C_22  and  C_26
REMARK    9  A    between atoms: C_23  and  O_24
REMARK   10  A    between atoms: O_24  and  C_25
REMARK                            x       y       z     vdW  Elec       q    Type
REMARK                         _______ _______ _______ _____ _____    ______ ____
ROOT
ATOM      1  C   UNL     1       4.813   4.824   0.432  0.00  0.00    +0.141 C 
ATOM      2  S   UNL     1       4.863   6.481   0.862  0.00  0.00    -0.018 S 
ENDROOT
BRANCH   1   3
ATOM      3  N   UNL     1       3.652   4.145   0.502  0.00  0.00    -0.263 N 
ATOM      4  C   UNL     1       2.529   4.769   0.911  0.00  0.00    +0.253 C 
ATOM      5  O   UNL     1       2.564   5.945   1.216  0.00  0.00    -0.270 OA
ATOM      6  H   UNL     1       3.623   3.206   0.259  0.00  0.00    +0.157 HD
BRANCH   4   7
ATOM      7  C   UNL     1       1.258   4.025   0.987  0.00  0.00    +0.080 A 
ATOM      8  C   UNL     1       1.213   2.673   0.637  0.00  0.00    +0.032 A 
ATOM      9  C   UNL     1       0.021   1.984   0.712  0.00  0.00    +0.019 A 
ATOM     10  C   UNL     1      -1.134   2.627   1.127  0.00  0.00    +0.022 A 
ATOM     11  C   UNL     1      -1.102   3.961   1.480  0.00  0.00    -0.007 A 
ATOM     12  C   UNL     1       0.088   4.670   1.412  0.00  0.00    +0.135 A 
ATOM     13  C   UNL     1      -2.362   4.649   1.937  0.00  0.00    +0.047 C 
ATOM     14 BR   UNL     1      -0.039   0.154   0.238  0.00  0.00    -0.050 Br
BRANCH  12  15
ATOM     15  O   UNL     1       0.120   5.983   1.754  0.00  0.00    -0.494 OA
ATOM     16  C   UNL     1      -0.125   6.931   0.714  0.00  0.00    +0.277 C 
ENDBRANCH  12  15
ENDBRANCH   4   7
ENDBRANCH   1   3
BRANCH   1  17
ATOM     17  N   UNL     1       5.936   4.200   0.024  0.00  0.00    -0.297 N 
ATOM     18  H   UNL     1       5.920   3.249  -0.167  0.00  0.00    +0.154 HD
BRANCH  17  23
ATOM     19  C   UNL     1       9.102   5.443  -1.382  0.00  0.00    +0.035 A 
ATOM     20  C   UNL     1       9.476   6.361  -0.408  0.00  0.00    +0.023 A 
ATOM     21  C   UNL     1       8.677   6.558   0.701  0.00  0.00    +0.004 A 
ATOM     22  C   UNL     1       7.503   5.843   0.846  0.00  0.00    +0.023 A 
ATOM     23  C   UNL     1       7.124   4.923  -0.123  0.00  0.00    +0.034 A 
ATOM     24  C   UNL     1       7.928   4.719  -1.236  0.00  0.00    +0.046 A 
BRANCH  19  27
ATOM     25  C   UNL     1      11.254   5.298  -2.387  0.00  0.00    +0.217 C 
ATOM     26  O   UNL     1      11.758   5.570  -1.318  0.00  0.00    -0.275 OA
ATOM     27  N   UNL     1       9.912   5.244  -2.505  0.00  0.00    -0.285 N 
ATOM     28  H   UNL     1       9.508   5.068  -3.369  0.00  0.00    +0.155 HD
BRANCH  25  30
ATOM     29  C   UNL     1      13.598   5.146  -3.180  0.00  0.00    +0.013 C 
ATOM     30  C   UNL     1      12.128   5.020  -3.583  0.00  0.00    +0.093 C 
ENDBRANCH  25  30
ENDBRANCH  19  27
ENDBRANCH  17  23
ENDBRANCH   1  17
TORSDOF 7
