REMARK  Name = ZINC24008324
REMARK  6 active torsions:
REMARK  status: ('A' for Active; 'I' for Inactive)
REMARK    1  A    between atoms: C_1  and  C_2
REMARK    2  A    between atoms: C_5  and  S_21
REMARK    3  A    between atoms: C_7  and  C_8
REMARK    4  A    between atoms: N_10  and  C_11
REMARK    5  A    between atoms: S_21  and  N_24
REMARK    6  A    between atoms: C_29  and  C_31
REMARK                            x       y       z     vdW  Elec       q    Type
REMARK                         _______ _______ _______ _____ _____    ______ ____
ROOT
ATOM      1  C   UNL     1      -5.993   1.251   0.023  0.00  0.00    +0.044 C 
ATOM      2  C   UNL     1      -6.280  -0.223   0.156  0.00  0.00    -0.038 A 
ATOM      3  C   UNL     1      -7.583  -0.667   0.259  0.00  0.00    +0.006 A 
ATOM      4  C   UNL     1      -7.848  -2.019   0.381  0.00  0.00    +0.029 A 
ATOM      5  C   UNL     1      -6.811  -2.935   0.400  0.00  0.00    +0.106 A 
ATOM      6  C   UNL     1      -5.505  -2.505   0.291  0.00  0.00    +0.041 A 
ATOM      7  C   UNL     1      -5.230  -1.141   0.174  0.00  0.00    +0.042 A 
ENDROOT
BRANCH   7   8
ATOM      8  C   UNL     1      -3.832  -0.673   0.064  0.00  0.00    +0.249 C 
ATOM      9  O   UNL     1      -3.593   0.518   0.011  0.00  0.00    -0.270 OA
ATOM     10  N   UNL     1      -2.823  -1.566   0.023  0.00  0.00    -0.281 N 
ATOM     11  H   UNL     1      -3.043  -2.643   0.007  0.00  0.00    +0.155 HD
BRANCH  10  12
ATOM     12  C   UNL     1      -1.496  -1.121   0.001  0.00  0.00    +0.037 A 
ATOM     13  C   UNL     1      -1.163   0.041  -0.683  0.00  0.00    +0.027 A 
ATOM     14  C   UNL     1       0.147   0.477  -0.708  0.00  0.00    +0.051 A 
ATOM     15  C   UNL     1       1.133  -0.239  -0.046  0.00  0.00    +0.162 A 
ATOM     16  C   UNL     1       0.803  -1.402   0.641  0.00  0.00    +0.164 A 
ATOM     17  C   UNL     1      -0.511  -1.842   0.663  0.00  0.00    +0.072 A 
ATOM     18  O   UNL     1       1.757  -2.118   1.298  0.00  0.00    -0.485 OA
ATOM     19  C   UNL     1       3.118  -1.854   0.942  0.00  0.00    +0.270 C 
ATOM     20  C   UNL     1       3.316  -0.333   0.895  0.00  0.00    +0.270 C 
ATOM     21  O   UNL     1       2.420   0.206  -0.083  0.00  0.00    -0.485 OA
ENDBRANCH  10  12
ENDBRANCH   7   8
BRANCH   5  22
ATOM     22  S   UNL     1      -7.160  -4.655   0.555  0.00  0.00    +0.061 S 
ATOM     23  O   UNL     1      -5.993  -5.259   1.096  0.00  0.00    -0.153 OA
ATOM     24  O   UNL     1      -8.431  -4.756   1.183  0.00  0.00    -0.153 OA
BRANCH  22  25
ATOM     25  N   UNL     1      -7.339  -5.258  -0.977  0.00  0.00    -0.174 NA
ATOM     26  C   UNL     1      -8.676  -5.425  -1.564  0.00  0.00    +0.110 C 
ATOM     27  C   UNL     1      -8.830  -6.865  -2.050  0.00  0.00    +0.017 C 
ATOM     28  C   UNL     1      -7.678  -7.206  -2.999  0.00  0.00    +0.003 C 
ATOM     29  C   UNL     1      -6.348  -7.086  -2.253  0.00  0.00    +0.020 C 
ATOM     30  C   UNL     1      -6.165  -5.644  -1.772  0.00  0.00    +0.077 C 
ATOM     31  C   UNL     1      -4.907  -5.547  -0.907  0.00  0.00    +0.026 C 
ENDBRANCH  22  25
ENDBRANCH   5  22
TORSDOF 4
