REMARK  Name = ZINC39016225
REMARK  9 active torsions:
REMARK  status: ('A' for Active; 'I' for Inactive)
REMARK    1  A    between atoms: C_1  and  C_2
REMARK    2  A    between atoms: C_6  and  N_9
REMARK    3  A    between atoms: C_7  and  C_8
REMARK    4  A    between atoms: C_10  and  C_12
REMARK    5  A    between atoms: C_12  and  S_13
REMARK    6  A    between atoms: S_13  and  C_14
REMARK    7  A    between atoms: C_18  and  C_22
REMARK    8  A    between atoms: N_20  and  N_21
REMARK    9  A    between atoms: C_25  and  C_28
REMARK                            x       y       z     vdW  Elec       q    Type
REMARK                         _______ _______ _______ _____ _____    ______ ____
ROOT
ATOM      1  C   UNL     1       0.597  -7.074   5.128  0.00  0.00    +0.214 C 
ATOM      2  N   UNL     1       1.886  -6.582   5.681  0.00  0.00    -0.228 NA
ATOM      3  N   UNL     1       1.661  -6.621   7.135  0.00  0.00    -0.234 NA
ATOM      4  C   UNL     1       0.251  -6.199   7.302  0.00  0.00    +0.185 C 
ATOM      5  N   UNL     1      -0.431  -6.492   6.022  0.00  0.00    -0.197 NA
ATOM      6  H   UNL     1       2.078  -5.642   5.370  0.00  0.00    +0.143 HD
ATOM      7  H   UNL     1       1.805  -7.551   7.499  0.00  0.00    +0.143 HD
ENDROOT
BRANCH   4   8
ATOM      8  C   UNL     1      -0.402  -6.991   8.436  0.00  0.00    +0.187 C 
ATOM      9  C   UNL     1       0.267  -6.680   9.763  0.00  0.00    +0.034 C 
ATOM     10  C   UNL     1       0.765  -7.867  10.159  0.00  0.00    +0.091 C 
ATOM     11  N   UNL     1       0.478  -8.831   9.246  0.00  0.00    -0.154 NA
ATOM     12  N   UNL     1      -0.164  -8.434   8.266  0.00  0.00    -0.176 NA
BRANCH  10  13
ATOM     13  C   UNL     1       1.520  -8.090  11.417  0.00  0.00    +0.002 A 
ATOM     14  C   UNL     1       1.755  -7.029  12.289  0.00  0.00    +0.011 A 
ATOM     15  C   UNL     1       2.458  -7.242  13.457  0.00  0.00    +0.020 A 
ATOM     16  C   UNL     1       2.930  -8.507  13.763  0.00  0.00    +0.041 A 
ATOM     17  C   UNL     1       2.699  -9.564  12.900  0.00  0.00    +0.020 A 
ATOM     18  C   UNL     1       1.992  -9.363  11.732  0.00  0.00    +0.011 A 
ATOM     19 CL   UNL     1       3.815  -8.768  15.234  0.00  0.00    -0.084 Cl
ENDBRANCH  10  13
ENDBRANCH   4   8
BRANCH   5  20
ATOM     20  N   UNL     1      -0.998  -5.283   5.446  0.00  0.00    -0.264 NA
ATOM     21  H   UNL     1      -1.504  -5.490   4.597  0.00  0.00    +0.137 HD
ATOM     22  H   UNL     1      -1.588  -4.807   6.112  0.00  0.00    +0.137 HD
ENDBRANCH   5  20
BRANCH   1  23
ATOM     23  S   UNL     1       0.369  -6.484   3.428  0.00  0.00    -0.115 S 
BRANCH  23  24
ATOM     24  C   UNL     1       1.478  -7.532   2.447  0.00  0.00    +0.168 C 
BRANCH  24  26
ATOM     25  N   UNL     1       2.234  -7.696   0.098  0.00  0.00    -0.285 N 
ATOM     26  C   UNL     1       1.478  -7.062   1.016  0.00  0.00    +0.227 C 
ATOM     27  O   UNL     1       0.796  -6.113   0.689  0.00  0.00    -0.275 OA
ATOM     28  H   UNL     1       2.714  -8.504   0.339  0.00  0.00    +0.155 HD
BRANCH  25  34
ATOM     29  C   UNL     1       3.078  -8.445  -4.687  0.00  0.00    +0.044 C 
ATOM     30  C   UNL     1       2.737  -7.529  -3.541  0.00  0.00    -0.046 A 
ATOM     31  C   UNL     1       2.516  -6.183  -3.774  0.00  0.00    +0.004 A 
ATOM     32  C   UNL     1       2.203  -5.339  -2.725  0.00  0.00    +0.002 A 
ATOM     33  C   UNL     1       2.108  -5.837  -1.440  0.00  0.00    +0.023 A 
ATOM     34  C   UNL     1       2.329  -7.188  -1.202  0.00  0.00    +0.037 A 
ATOM     35  C   UNL     1       2.639  -8.034  -2.259  0.00  0.00    -0.026 A 
ATOM     36  C   UNL     1       2.873  -9.501  -2.007  0.00  0.00    +0.046 C 
ENDBRANCH  25  34
ENDBRANCH  24  26
ENDBRANCH  23  24
ENDBRANCH   1  23
TORSDOF 7
