REMARK  Name = ZINC04098556
REMARK  12 active torsions:
REMARK  status: ('A' for Active; 'I' for Inactive)
REMARK    1  A    between atoms: C_1  and  C_2
REMARK    2  A    between atoms: C_4  and  O_38
REMARK    3  A    between atoms: C_6  and  O_37
REMARK    4  A    between atoms: C_8  and  O_36
REMARK    5  A    between atoms: C_10  and  O_13
REMARK    6  A    between atoms: O_13  and  C_14
REMARK    7  A    between atoms: C_18  and  O_35
REMARK    8  A    between atoms: C_20  and  O_34
REMARK    9  A    between atoms: C_24  and  C_25
REMARK   10  A    between atoms: C_27  and  O_33
REMARK   11  A    between atoms: C_28  and  O_32
REMARK   12  A    between atoms: C_29  and  O_31
REMARK                            x       y       z     vdW  Elec       q    Type
REMARK                         _______ _______ _______ _____ _____    ______ ____
ROOT
ATOM      1  C   UNL     1      -0.771  -2.048   2.735  0.00  0.00    +0.214 A 
ATOM      2  C   UNL     1      -1.987  -2.558   3.260  0.00  0.00    +0.238 A 
ATOM      3  O   UNL     1      -2.530  -3.535   2.768  0.00  0.00    -0.283 OA
ATOM      4  C   UNL     1      -2.568  -1.863   4.420  0.00  0.00    +0.109 A 
ATOM      5  C   UNL     1      -3.766  -2.299   5.002  0.00  0.00    +0.135 A 
ATOM      6  C   UNL     1      -4.280  -1.620   6.091  0.00  0.00    +0.091 A 
ATOM      7  C   UNL     1      -3.611  -0.513   6.603  0.00  0.00    +0.124 A 
ATOM      8  C   UNL     1      -2.426  -0.076   6.032  0.00  0.00    +0.092 A 
ATOM      9  C   UNL     1      -1.895  -0.744   4.939  0.00  0.00    +0.147 A 
ATOM     10  O   UNL     1      -0.742  -0.332   4.372  0.00  0.00    -0.451 OA
ATOM     11  C   UNL     1      -0.196  -0.958   3.316  0.00  0.00    +0.181 A 
ENDROOT
BRANCH  11  12
ATOM     12  C   UNL     1       1.071  -0.445   2.763  0.00  0.00    +0.028 A 
ATOM     13  C   UNL     1       1.201  -0.239   1.387  0.00  0.00    +0.061 A 
ATOM     14  C   UNL     1       2.390   0.243   0.871  0.00  0.00    +0.163 A 
ATOM     15  C   UNL     1       3.457   0.523   1.720  0.00  0.00    +0.201 A 
ATOM     16  C   UNL     1       3.330   0.319   3.092  0.00  0.00    +0.163 A 
ATOM     17  C   UNL     1       2.142  -0.157   3.614  0.00  0.00    +0.061 A 
BRANCH  16  18
ATOM     18  O   UNL     1       4.374   0.593   3.919  0.00  0.00    -0.503 OA
ATOM     19  H   UNL     1       4.382   1.500   4.254  0.00  0.00    +0.292 HD
ENDBRANCH  16  18
BRANCH  15  20
ATOM     20  O   UNL     1       4.625   0.997   1.210  0.00  0.00    -0.501 OA
ATOM     21  H   UNL     1       4.669   1.961   1.158  0.00  0.00    +0.292 HD
ENDBRANCH  15  20
BRANCH  14  22
ATOM     22  O   UNL     1       2.518   0.443  -0.468  0.00  0.00    -0.503 OA
ATOM     23  H   UNL     1       2.308   1.342  -0.754  0.00  0.00    +0.292 HD
ENDBRANCH  14  22
ENDBRANCH  11  12
BRANCH   7  24
ATOM     24  O   UNL     1      -4.125   0.147   7.672  0.00  0.00    -0.507 OA
ATOM     25  H   UNL     1      -3.819  -0.188   8.526  0.00  0.00    +0.292 HD
ENDBRANCH   7  24
BRANCH   5  26
ATOM     26  O   UNL     1      -4.417  -3.379   4.500  0.00  0.00    -0.506 OA
ATOM     27  H   UNL     1      -4.150  -4.219   4.898  0.00  0.00    +0.292 HD
ENDBRANCH   5  26
BRANCH   1  28
ATOM     28  O   UNL     1      -0.183  -2.645   1.663  0.00  0.00    -0.453 OA
BRANCH  28  34
ATOM     29  C   UNL     1       3.699  -3.394   3.071  0.00  0.00    +0.041 C 
ATOM     30  C   UNL     1       2.513  -3.301   2.109  0.00  0.00    +0.150 C 
ATOM     31  C   UNL     1       2.911  -3.881   0.749  0.00  0.00    +0.174 C 
ATOM     32  C   UNL     1       1.701  -3.840  -0.189  0.00  0.00    +0.180 C 
ATOM     33  C   UNL     1       0.543  -4.609   0.455  0.00  0.00    +0.214 C 
ATOM     34  C   UNL     1       0.236  -4.002   1.826  0.00  0.00    +0.339 C 
ATOM     35  O   UNL     1       1.412  -4.043   2.638  0.00  0.00    -0.334 OA
BRANCH  33  36
ATOM     36  O   UNL     1       0.910  -5.981   0.611  0.00  0.00    -0.383 OA
ATOM     37  H   UNL     1       0.196  -6.545   0.938  0.00  0.00    +0.210 HD
ENDBRANCH  33  36
BRANCH  32  38
ATOM     38  O   UNL     1       2.043  -4.444  -1.438  0.00  0.00    -0.386 OA
ATOM     39  H   UNL     1       1.321  -4.452  -2.081  0.00  0.00    +0.210 HD
ENDBRANCH  32  38
BRANCH  31  40
ATOM     40  O   UNL     1       3.974  -3.106   0.193  0.00  0.00    -0.387 OA
ATOM     41  H   UNL     1       4.773  -3.084   0.738  0.00  0.00    +0.210 HD
ENDBRANCH  31  40
ENDBRANCH  28  34
ENDBRANCH   1  28
TORSDOF 11
