REMARK  Name = ZINC16037145
REMARK  3 active torsions:
REMARK  status: ('A' for Active; 'I' for Inactive)
REMARK    1  A    between atoms: C_4  and  C_7
REMARK    2  A    between atoms: C_7  and  C_9
REMARK    3  A    between atoms: N_28  and  C_31
REMARK                            x       y       z     vdW  Elec       q    Type
REMARK                         _______ _______ _______ _____ _____    ______ ____
ROOT
ATOM      1  C   UNL     1       4.026  -2.286  -0.112  0.00  0.00    +0.177 C 
ATOM      2  C   UNL     1       3.489  -2.656   1.277  0.00  0.00    +0.119 C 
ATOM      3  C   UNL     1       4.207  -3.997   1.623  0.00  0.00    +0.116 C 
ATOM      4  C   UNL     1       5.495  -3.942   0.792  0.00  0.00    +0.136 C 
ATOM      5  N   UNL     1       5.284  -2.997  -0.310  0.00  0.00    -0.236 N 
ATOM      6  N   UNL     1       6.164  -2.913  -1.403  0.00  0.00    -0.191 NA
ATOM      7  C   UNL     1       6.742  -4.025  -1.776  0.00  0.00    +0.138 C 
ATOM      8  C   UNL     1       6.438  -5.286  -1.072  0.00  0.00    -0.000 A 
ATOM      9  C   UNL     1       5.822  -5.287   0.195  0.00  0.00    -0.016 A 
ATOM     10  C   UNL     1       5.559  -6.452   0.875  0.00  0.00    +0.006 A 
ATOM     11  C   UNL     1       5.866  -7.674   0.297  0.00  0.00    +0.000 A 
ATOM     12  C   UNL     1       6.438  -7.725  -0.961  0.00  0.00    +0.001 A 
ATOM     13  C   UNL     1       6.746  -6.513  -1.663  0.00  0.00    +0.010 A 
ATOM     14  C   UNL     1       4.548  -3.783   3.090  0.00  0.00    +0.232 C 
ATOM     15  O   UNL     1       4.798  -4.655   3.894  0.00  0.00    -0.274 OA
ATOM     16  N   UNL     1       4.526  -2.465   3.340  0.00  0.00    -0.210 N 
ATOM     17  C   UNL     1       4.034  -1.710   2.326  0.00  0.00    +0.232 C 
ATOM     18  O   UNL     1       4.035  -0.500   2.259  0.00  0.00    -0.274 OA
ENDROOT
BRANCH  16  19
ATOM     19  C   UNL     1       4.963  -1.912   4.552  0.00  0.00    +0.047 A 
ATOM     20  C   UNL     1       4.786  -0.558   4.802  0.00  0.00    +0.044 A 
ATOM     21  C   UNL     1       5.218  -0.015   5.998  0.00  0.00    +0.044 A 
ATOM     22  C   UNL     1       5.826  -0.820   6.945  0.00  0.00    +0.040 A 
ATOM     23  C   UNL     1       6.003  -2.170   6.698  0.00  0.00    +0.044 A 
ATOM     24  C   UNL     1       5.568  -2.719   5.506  0.00  0.00    +0.044 A 
ATOM     25 CL   UNL     1       6.767  -3.176   7.888  0.00  0.00    -0.083 Cl
ATOM     26 CL   UNL     1       4.997   1.678   6.311  0.00  0.00    -0.083 Cl
ENDBRANCH  16  19
BRANCH   1  27
ATOM     27  C   UNL     1       4.262  -0.800  -0.189  0.00  0.00    +0.186 C 
ATOM     28  O   UNL     1       5.392  -0.362  -0.144  0.00  0.00    -0.290 OA
BRANCH  27  32
ATOM     29  C   UNL     1       0.974   1.854  -0.564  0.00  0.00    +0.000 A 
ATOM     30  C   UNL     1       2.262   2.357  -0.512  0.00  0.00    +0.001 A 
ATOM     31  C   UNL     1       3.336   1.501  -0.390  0.00  0.00    +0.011 A 
ATOM     32  C   UNL     1       3.121   0.121  -0.319  0.00  0.00    +0.019 A 
ATOM     33  C   UNL     1       1.816  -0.380  -0.371  0.00  0.00    +0.011 A 
ATOM     34  C   UNL     1       0.753   0.489  -0.494  0.00  0.00    +0.001 A 
ENDBRANCH  27  32
ENDBRANCH   1  27
TORSDOF 3
