REMARK  Name = ZINC20680714
REMARK  4 active torsions:
REMARK  status: ('A' for Active; 'I' for Inactive)
REMARK    1  A    between atoms: C_1  and  N_2
REMARK    2  A    between atoms: N_5  and  S_8
REMARK    3  A    between atoms: S_8  and  C_11
REMARK    4  A    between atoms: C_24  and  C_27
REMARK                            x       y       z     vdW  Elec       q    Type
REMARK                         _______ _______ _______ _____ _____    ______ ____
ROOT
ATOM      1  C   UNL     1       0.505   2.583  -0.164  0.00  0.00    +0.106 A 
ATOM      2  C   UNL     1       0.168   1.242  -0.193  0.00  0.00    +0.030 A 
ATOM      3  C   UNL     1       1.164   0.286  -0.168  0.00  0.00    +0.025 A 
ATOM      4  C   UNL     1       2.497   0.672  -0.116  0.00  0.00    +0.031 A 
ATOM      5  C   UNL     1       2.840   2.015  -0.089  0.00  0.00    -0.018 A 
ATOM      6  C   UNL     1       1.829   2.967  -0.113  0.00  0.00    +0.034 A 
ATOM      7  C   UNL     1       4.261   2.478  -0.036  0.00  0.00    +0.049 C 
ATOM      8  C   UNL     1       4.626   2.980   1.340  0.00  0.00    -0.023 C 
ATOM      9  C   UNL     1       5.865   2.661   1.625  0.00  0.00    -0.030 C 
ATOM     10  C   UNL     1       6.498   1.906   0.473  0.00  0.00    +0.033 C 
ATOM     11  C   UNL     1       5.272   1.347  -0.308  0.00  0.00    +0.029 C 
ATOM     12  C   UNL     1       4.825   0.066   0.401  0.00  0.00    +0.105 C 
ATOM     13  N   UNL     1       3.494  -0.309  -0.088  0.00  0.00    -0.336 N 
ATOM     14  H   UNL     1       3.301  -1.339  -0.422  0.00  0.00    +0.147 HD
ENDROOT
BRANCH  12  15
ATOM     15  C   UNL     1       4.768   0.306   1.887  0.00  0.00    -0.027 A 
ATOM     16  C   UNL     1       5.879   0.058   2.671  0.00  0.00    +0.006 A 
ATOM     17  C   UNL     1       5.828   0.282   4.034  0.00  0.00    +0.015 A 
ATOM     18  C   UNL     1       4.661   0.745   4.615  0.00  0.00    +0.018 A 
ATOM     19  C   UNL     1       3.548   0.988   3.832  0.00  0.00    +0.015 A 
ATOM     20  C   UNL     1       3.601   0.768   2.468  0.00  0.00    +0.006 A 
ATOM     21 BR   UNL     1       4.589   1.046   6.481  0.00  0.00    -0.050 Br
ENDBRANCH  12  15
BRANCH   1  22
ATOM     22  S   UNL     1      -0.762   3.807  -0.201  0.00  0.00    +0.061 S 
ATOM     23  O   UNL     1      -0.169   4.991  -0.716  0.00  0.00    -0.153 OA
ATOM     24  O   UNL     1      -1.896   3.199  -0.804  0.00  0.00    -0.153 OA
BRANCH  22  29
ATOM     25  C   UNL     1      -0.787   3.550   5.508  0.00  0.00    -0.096 C 
ATOM     26  N   UNL     1      -1.159   3.975   4.152  0.00  0.00    +0.380 N 
ATOM     27  C   UNL     1      -0.019   4.595   3.463  0.00  0.00    -0.062 C 
ATOM     28  C   UNL     1      -0.491   5.185   2.130  0.00  0.00    +0.091 C 
ATOM     29  N   UNL     1      -1.177   4.130   1.369  0.00  0.00    -0.180 NA
ATOM     30  C   UNL     1      -2.246   3.373   2.038  0.00  0.00    +0.091 C 
ATOM     31  C   UNL     1      -1.701   2.850   3.377  0.00  0.00    -0.062 C 
ATOM     32  H   UNL     1      -1.950   4.734   4.238  0.00  0.00    -0.082 HD
ENDBRANCH  22  29
ENDBRANCH   1  22
TORSDOF 3
