REMARK  Name = ZINC36167386
REMARK  4 active torsions:
REMARK  status: ('A' for Active; 'I' for Inactive)
REMARK    1  A    between atoms: C_3  and  C_9
REMARK    2  A    between atoms: C_5  and  C_7
REMARK    3  A    between atoms: C_9  and  N_10
REMARK    4  A    between atoms: C_24  and  C_26
REMARK                            x       y       z     vdW  Elec       q    Type
REMARK                         _______ _______ _______ _____ _____    ______ ____
ROOT
ATOM      1  N   UNL     1       4.066   2.501   1.376  0.00  0.00    -0.264 N 
ATOM      2  C   UNL     1       3.716   3.611   2.150  0.00  0.00    +0.043 A 
ATOM      3  C   UNL     1       2.914   4.710   1.853  0.00  0.00    +0.025 A 
ATOM      4  C   UNL     1       2.710   5.697   2.795  0.00  0.00    +0.022 A 
ATOM      5  C   UNL     1       3.302   5.604   4.042  0.00  0.00    +0.041 A 
ATOM      6  C   UNL     1       4.102   4.515   4.346  0.00  0.00    +0.029 A 
ATOM      7  C   UNL     1       4.307   3.528   3.408  0.00  0.00    +0.018 A 
ATOM      8  C   UNL     1       5.092   2.251   3.401  0.00  0.00    +0.188 C 
ATOM      9  C   UNL     1       4.871   1.650   2.044  0.00  0.00    +0.259 C 
ATOM     10  O   UNL     1       5.327   0.606   1.630  0.00  0.00    -0.272 OA
ATOM     11  N   UNL     1       4.720   1.346   4.487  0.00  0.00    -0.268 N 
ATOM     12  C   UNL     1       5.756   1.098   5.491  0.00  0.00    +0.121 C 
ATOM     13  C   UNL     1       7.176   1.177   4.854  0.00  0.00    +0.091 C 
ATOM     14  S   UNL     1       6.874   2.581   3.686  0.00  0.00    -0.120 S 
ATOM     15  C   UNL     1       3.501   0.776   4.559  0.00  0.00    +0.284 C 
ATOM     16  O   UNL     1       2.644   1.067   3.744  0.00  0.00    -0.267 OA
ATOM     17 CL   UNL     1       3.043   6.849   5.224  0.00  0.00    -0.084 Cl
ENDROOT
BRANCH  15  18
ATOM     18  C   UNL     1       3.206  -0.194   5.619  0.00  0.00    +0.189 A 
ATOM     19  C   UNL     1       2.062  -0.929   5.737  0.00  0.00    +0.054 A 
ATOM     20  C   UNL     1       2.208  -1.720   6.888  0.00  0.00    +0.042 A 
ATOM     21  C   UNL     1       3.420  -1.436   7.414  0.00  0.00    +0.196 A 
ATOM     22  O   UNL     1       4.020  -0.519   6.644  0.00  0.00    -0.458 OA
ENDBRANCH  15  18
BRANCH   1  23
ATOM     23  C   UNL     1       3.608   2.285   0.002  0.00  0.00    +0.149 C 
BRANCH  23  26
ATOM     24  C   UNL     1      -0.088   1.500   0.084  0.00  0.00    +0.002 A 
ATOM     25  C   UNL     1       1.108   2.197   0.068  0.00  0.00    +0.005 A 
ATOM     26  C   UNL     1       2.312   1.517   0.019  0.00  0.00    -0.028 A 
ATOM     27  C   UNL     1       2.328   0.138  -0.014  0.00  0.00    +0.024 A 
ATOM     28  C   UNL     1       1.125  -0.571   0.002  0.00  0.00    +0.052 A 
ATOM     29  C   UNL     1      -0.086   0.121   0.051  0.00  0.00    +0.019 A 
BRANCH  28  30
ATOM     30  C   UNL     1       1.135  -2.003  -0.033  0.00  0.00    +0.099 C 
ATOM     31  N   UNL     1       1.142  -3.139  -0.060  0.00  0.00    -0.191 NA
ENDBRANCH  28  30
ENDBRANCH  23  26
ENDBRANCH   1  23
TORSDOF 4
