REMARK  Name = ZINC16701749
REMARK  5 active torsions:
REMARK  status: ('A' for Active; 'I' for Inactive)
REMARK    1  A    between atoms: C_1  and  C_2
REMARK    2  A    between atoms: C_4  and  N_22
REMARK    3  A    between atoms: C_7  and  S_8
REMARK    4  A    between atoms: S_8  and  N_11
REMARK    5  A    between atoms: C_25  and  C_31
REMARK                            x       y       z     vdW  Elec       q    Type
REMARK                         _______ _______ _______ _____ _____    ______ ____
ROOT
ATOM      1  C   UNL     1       3.661  -0.342  -0.178  0.00  0.00    +0.046 C 
ATOM      2  C   UNL     1       2.283   0.226   0.041  0.00  0.00    -0.022 A 
ATOM      3  C   UNL     1       2.114   1.589   0.191  0.00  0.00    +0.030 A 
ATOM      4  C   UNL     1       0.843   2.111   0.393  0.00  0.00    +0.060 A 
ATOM      5  C   UNL     1      -0.254   1.261   0.443  0.00  0.00    +0.027 A 
ATOM      6  C   UNL     1      -0.079  -0.100   0.292  0.00  0.00    +0.031 A 
ATOM      7  C   UNL     1       1.188  -0.618   0.092  0.00  0.00    +0.112 A 
ENDROOT
BRANCH   4   8
ATOM      8  N   UNL     1       0.668   3.491   0.544  0.00  0.00    -0.144 N 
ATOM      9  C   UNL     1       1.487   4.446   0.079  0.00  0.00    +0.243 C 
ATOM     10  O   UNL     1       2.473   4.158  -0.566  0.00  0.00    -0.273 OA
ATOM     11  C   UNL     1       1.154   5.878   0.370  0.00  0.00    +0.097 C 
ATOM     12  C   UNL     1      -0.343   5.970   0.767  0.00  0.00    +0.201 C 
ATOM     13  S   UNL     1      -0.596   4.242   1.345  0.00  0.00    +0.053 S 
ATOM     14  O   UNL     1      -1.783   3.690   0.793  0.00  0.00    -0.155 OA
ATOM     15  O   UNL     1      -0.299   4.122   2.730  0.00  0.00    -0.155 OA
ATOM     16  C   UNL     1       2.024   6.380   1.524  0.00  0.00    +0.019 C 
ENDBRANCH   4   8
BRANCH   7  17
ATOM     17  S   UNL     1       1.408  -2.355  -0.099  0.00  0.00    +0.074 S 
ATOM     18  O   UNL     1       0.122  -2.945   0.036  0.00  0.00    -0.150 OA
ATOM     19  O   UNL     1       2.212  -2.538  -1.256  0.00  0.00    -0.150 OA
BRANCH  17  20
ATOM     20  N   UNL     1       2.307  -2.880   1.189  0.00  0.00    -0.194 N 
ATOM     21  C   UNL     1       1.795  -2.793   2.468  0.00  0.00    +0.179 A 
ATOM     22  N   UNL     1       2.382  -3.069   3.610  0.00  0.00    -0.224 NA
ATOM     23  C   UNL     1       1.754  -2.937   4.800  0.00  0.00    +0.080 A 
ATOM     24  C   UNL     1       2.266  -3.198   6.091  0.00  0.00    +0.030 A 
ATOM     25  C   UNL     1       1.489  -3.010   7.204  0.00  0.00    +0.022 A 
ATOM     26  C   UNL     1       0.179  -2.560   7.107  0.00  0.00    +0.042 A 
ATOM     27  C   UNL     1      -0.354  -2.294   5.858  0.00  0.00    +0.037 A 
ATOM     28  C   UNL     1       0.418  -2.480   4.738  0.00  0.00    +0.042 A 
ATOM     29  S   UNL     1       0.169  -2.269   2.992  0.00  0.00    -0.051 S 
ATOM     30 CL   UNL     1      -0.778  -2.332   8.537  0.00  0.00    -0.084 Cl
ATOM     31  H   UNL     1       3.193  -3.248   1.045  0.00  0.00    +0.176 HD
ENDBRANCH  17  20
ENDBRANCH   7  17
TORSDOF 3
