REMARK  Name = ZINC22938358
REMARK  7 active torsions:
REMARK  status: ('A' for Active; 'I' for Inactive)
REMARK    1  A    between atoms: C_1  and  N_2
REMARK    2  A    between atoms: N_5  and  C_8
REMARK    3  A    between atoms: C_8  and  C_10
REMARK    4  A    between atoms: C_8  and  C_26
REMARK    5  A    between atoms: C_10  and  N_11
REMARK    6  A    between atoms: C_12  and  C_14
REMARK    7  A    between atoms: C_16  and  C_19
REMARK                            x       y       z     vdW  Elec       q    Type
REMARK                         _______ _______ _______ _____ _____    ______ ____
ROOT
ATOM      1  N   UNL     1       3.581  -3.497   1.073  0.00  0.00    -0.308 N 
ATOM      2  C   UNL     1       4.485  -3.529   2.072  0.00  0.00    +0.266 C 
ATOM      3  O   UNL     1       4.226  -4.108   3.108  0.00  0.00    -0.268 OA
ATOM      4  H   UNL     1       3.789  -3.035   0.246  0.00  0.00    +0.149 HD
ENDROOT
BRANCH   2   5
ATOM      5  C   UNL     1       5.798  -2.857   1.907  0.00  0.00    +0.168 A 
ATOM      6  C   UNL     1       6.835  -2.817   2.863  0.00  0.00    +0.086 A 
ATOM      7  C   UNL     1       7.867  -2.108   2.331  0.00  0.00    +0.168 A 
ATOM      8  O   UNL     1       7.506  -1.715   1.095  0.00  0.00    -0.354 OA
ATOM      9  N   UNL     1       6.200  -2.202   0.843  0.00  0.00    -0.073 NA
BRANCH   7  10
ATOM     10  C   UNL     1       9.156  -1.819   2.993  0.00  0.00    +0.020 A 
ATOM     11  C   UNL     1       9.404  -2.293   4.282  0.00  0.00    +0.013 A 
ATOM     12  C   UNL     1      10.609  -2.020   4.895  0.00  0.00    +0.016 A 
ATOM     13  C   UNL     1      11.572  -1.277   4.234  0.00  0.00    +0.018 A 
ATOM     14  C   UNL     1      11.333  -0.804   2.955  0.00  0.00    +0.016 A 
ATOM     15  C   UNL     1      10.134  -1.076   2.329  0.00  0.00    +0.013 A 
ATOM     16 BR   UNL     1      13.221  -0.906   5.081  0.00  0.00    -0.050 Br
ENDBRANCH   7  10
ENDBRANCH   2   5
BRANCH   1  17
ATOM     17  C   UNL     1       2.285  -4.160   1.237  0.00  0.00    +0.131 C 
BRANCH  17  18
ATOM     18  C   UNL     1       1.453  -3.974  -0.034  0.00  0.00    +0.140 C 
BRANCH  18  23
ATOM     19  C   UNL     1      -0.140   1.332  -1.063  0.00  0.00    -0.096 C 
ATOM     20  N   UNL     1      -0.085  -0.102  -0.749  0.00  0.00    +0.379 N 
ATOM     21  C   UNL     1       0.509  -0.829  -1.879  0.00  0.00    -0.064 C 
ATOM     22  C   UNL     1       0.548  -2.325  -1.559  0.00  0.00    +0.066 C 
ATOM     23  N   UNL     1       1.344  -2.542  -0.343  0.00  0.00    -0.295 NA
ATOM     24  C   UNL     1       0.776  -1.801   0.792  0.00  0.00    +0.066 C 
ATOM     25  C   UNL     1       0.734  -0.309   0.453  0.00  0.00    -0.064 C 
ATOM     26  H   UNL     1      -1.019  -0.446  -0.582  0.00  0.00    -0.082 HD
ENDBRANCH  18  23
BRANCH  18  27
ATOM     27  C   UNL     1       0.076  -4.549   0.178  0.00  0.00    +0.123 A 
ATOM     28  C   UNL     1      -0.398  -5.679  -0.375  0.00  0.00    +0.046 A 
ATOM     29  C   UNL     1      -1.722  -5.840   0.093  0.00  0.00    +0.041 A 
ATOM     30  C   UNL     1      -1.978  -4.798   0.904  0.00  0.00    +0.195 A 
ATOM     31  O   UNL     1      -0.883  -4.022   0.957  0.00  0.00    -0.466 OA
ENDBRANCH  18  27
ENDBRANCH  17  18
ENDBRANCH   1  17
TORSDOF 6
