REMARK  Name = ZINC35124915
REMARK  6 active torsions:
REMARK  status: ('A' for Active; 'I' for Inactive)
REMARK    1  A    between atoms: C_1  and  C_2
REMARK    2  A    between atoms: C_2  and  C_3
REMARK    3  A    between atoms: C_6  and  C_9
REMARK    4  A    between atoms: N_16  and  C_22
REMARK    5  A    between atoms: C_25  and  N_28
REMARK    6  A    between atoms: C_29  and  C_31
REMARK                            x       y       z     vdW  Elec       q    Type
REMARK                         _______ _______ _______ _____ _____    ______ ____
ROOT
ATOM      1  C   UNL     1       2.757  -1.860   4.663  0.00  0.00    +0.247 C 
ATOM      2  O   UNL     1       3.942  -2.124   4.595  0.00  0.00    -0.270 OA
ATOM      3  N   UNL     1       2.099  -2.011   5.829  0.00  0.00    -0.296 N 
ATOM      4  C   UNL     1       0.650  -1.787   5.878  0.00  0.00    +0.114 C 
ATOM      5  C   UNL     1       0.332  -0.701   6.922  0.00  0.00    +0.072 C 
ATOM      6  C   UNL     1       1.144  -1.034   8.151  0.00  0.00    +0.052 C 
ATOM      7  N   UNL     1       0.791  -1.172   9.355  0.00  0.00    -0.181 NA
ATOM      8  N   UNL     1       1.833  -1.592  10.182  0.00  0.00    -0.160 N 
ATOM      9  C   UNL     1       2.973  -1.771   9.475  0.00  0.00    +0.249 C 
ATOM     10  O   UNL     1       4.028  -2.217   9.874  0.00  0.00    -0.273 OA
ATOM     11  C   UNL     1       2.644  -1.294   8.082  0.00  0.00    +0.140 C 
ATOM     12  C   UNL     1       2.841  -2.405   7.037  0.00  0.00    +0.127 C 
ENDROOT
BRANCH   1  16
ATOM     13  C   UNL     1       0.692  -0.460   1.225  0.00  0.00    -0.048 A 
ATOM     14  C   UNL     1       0.147  -1.476   1.990  0.00  0.00    +0.004 A 
ATOM     15  C   UNL     1       0.812  -1.935   3.107  0.00  0.00    +0.013 A 
ATOM     16  C   UNL     1       2.038  -1.373   3.466  0.00  0.00    +0.037 A 
ATOM     17  C   UNL     1       2.583  -0.348   2.690  0.00  0.00    +0.013 A 
ATOM     18  C   UNL     1       1.909   0.098   1.572  0.00  0.00    +0.004 A 
BRANCH  13  20
ATOM     19  C   UNL     1       0.391  -0.777  -1.216  0.00  0.00    +0.009 C 
ATOM     20  C   UNL     1      -0.041   0.037   0.006  0.00  0.00    +0.032 C 
ENDBRANCH  13  20
ENDBRANCH   1  16
BRANCH   8  21
ATOM     21  C   UNL     1       1.716  -1.800  11.562  0.00  0.00    +0.060 A 
ATOM     22  C   UNL     1       2.818  -2.214  12.299  0.00  0.00    +0.027 A 
ATOM     23  C   UNL     1       2.702  -2.420  13.659  0.00  0.00    +0.025 A 
ATOM     24  C   UNL     1       1.483  -2.213  14.291  0.00  0.00    +0.034 A 
ATOM     25  C   UNL     1       0.380  -1.799  13.554  0.00  0.00    +0.025 A 
ATOM     26  C   UNL     1       0.498  -1.588  12.195  0.00  0.00    +0.027 A 
BRANCH  24  27
ATOM     27  N   UNL     1       1.365  -2.421  15.671  0.00  0.00    -0.285 N 
ATOM     28  C   UNL     1       0.222  -2.919  16.182  0.00  0.00    +0.223 C 
ATOM     29  O   UNL     1      -0.734  -3.107  15.460  0.00  0.00    -0.275 OA
ATOM     30  H   UNL     1       2.107  -2.207  16.258  0.00  0.00    +0.155 HD
BRANCH  28  31
ATOM     31  C   UNL     1       0.131  -3.242  17.651  0.00  0.00    +0.048 C 
ATOM     32  C   UNL     1       0.380  -1.972  18.468  0.00  0.00    +0.019 C 
ATOM     33  C   UNL     1       0.288  -2.300  19.960  0.00  0.00    -0.009 C 
ATOM     34  C   UNL     1      -1.106  -2.846  20.277  0.00  0.00    +0.007 C 
ATOM     35  C   UNL     1      -1.355  -4.115  19.460  0.00  0.00    -0.009 C 
ATOM     36  C   UNL     1      -1.262  -3.788  17.968  0.00  0.00    +0.019 C 
ATOM     37  C   UNL     1      -0.302  -5.167  19.817  0.00  0.00    +0.007 C 
ATOM     38  C   UNL     1       1.092  -4.620  19.500  0.00  0.00    -0.009 C 
ATOM     39  C   UNL     1       1.341  -3.351  20.317  0.00  0.00    +0.007 C 
ATOM     40  C   UNL     1       1.184  -4.293  18.008  0.00  0.00    +0.019 C 
ENDBRANCH  28  31
ENDBRANCH  24  27
ENDBRANCH   8  21
TORSDOF 5
