REMARK  Name = ZINC09320462
REMARK  4 active torsions:
REMARK  status: ('A' for Active; 'I' for Inactive)
REMARK    1  A    between atoms: C_15  and  C_17
REMARK    2  A    between atoms: C_17  and  C_19
REMARK    3  A    between atoms: N_26  and  C_29
REMARK    4  A    between atoms: C_34  and  C_35
REMARK                            x       y       z     vdW  Elec       q    Type
REMARK                         _______ _______ _______ _____ _____    ______ ____
ROOT
ATOM      1  C   UNL     1      -2.398  -0.019   0.025  0.00  0.00    +0.001 A 
ATOM      2  C   UNL     1      -2.406   1.365   0.033  0.00  0.00    +0.000 A 
ATOM      3  C   UNL     1      -1.214   2.071   0.030  0.00  0.00    +0.006 A 
ATOM      4  C   UNL     1      -0.017   1.394   0.010  0.00  0.00    -0.021 A 
ATOM      5  C   UNL     1       0.002  -0.004   0.002  0.00  0.00    -0.019 A 
ATOM      6  C   UNL     1      -1.203  -0.709   0.009  0.00  0.00    +0.008 A 
ATOM      7  C   UNL     1       1.291  -0.717  -0.015  0.00  0.00    +0.022 C 
ATOM      8  C   UNL     1       2.442  -0.066  -0.180  0.00  0.00    +0.054 C 
ATOM      9  C   UNL     1       1.301   2.130   0.001  0.00  0.00    +0.100 C 
ATOM     10  C   UNL     1       1.359   3.101  -1.106  0.00  0.00    +0.113 C 
ATOM     11  C   UNL     1       2.870   3.574  -1.033  0.00  0.00    +0.116 C 
ATOM     12  C   UNL     1       3.541   2.211  -0.867  0.00  0.00    +0.144 C 
ATOM     13  C   UNL     1       2.863   4.234  -2.392  0.00  0.00    +0.232 C 
ATOM     14  O   UNL     1       3.742   4.226  -3.226  0.00  0.00    -0.274 OA
ATOM     15  N   UNL     1       1.636   4.843  -2.468  0.00  0.00    -0.209 N 
ATOM     16  C   UNL     1       0.730   4.309  -1.583  0.00  0.00    +0.232 C 
ATOM     17  O   UNL     1      -0.355   4.752  -1.274  0.00  0.00    -0.274 OA
ATOM     18  N   UNL     1       2.552   1.449  -0.003  0.00  0.00    -0.384 NA
ATOM     19  H   UNL     1       2.912   1.557   0.952  0.00  0.00    +0.127 HD
ENDROOT
BRANCH  15  20
ATOM     20  C   UNL     1       1.340   5.892  -3.350  0.00  0.00    +0.056 A 
ATOM     21  C   UNL     1       0.851   5.617  -4.620  0.00  0.00    +0.024 A 
ATOM     22  C   UNL     1       0.560   6.653  -5.485  0.00  0.00    +0.002 A 
ATOM     23  C   UNL     1       0.755   7.963  -5.088  0.00  0.00    +0.001 A 
ATOM     24  C   UNL     1       1.242   8.240  -3.825  0.00  0.00    +0.014 A 
ATOM     25  C   UNL     1       1.530   7.208  -2.952  0.00  0.00    +0.077 A 
BRANCH  25  26
ATOM     26  C   UNL     1       2.055   7.511  -1.573  0.00  0.00    +0.419 C 
ATOM     27  F   UNL     1       2.161   8.897  -1.408  0.00  0.00    -0.166 F 
ATOM     28  F   UNL     1       1.177   6.994  -0.615  0.00  0.00    -0.166 F 
ATOM     29  F   UNL     1       3.316   6.926  -1.415  0.00  0.00    -0.166 F 
ENDBRANCH  25  26
ENDBRANCH  15  20
BRANCH  12  30
ATOM     30  C   UNL     1       4.045   1.718  -2.198  0.00  0.00    +0.217 C 
ATOM     31  O   UNL     1       3.391   0.918  -2.837  0.00  0.00    -0.287 OA
BRANCH  30  32
ATOM     32  C   UNL     1       5.280   2.184  -2.704  0.00  0.00    +0.172 A 
ATOM     33  C   UNL     1       5.859   1.818  -3.902  0.00  0.00    +0.053 A 
ATOM     34  C   UNL     1       7.068   2.522  -3.992  0.00  0.00    +0.042 A 
ATOM     35  C   UNL     1       7.178   3.272  -2.872  0.00  0.00    +0.196 A 
ATOM     36  O   UNL     1       6.101   3.072  -2.103  0.00  0.00    -0.460 OA
ENDBRANCH  30  32
ENDBRANCH  12  30
TORSDOF 4
