REMARK  Name = ZINC28020060
REMARK  6 active torsions:
REMARK  status: ('A' for Active; 'I' for Inactive)
REMARK    1  A    between atoms: C_1  and  C_2
REMARK    2  A    between atoms: C_2  and  C_4
REMARK    3  A    between atoms: C_2  and  O_11
REMARK    4  A    between atoms: O_11  and  C_12
REMARK    5  A    between atoms: C_12  and  C_14
REMARK    6  A    between atoms: C_16  and  N_22
REMARK                            x       y       z     vdW  Elec       q    Type
REMARK                         _______ _______ _______ _____ _____    ______ ____
ROOT
ATOM      1  C   UNL     1      -0.158  -0.885   2.192  0.00  0.00    +0.360 C 
ATOM      2  O   UNL     1      -1.296  -0.460   2.221  0.00  0.00    -0.243 OA
ENDROOT
BRANCH   1   3
ATOM      3  C   UNL     1       0.393  -1.603   3.362  0.00  0.00    +0.169 A 
ATOM      4  C   UNL     1      -0.399  -1.792   4.491  0.00  0.00    +0.095 A 
ATOM      5  C   UNL     1       0.136  -2.472   5.586  0.00  0.00    +0.067 A 
ATOM      6  C   UNL     1       1.448  -2.935   5.501  0.00  0.00    +0.100 A 
ATOM      7  C   UNL     1       2.173  -2.707   4.342  0.00  0.00    +0.150 A 
ATOM      8  N   UNL     1       1.639  -2.067   3.323  0.00  0.00    -0.226 NA
ATOM      9 CL   UNL     1       3.808  -3.281   4.229  0.00  0.00    -0.060 Cl
ATOM     10 CL   UNL     1       2.166  -3.787   6.832  0.00  0.00    -0.078 Cl
ATOM     11 CL   UNL     1      -2.027  -1.191   4.537  0.00  0.00    -0.079 Cl
BRANCH   5  12
ATOM     12  N   UNL     1      -0.622  -2.683   6.736  0.00  0.00    -0.356 N 
ATOM     13  H   UNL     1      -1.534  -2.355   6.782  0.00  0.00    +0.142 HD
ATOM     14  H   UNL     1      -0.238  -3.157   7.490  0.00  0.00    +0.142 HD
ENDBRANCH   5  12
ENDBRANCH   1   3
BRANCH   1  15
ATOM     15  O   UNL     1       0.601  -0.704   1.094  0.00  0.00    -0.448 OA
BRANCH  15  17
ATOM     16  C   UNL     1       0.272   1.497   0.151  0.00  0.00    +0.062 C 
ATOM     17  C   UNL     1       0.004  -0.002   0.002  0.00  0.00    +0.259 C 
BRANCH  17  18
ATOM     18  C   UNL     1       0.597  -0.491  -1.294  0.00  0.00    +0.256 C 
ATOM     19  O   UNL     1       1.597  -1.177  -1.282  0.00  0.00    -0.272 OA
ATOM     20  N   UNL     1       0.016  -0.167  -2.466  0.00  0.00    -0.298 N 
ATOM     21  C   UNL     1      -1.129   0.740  -2.633  0.00  0.00    +0.108 C 
ATOM     22  C   UNL     1      -1.461   0.786  -4.139  0.00  0.00    +0.020 C 
ATOM     23  C   UNL     1      -0.845  -0.534  -4.672  0.00  0.00    +0.020 C 
ATOM     24  C   UNL     1       0.428  -0.658  -3.794  0.00  0.00    +0.108 C 
ENDBRANCH  17  18
ENDBRANCH  15  17
ENDBRANCH   1  15
TORSDOF 5
