REMARK  Name = ZINC63752370
REMARK  8 active torsions:
REMARK  status: ('A' for Active; 'I' for Inactive)
REMARK    1  A    between atoms: C_1  and  C_2
REMARK    2  A    between atoms: C_5  and  C_8
REMARK    3  A    between atoms: N_10  and  C_11
REMARK    4  A    between atoms: C_14  and  C_38
REMARK    5  A    between atoms: C_19  and  C_21
REMARK    6  A    between atoms: N_26  and  C_29
REMARK    7  A    between atoms: C_32  and  C_35
REMARK    8  A    between atoms: C_35  and  C_37
REMARK                            x       y       z     vdW  Elec       q    Type
REMARK                         _______ _______ _______ _____ _____    ______ ____
ROOT
ATOM      1  C   UNL     1       0.019  -6.287   1.131  0.00  0.00    +0.051 C 
ATOM      2  C   UNL     1       0.019  -7.121   0.026  0.00  0.00    +0.018 A 
ATOM      3  C   UNL     1       0.108  -6.865  -1.363  0.00  0.00    +0.015 A 
ATOM      4  C   UNL     1       0.081  -7.899  -2.240  0.00  0.00    -0.050 A 
ATOM      5  C   UNL     1      -0.034  -9.223  -1.809  0.00  0.00    +0.005 A 
ATOM      6  C   UNL     1      -0.124  -9.542  -0.495  0.00  0.00    +0.026 A 
ATOM      7  C   UNL     1      -0.102  -8.515   0.484  0.00  0.00    +0.045 A 
ATOM      8  N   UNL     1      -0.173  -8.562   1.799  0.00  0.00    -0.369 N 
ATOM      9  C   UNL     1      -0.099  -7.199   2.333  0.00  0.00    +0.211 C 
ATOM     10  C   UNL     1       0.176  -7.613  -3.717  0.00  0.00    +0.044 C 
ATOM     11  H   UNL     1      -0.256  -9.370   2.330  0.00  0.00    +0.161 HD
ENDROOT
BRANCH   9  12
ATOM     12  C   UNL     1       1.111  -7.049   3.219  0.00  0.00    +0.244 C 
ATOM     13  O   UNL     1       2.006  -7.866   3.166  0.00  0.00    -0.273 OA
ATOM     14  N   UNL     1       1.198  -6.008   4.070  0.00  0.00    -0.296 N 
ATOM     15  C   UNL     1       0.118  -5.014   4.149  0.00  0.00    +0.126 C 
ATOM     16  C   UNL     1      -0.355  -4.919   5.605  0.00  0.00    +0.124 C 
ATOM     17  N   UNL     1       0.821  -4.757   6.472  0.00  0.00    -0.327 N 
ATOM     18  C   UNL     1       1.901  -5.751   6.393  0.00  0.00    +0.124 C 
ATOM     19  C   UNL     1       2.371  -5.849   4.941  0.00  0.00    +0.126 C 
BRANCH  17  20
ATOM     20  C   UNL     1       0.911  -3.684   7.349  0.00  0.00    +0.030 A 
ATOM     21  C   UNL     1      -0.171  -2.819   7.501  0.00  0.00    +0.024 A 
ATOM     22  C   UNL     1      -0.086  -1.763   8.362  0.00  0.00    +0.013 A 
ATOM     23  C   UNL     1       1.089  -1.550   9.094  0.00  0.00    +0.017 A 
ATOM     24  C   UNL     1       2.174  -2.423   8.938  0.00  0.00    +0.013 A 
ATOM     25  C   UNL     1       2.080  -3.479   8.078  0.00  0.00    +0.024 A 
BRANCH  23  26
ATOM     26  C   UNL     1       1.185  -0.416  10.020  0.00  0.00    +0.160 C 
ATOM     27  O   UNL     1       0.244   0.339  10.153  0.00  0.00    -0.292 OA
ATOM     28  C   UNL     1       2.450  -0.189  10.806  0.00  0.00    +0.091 C 
ENDBRANCH  23  26
ENDBRANCH  17  20
ENDBRANCH   9  12
BRANCH   1  31
ATOM     29  C   UNL     1      -0.399  -4.215   0.115  0.00  0.00    +0.248 C 
ATOM     30  O   UNL     1      -0.912  -4.784  -0.828  0.00  0.00    -0.270 OA
ATOM     31  N   UNL     1       0.113  -4.929   1.137  0.00  0.00    -0.282 N 
ATOM     32  H   UNL     1       0.548  -4.476   1.875  0.00  0.00    +0.155 HD
BRANCH  29  37
ATOM     33  C   UNL     1      -0.153   1.533   0.217  0.00  0.00    +0.044 C 
ATOM     34  C   UNL     1      -0.217   0.028   0.190  0.00  0.00    -0.050 A 
ATOM     35  C   UNL     1      -0.802  -0.618  -0.885  0.00  0.00    +0.004 A 
ATOM     36  C   UNL     1      -0.864  -1.996  -0.916  0.00  0.00    +0.013 A 
ATOM     37  C   UNL     1      -0.335  -2.739   0.141  0.00  0.00    +0.037 A 
ATOM     38  C   UNL     1       0.254  -2.081   1.222  0.00  0.00    +0.013 A 
ATOM     39  C   UNL     1       0.315  -0.703   1.238  0.00  0.00    +0.004 A 
ENDBRANCH  29  37
ENDBRANCH   1  31
TORSDOF 5
