REMARK  Name = ZINC57315880
REMARK  2 active torsions:
REMARK  status: ('A' for Active; 'I' for Inactive)
REMARK    1  A    between atoms: C_5  and  C_7
REMARK    2  A    between atoms: N_9  and  C_10
REMARK                            x       y       z     vdW  Elec       q    Type
REMARK                         _______ _______ _______ _____ _____    ______ ____
ROOT
ATOM      1  C   UNL     1       0.503  -2.088  -1.046  0.00  0.00    +0.249 C 
ATOM      2  O   UNL     1       0.976  -2.606  -2.039  0.00  0.00    -0.270 OA
ATOM      3  N   UNL     1       0.096  -2.856  -0.015  0.00  0.00    -0.279 N 
ATOM      4  H   UNL     1      -0.214  -2.441   0.805  0.00  0.00    +0.155 HD
ENDROOT
BRANCH   3   5
ATOM      5  C   UNL     1       0.118  -4.247  -0.129  0.00  0.00    +0.081 A 
ATOM      6  C   UNL     1      -0.997  -4.916  -0.533  0.00  0.00    +0.064 A 
ATOM      7  C   UNL     1      -1.007  -6.304  -0.657  0.00  0.00    +0.024 A 
ATOM      8  C   UNL     1       0.091  -7.048  -0.382  0.00  0.00    +0.032 A 
ATOM      9  C   UNL     1       1.294  -6.421   0.045  0.00  0.00    +0.102 A 
ATOM     10  C   UNL     1       1.312  -4.968   0.171  0.00  0.00    +0.122 A 
ATOM     11  N   UNL     1       2.490  -4.491   0.571  0.00  0.00    -0.189 NA
ATOM     12  S   UNL     1       3.442  -5.776   0.748  0.00  0.00    +0.117 S 
ATOM     13  N   UNL     1       2.460  -6.989   0.356  0.00  0.00    -0.191 NA
ATOM     14 CL   UNL     1      -2.438  -4.020  -0.899  0.00  0.00    -0.082 Cl
ENDBRANCH   3   5
BRANCH   1  19
ATOM     15  C   UNL     1      -0.285   1.352   0.236  0.00  0.00    +0.001 A 
ATOM     16  C   UNL     1       0.134   2.137  -0.823  0.00  0.00    +0.001 A 
ATOM     17  C   UNL     1       0.674   1.552  -1.954  0.00  0.00    +0.015 A 
ATOM     18  C   UNL     1       0.797   0.180  -2.034  0.00  0.00    +0.025 A 
ATOM     19  C   UNL     1       0.375  -0.618  -0.968  0.00  0.00    +0.050 A 
ATOM     20  C   UNL     1      -0.168  -0.021   0.171  0.00  0.00    +0.014 A 
ATOM     21  I   UNL     1       1.613  -0.704  -3.749  0.00  0.00    -0.043 I 
ENDBRANCH   1  19
TORSDOF 2
