REMARK  Name = ZINC03358626
REMARK  6 active torsions:
REMARK  status: ('A' for Active; 'I' for Inactive)
REMARK    1  A    between atoms: C_1  and  C_2
REMARK    2  A    between atoms: N_11  and  C_32
REMARK    3  A    between atoms: N_16  and  C_17
REMARK    4  A    between atoms: C_17  and  N_19
REMARK    5  A    between atoms: C_20  and  C_22
REMARK    6  A    between atoms: C_27  and  N_28
REMARK                            x       y       z     vdW  Elec       q    Type
REMARK                         _______ _______ _______ _____ _____    ______ ____
ROOT
ATOM      1  C   UNL     1       0.202   1.520  -0.153  0.00  0.00    +0.044 C 
ATOM      2  C   UNL     1       0.189   0.013  -0.140  0.00  0.00    -0.050 A 
ATOM      3  C   UNL     1       0.169  -0.691  -1.330  0.00  0.00    +0.005 A 
ATOM      4  C   UNL     1       0.152  -2.069  -1.322  0.00  0.00    +0.024 A 
ATOM      5  C   UNL     1       0.151  -2.766  -0.113  0.00  0.00    +0.039 A 
ATOM      6  C   UNL     1       0.182  -2.050   1.077  0.00  0.00    -0.023 A 
ATOM      7  C   UNL     1       0.202  -0.670   1.062  0.00  0.00    +0.009 A 
ATOM      8  C   UNL     1       0.205  -3.044   2.207  0.00  0.00    +0.025 C 
ATOM      9  C   UNL     1      -0.675  -2.676   3.355  0.00  0.00    -0.069 C 
ATOM     10  N   UNL     1      -1.997  -3.268   3.343  0.00  0.00    +0.378 N 
ATOM     11  C   UNL     1      -1.954  -4.704   3.128  0.00  0.00    -0.077 C 
ATOM     12  C   UNL     1      -1.307  -5.067   1.813  0.00  0.00    +0.005 C 
ATOM     13  C   UNL     1       0.010  -4.401   1.570  0.00  0.00    +0.085 C 
ATOM     14  N   UNL     1       0.129  -4.145   0.120  0.00  0.00    -0.279 N 
ATOM     15  C   UNL     1      -2.787  -2.648   2.271  0.00  0.00    -0.096 C 
ATOM     16  H   UNL     1      -2.446  -3.083   4.228  0.00  0.00    -0.082 HD
ENDROOT
BRANCH  14  17
ATOM     17  C   UNL     1       0.206  -5.096  -0.833  0.00  0.00    +0.144 C 
ATOM     18  S   UNL     1       0.202  -4.652  -2.486  0.00  0.00    -0.018 S 
BRANCH  17  19
ATOM     19  N   UNL     1       0.286  -6.395  -0.484  0.00  0.00    -0.263 N 
ATOM     20  C   UNL     1       0.475  -7.336  -1.430  0.00  0.00    +0.252 C 
ATOM     21  O   UNL     1       0.572  -7.014  -2.598  0.00  0.00    -0.270 OA
ATOM     22  H   UNL     1       0.209  -6.652   0.448  0.00  0.00    +0.157 HD
BRANCH  20  23
ATOM     23  C   UNL     1       0.563  -8.760  -1.047  0.00  0.00    +0.067 A 
ATOM     24  C   UNL     1       1.498  -9.174  -0.096  0.00  0.00    +0.017 A 
ATOM     25  C   UNL     1       1.575 -10.505   0.257  0.00  0.00    +0.021 A 
ATOM     26  C   UNL     1       0.727 -11.430  -0.330  0.00  0.00    +0.043 A 
ATOM     27  C   UNL     1      -0.203 -11.026  -1.273  0.00  0.00    +0.053 A 
ATOM     28  C   UNL     1      -0.293  -9.697  -1.631  0.00  0.00    +0.140 A 
ATOM     29 CL   UNL     1       0.831 -13.104   0.120  0.00  0.00    -0.083 Cl
BRANCH  28  30
ATOM     30  N   UNL     1      -1.291  -9.265  -2.635  0.00  0.00    +0.057 N 
ATOM     31  O   UNL     1      -1.953 -10.089  -3.222  0.00  0.00    -0.126 OA
ATOM     32  O   UNL     1      -1.443  -8.089  -2.869  0.00  0.00    -0.126 OA
ENDBRANCH  28  30
ENDBRANCH  20  23
ENDBRANCH  17  19
ENDBRANCH  14  17
TORSDOF 4
