REMARK  Name = ZINC61095255
REMARK  4 active torsions:
REMARK  status: ('A' for Active; 'I' for Inactive)
REMARK    1  A    between atoms: C_4  and  N_20
REMARK    2  A    between atoms: C_6  and  S_7
REMARK    3  A    between atoms: S_7  and  N_10
REMARK    4  A    between atoms: N_10  and  C_11
REMARK                            x       y       z     vdW  Elec       q    Type
REMARK                         _______ _______ _______ _____ _____    ______ ____
ROOT
ATOM      1  S   UNL     1      -1.500  -0.925   0.012  0.00  0.00    +0.092 S 
ATOM      2  O   UNL     1      -1.189  -2.202   0.553  0.00  0.00    -0.148 OA
ATOM      3  O   UNL     1      -2.492  -0.079   0.577  0.00  0.00    -0.148 OA
ENDROOT
BRANCH   1   9
ATOM      4  C   UNL     1      -0.017   1.384   0.010  0.00  0.00    +0.046 A 
ATOM      5  C   UNL     1       1.178   2.077   0.002  0.00  0.00    +0.086 A 
ATOM      6  N   UNL     1       2.331   1.436  -0.013  0.00  0.00    -0.350 N 
ATOM      7  C   UNL     1       2.391   0.113  -0.021  0.00  0.00    +0.095 A 
ATOM      8  C   UNL     1       1.226  -0.648  -0.014  0.00  0.00    +0.070 A 
ATOM      9  C   UNL     1       0.002  -0.004   0.002  0.00  0.00    +0.115 A 
ATOM     10  H   UNL     1       3.156   1.947  -0.018  0.00  0.00    +0.166 HD
BRANCH   7  11
ATOM     11  N   UNL     1       3.628  -0.520  -0.036  0.00  0.00    -0.345 N 
ATOM     12  H   UNL     1       4.442   0.006  -0.041  0.00  0.00    +0.144 HD
ATOM     13  H   UNL     1       3.677  -1.489  -0.042  0.00  0.00    +0.144 HD
ENDBRANCH   7  11
ENDBRANCH   1   9
BRANCH   1  14
ATOM     14  N   UNL     1      -1.933  -1.173  -1.567  0.00  0.00    -0.095 NA
BRANCH  14  15
ATOM     15  C   UNL     1      -3.099  -1.885  -1.869  0.00  0.00    +0.112 A 
ATOM     16  C   UNL     1      -3.897  -2.379  -0.847  0.00  0.00    +0.071 A 
ATOM     17  C   UNL     1      -5.049  -3.083  -1.148  0.00  0.00    +0.160 A 
ATOM     18  C   UNL     1      -5.408  -3.294  -2.470  0.00  0.00    +0.161 A 
ATOM     19  C   UNL     1      -4.614  -2.803  -3.492  0.00  0.00    +0.081 A 
ATOM     20  C   UNL     1      -3.464  -2.093  -3.195  0.00  0.00    +0.151 A 
ATOM     21  F   UNL     1      -2.692  -1.609  -4.192  0.00  0.00    -0.203 F 
ATOM     22  F   UNL     1      -6.534  -3.982  -2.762  0.00  0.00    -0.202 F 
ATOM     23  F   UNL     1      -5.826  -3.564  -0.152  0.00  0.00    -0.202 F 
ENDBRANCH  14  15
ENDBRANCH   1  14
TORSDOF 4
