REMARK  Name = ZINC16560330
REMARK  13 active torsions:
REMARK  status: ('A' for Active; 'I' for Inactive)
REMARK    1  A    between atoms: C_1  and  C_2
REMARK    2  A    between atoms: C_2  and  C_3
REMARK    3  A    between atoms: C_8  and  N_9
REMARK    4  A    between atoms: C_12  and  C_17
REMARK    5  A    between atoms: C_17  and  N_18
REMARK    6  A    between atoms: N_18  and  C_19
REMARK    7  A    between atoms: N_18  and  C_21
REMARK    8  A    between atoms: C_19  and  C_20
REMARK    9  A    between atoms: C_21  and  C_22
REMARK   10  A    between atoms: N_24  and  C_25
REMARK   11  A    between atoms: C_25  and  C_26
REMARK   12  A    between atoms: C_25  and  C_27
REMARK   13  A    between atoms: C_25  and  C_28
REMARK                            x       y       z     vdW  Elec       q    Type
REMARK                         _______ _______ _______ _____ _____    ______ ____
ROOT
ATOM      1  N   UNL     1      -2.372  -0.218  -2.668  0.00  0.00    -0.283 N 
ATOM      2  C   UNL     1      -2.824  -0.587  -3.920  0.00  0.00    +0.224 A 
ATOM      3  N   UNL     1      -2.103  -0.298  -5.001  0.00  0.00    -0.201 NA
ATOM      4  C   UNL     1      -2.534  -0.650  -6.199  0.00  0.00    +0.120 A 
ATOM      5  N   UNL     1      -3.683  -1.291  -6.329  0.00  0.00    -0.202 NA
ATOM      6  C   UNL     1      -4.410  -1.583  -5.253  0.00  0.00    +0.217 A 
ATOM      7  N   UNL     1      -3.976  -1.236  -4.046  0.00  0.00    -0.181 NA
ATOM      8  N   UNL     1      -5.609  -2.252  -5.390  0.00  0.00    -0.327 N 
ATOM      9  H   UNL     1      -1.553   0.295  -2.579  0.00  0.00    +0.155 HD
ATOM     10  H   UNL     1      -5.923  -2.509  -6.271  0.00  0.00    +0.145 HD
ATOM     11  H   UNL     1      -6.138  -2.465  -4.606  0.00  0.00    +0.145 HD
ENDROOT
BRANCH   1  17
ATOM     12  C   UNL     1      -2.426  -0.885  -0.348  0.00  0.00    -0.026 A 
ATOM     13  C   UNL     1      -3.143  -1.240   0.778  0.00  0.00    +0.005 A 
ATOM     14  C   UNL     1      -4.523  -1.302   0.730  0.00  0.00    +0.000 A 
ATOM     15  C   UNL     1      -5.191  -1.009  -0.445  0.00  0.00    +0.002 A 
ATOM     16  C   UNL     1      -4.481  -0.653  -1.575  0.00  0.00    +0.023 A 
ATOM     17  C   UNL     1      -3.094  -0.584  -1.528  0.00  0.00    +0.037 A 
BRANCH  12  19
ATOM     18  C   UNL     1      -0.486   0.620  -0.002  0.00  0.00    +0.009 C 
ATOM     19  C   UNL     1      -0.922  -0.817  -0.294  0.00  0.00    +0.033 C 
ENDBRANCH  12  19
ENDBRANCH   1  17
BRANCH   4  20
ATOM     20  C   UNL     1      -1.715  -0.321  -7.420  0.00  0.00    -0.000 C 
BRANCH  20  21
ATOM     21  N   UNL     1      -0.786  -1.425  -7.699  0.00  0.00    +0.390 N 
ATOM     22  H   UNL     1      -0.229  -1.611  -6.879  0.00  0.00    -0.081 HD
BRANCH  21  23
ATOM     23  C   UNL     1      -1.550  -2.628  -8.056  0.00  0.00    -0.081 C 
ATOM     24  C   UNL     1      -0.594  -3.814  -8.200  0.00  0.00    -0.017 C 
ENDBRANCH  21  23
BRANCH  21  25
ATOM     25  C   UNL     1       0.094  -1.054  -8.815  0.00  0.00    +0.019 C 
BRANCH  25  26
ATOM     26  C   UNL     1       1.003   0.069  -8.386  0.00  0.00    +0.197 C 
ATOM     27  O   UNL     1       1.000   0.445  -7.233  0.00  0.00    -0.278 OA
ATOM     28  N   UNL     1       1.819   0.656  -9.284  0.00  0.00    -0.312 N 
ATOM     29  H   UNL     1       1.821   0.356 -10.207  0.00  0.00    +0.149 HD
BRANCH  28  30
ATOM     30  C   UNL     1       2.702   1.748  -8.867  0.00  0.00    +0.026 C 
ATOM     31  C   UNL     1       3.652   1.247  -7.777  0.00  0.00    +0.031 C 
ATOM     32  C   UNL     1       3.516   2.233 -10.069  0.00  0.00    +0.031 C 
ATOM     33  C   UNL     1       1.862   2.903  -8.320  0.00  0.00    +0.031 C 
ENDBRANCH  28  30
ENDBRANCH  25  26
ENDBRANCH  21  25
ENDBRANCH  20  21
ENDBRANCH   4  20
TORSDOF 8
