REMARK  Name = ZINC23223772
REMARK  10 active torsions:
REMARK  status: ('A' for Active; 'I' for Inactive)
REMARK    1  A    between atoms: C_1  and  C_2
REMARK    2  A    between atoms: C_2  and  C_3
REMARK    3  A    between atoms: C_3  and  N_4
REMARK    4  A    between atoms: C_8  and  S_28
REMARK    5  A    between atoms: C_12  and  S_13
REMARK    6  A    between atoms: S_13  and  C_14
REMARK    7  A    between atoms: C_14  and  C_15
REMARK    8  A    between atoms: C_24  and  O_27
REMARK    9  A    between atoms: C_25  and  C_26
REMARK   10  A    between atoms: S_28  and  N_31
REMARK                            x       y       z     vdW  Elec       q    Type
REMARK                         _______ _______ _______ _____ _____    ______ ____
ROOT
ATOM      1  N   UNL     1      -2.596  -3.784   2.382  0.00  0.00    -0.319 N 
ATOM      2  C   UNL     1      -2.625  -5.011   1.739  0.00  0.00    +0.070 A 
ATOM      3  C   UNL     1      -2.652  -6.325   2.178  0.00  0.00    +0.030 A 
ATOM      4  C   UNL     1      -2.678  -7.356   1.261  0.00  0.00    +0.030 A 
ATOM      5  C   UNL     1      -2.678  -7.085  -0.100  0.00  0.00    +0.107 A 
ATOM      6  C   UNL     1      -2.652  -5.786  -0.554  0.00  0.00    +0.058 A 
ATOM      7  C   UNL     1      -2.626  -4.731   0.362  0.00  0.00    +0.092 A 
ATOM      8  N   UNL     1      -2.603  -3.379   0.229  0.00  0.00    -0.222 NA
ATOM      9  C   UNL     1      -2.580  -2.820   1.413  0.00  0.00    +0.170 A 
ENDROOT
BRANCH   5  10
ATOM     10  S   UNL     1      -2.712  -8.415  -1.255  0.00  0.00    +0.056 S 
ATOM     11  O   UNL     1      -2.156  -7.917  -2.464  0.00  0.00    -0.153 OA
ATOM     12  O   UNL     1      -2.183  -9.550  -0.584  0.00  0.00    -0.153 OA
BRANCH  10  13
ATOM     13  N   UNL     1      -4.304  -8.750  -1.569  0.00  0.00    -0.204 NA
ATOM     14  H   UNL     1      -4.369  -9.578  -2.290  0.00  0.00    +0.144 HD
ATOM     15  H   UNL     1      -4.790  -7.858  -1.991  0.00  0.00    +0.144 HD
ENDBRANCH  10  13
ENDBRANCH   5  10
BRANCH   1  16
ATOM     16  C   UNL     1      -2.586  -3.561   3.830  0.00  0.00    +0.124 C 
BRANCH  16  18
ATOM     17  C   UNL     1      -4.013  -3.221   5.852  0.00  0.00    +0.005 C 
ATOM     18  C   UNL     1      -4.024  -3.453   4.340  0.00  0.00    +0.018 C 
ENDBRANCH  16  18
ENDBRANCH   1  16
BRANCH   9  19
ATOM     19  S   UNL     1      -2.542  -1.084   1.713  0.00  0.00    -0.083 S 
BRANCH  19  20
ATOM     20  C   UNL     1      -2.537  -0.471   0.010  0.00  0.00    +0.113 C 
BRANCH  20  21
ATOM     21  C   UNL     1      -2.505   1.036   0.019  0.00  0.00    -0.020 A 
ATOM     22  C   UNL     1      -3.655   1.758   0.028  0.00  0.00    +0.097 A 
ATOM     23  C   UNL     1      -3.599   3.167   0.035  0.00  0.00    +0.338 A 
ATOM     24  O   UNL     1      -4.638   3.803   0.044  0.00  0.00    -0.245 OA
ATOM     25  O   UNL     1      -2.429   3.826   0.046  0.00  0.00    -0.422 OA
ATOM     26  C   UNL     1      -1.250   3.169   0.032  0.00  0.00    +0.146 A 
ATOM     27  C   UNL     1      -1.232   1.761   0.018  0.00  0.00    +0.022 A 
ATOM     28  C   UNL     1      -0.013   1.076   0.008  0.00  0.00    +0.015 A 
ATOM     29  C   UNL     1       1.159   1.776   0.001  0.00  0.00    +0.046 A 
ATOM     30  C   UNL     1       1.148   3.170   0.008  0.00  0.00    +0.123 A 
ATOM     31  C   UNL     1      -0.051   3.864   0.023  0.00  0.00    +0.034 A 
ATOM     32  C   UNL     1      -0.051   5.371   0.032  0.00  0.00    +0.051 C 
BRANCH  30  33
ATOM     33  O   UNL     1       2.321   3.852  -0.000  0.00  0.00    -0.506 OA
ATOM     34  H   UNL     1       2.318   4.952   0.005  0.00  0.00    +0.292 HD
ENDBRANCH  30  33
ENDBRANCH  20  21
ENDBRANCH  19  20
ENDBRANCH   9  19
TORSDOF 8
