REMARK  Name = ZINC20614822
REMARK  5 active torsions:
REMARK  status: ('A' for Active; 'I' for Inactive)
REMARK    1  A    between atoms: C_1  and  C_2
REMARK    2  A    between atoms: C_5  and  N_9
REMARK    3  A    between atoms: C_10  and  C_12
REMARK    4  A    between atoms: N_20  and  S_24
REMARK    5  A    between atoms: S_24  and  C_27
REMARK                            x       y       z     vdW  Elec       q    Type
REMARK                         _______ _______ _______ _____ _____    ______ ____
ROOT
ATOM      1  C   UNL     1      -4.972   3.906   0.192  0.00  0.00    +0.302 C 
ATOM      2  O   UNL     1      -3.903   3.332   0.238  0.00  0.00    -0.265 OA
ATOM      3  N   UNL     1      -6.119   3.198   0.230  0.00  0.00    -0.293 N 
ATOM      4  C   UNL     1      -6.093   1.729   0.213  0.00  0.00    +0.112 C 
ATOM      5  C   UNL     1      -6.981   1.228  -0.924  0.00  0.00    +0.072 C 
ATOM      6  C   UNL     1      -8.377   1.836  -0.784  0.00  0.00    +0.145 C 
ATOM      7  C   UNL     1      -8.295   3.361  -0.862  0.00  0.00    +0.072 C 
ATOM      8  C   UNL     1      -7.418   3.881   0.281  0.00  0.00    +0.112 C 
ATOM      9  N   UNL     1      -8.963   1.438   0.505  0.00  0.00    -0.144 NA
ATOM     10  C   UNL     1     -10.181   0.662   0.179  0.00  0.00    +0.140 C 
ATOM     11  C   UNL     1      -9.917   0.207  -1.278  0.00  0.00    +0.179 C 
ATOM     12  O   UNL     1      -9.222   1.346  -1.837  0.00  0.00    -0.356 OA
ENDROOT
BRANCH   1  14
ATOM     13  N   UNL     1      -3.876   6.094  -0.074  0.00  0.00    -0.278 N 
ATOM     14  C   UNL     1      -5.017   5.396   0.094  0.00  0.00    +0.303 C 
ATOM     15  O   UNL     1      -6.080   5.977   0.166  0.00  0.00    -0.265 OA
ATOM     16  H   UNL     1      -2.926   5.565  -0.236  0.00  0.00    +0.155 HD
BRANCH  13  21
ATOM     17  C   UNL     1      -3.979  11.764   0.048  0.00  0.00    +0.045 C 
ATOM     18  C   UNL     1      -3.951  10.258   0.016  0.00  0.00    -0.032 A 
ATOM     19  C   UNL     1      -2.960   9.600  -0.689  0.00  0.00    +0.006 A 
ATOM     20  C   UNL     1      -2.936   8.220  -0.725  0.00  0.00    +0.023 A 
ATOM     21  C   UNL     1      -3.902   7.491  -0.043  0.00  0.00    +0.035 A 
ATOM     22  C   UNL     1      -4.896   8.153   0.664  0.00  0.00    +0.043 A 
ATOM     23  C   UNL     1      -4.919   9.535   0.693  0.00  0.00    +0.046 A 
ATOM     24 CL   UNL     1      -6.161  10.365   1.577  0.00  0.00    -0.083 Cl
ENDBRANCH  13  21
ENDBRANCH   1  14
BRANCH   9  25
ATOM     25  S   UNL     1      -8.378   1.786   2.014  0.00  0.00    +0.063 S 
ATOM     26  O   UNL     1      -7.164   2.499   1.825  0.00  0.00    -0.153 OA
ATOM     27  O   UNL     1      -9.466   2.318   2.758  0.00  0.00    -0.153 OA
BRANCH  25  28
ATOM     28  C   UNL     1      -7.950   0.255   2.774  0.00  0.00    +0.106 A 
ATOM     29  C   UNL     1      -8.920  -0.495   3.412  0.00  0.00    +0.028 A 
ATOM     30  C   UNL     1      -8.585  -1.699   4.003  0.00  0.00    +0.002 A 
ATOM     31  C   UNL     1      -7.278  -2.147   3.965  0.00  0.00    +0.000 A 
ATOM     32  C   UNL     1      -6.307  -1.394   3.332  0.00  0.00    +0.002 A 
ATOM     33  C   UNL     1      -6.643  -0.193   2.736  0.00  0.00    +0.028 A 
ENDBRANCH  25  28
ENDBRANCH   9  25
TORSDOF 4
