REMARK  Name = ZINC12329822
REMARK  6 active torsions:
REMARK  status: ('A' for Active; 'I' for Inactive)
REMARK    1  A    between atoms: C_6  and  C_7
REMARK    2  A    between atoms: C_7  and  C_9
REMARK    3  A    between atoms: C_7  and  O_27
REMARK    4  A    between atoms: C_9  and  N_51
REMARK    5  A    between atoms: C_16  and  O_26
REMARK    6  A    between atoms: C_20  and  O_25
REMARK                            x       y       z     vdW  Elec       q    Type
REMARK                         _______ _______ _______ _____ _____    ______ ____
ROOT
ATOM      1  C   UNL     1      -3.946  -0.491  -0.697  0.00  0.00    -0.075 C 
ATOM      2  C   UNL     1      -2.448  -0.193  -0.803  0.00  0.00    +0.029 C 
ATOM      3  C   UNL     1      -2.245   1.301  -1.060  0.00  0.00    +0.110 C 
ATOM      4  C   UNL     1      -2.995   1.704  -2.331  0.00  0.00    +0.029 C 
ATOM      5  C   UNL     1      -4.476   1.352  -2.178  0.00  0.00    -0.075 C 
ATOM      6  C   UNL     1      -0.752   1.592  -1.233  0.00  0.00    +0.084 C 
ATOM      7  C   UNL     1      -0.013   1.086   0.008  0.00  0.00    +0.152 C 
ATOM      8  C   UNL     1      -0.717   1.571   1.250  0.00  0.00    +0.026 A 
ATOM      9  C   UNL     1      -0.028   1.564   2.451  0.00  0.00    +0.055 A 
ATOM     10  C   UNL     1      -0.645   2.001   3.612  0.00  0.00    +0.117 A 
ATOM     11  C   UNL     1      -1.958   2.446   3.572  0.00  0.00    +0.049 A 
ATOM     12  C   UNL     1      -2.644   2.454   2.375  0.00  0.00    +0.049 A 
ATOM     13  C   UNL     1      -2.026   2.018   1.208  0.00  0.00    +0.127 A 
ATOM     14  O   UNL     1      -2.734   2.054   0.048  0.00  0.00    -0.485 OA
ATOM     15  N   UNL     1      -4.603  -0.105  -1.964  0.00  0.00    +0.382 N 
ATOM     16  H   UNL     1      -4.144  -0.597  -2.740  0.00  0.00    -0.082 HD
ENDROOT
BRANCH  10  17
ATOM     17  O   UNL     1       0.036   1.993   4.789  0.00  0.00    -0.507 OA
ATOM     18  H   UNL     1       0.516   2.813   4.971  0.00  0.00    +0.292 HD
ENDBRANCH  10  17
BRANCH   7  19
ATOM     19  O   UNL     1       1.328   1.580  -0.002  0.00  0.00    -0.387 OA
ATOM     20  H   UNL     1       1.857   1.297   0.756  0.00  0.00    +0.210 HD
ENDBRANCH   7  19
BRANCH  15  21
ATOM     21  C   UNL     1      -6.029  -0.488  -1.929  0.00  0.00    -0.042 C 
BRANCH  21  22
ATOM     22  C   UNL     1      -6.628  -0.284  -3.322  0.00  0.00    +0.128 C 
BRANCH  22  28
ATOM     23  C   UNL     1      -8.555  -1.882  -3.323  0.00  0.00    +0.007 A 
ATOM     24  C   UNL     1      -9.910  -2.149  -3.280  0.00  0.00    +0.020 A 
ATOM     25  C   UNL     1     -10.818  -1.109  -3.205  0.00  0.00    +0.041 A 
ATOM     26  C   UNL     1     -10.369   0.200  -3.168  0.00  0.00    +0.020 A 
ATOM     27  C   UNL     1      -9.014   0.466  -3.206  0.00  0.00    +0.007 A 
ATOM     28  C   UNL     1      -8.106  -0.575  -3.280  0.00  0.00    -0.021 A 
ATOM     29 CL   UNL     1     -12.521  -1.444  -3.157  0.00  0.00    -0.084 Cl
ENDBRANCH  22  28
BRANCH  22  30
ATOM     30  O   UNL     1      -5.994  -1.168  -4.248  0.00  0.00    -0.389 OA
ATOM     31  H   UNL     1      -6.095  -2.105  -4.029  0.00  0.00    +0.210 HD
ENDBRANCH  22  30
ENDBRANCH  21  22
ENDBRANCH  15  21
TORSDOF 6
