REMARK  Name = ZINC34750190
REMARK  13 active torsions:
REMARK  status: ('A' for Active; 'I' for Inactive)
REMARK    1  A    between atoms: C_1  and  C_2
REMARK    2  A    between atoms: C_2  and  N_3
REMARK    3  A    between atoms: N_3  and  C_4
REMARK    4  A    between atoms: C_4  and  C_5
REMARK    5  A    between atoms: C_6  and  C_8
REMARK    6  A    between atoms: C_8  and  S_9
REMARK    7  A    between atoms: S_9  and  C_10
REMARK    8  A    between atoms: C_21  and  C_23
REMARK    9  A    between atoms: C_21  and  C_24
REMARK   10  A    between atoms: N_28  and  C_31
REMARK   11  A    between atoms: C_31  and  C_32
REMARK   12  A    between atoms: C_32  and  C_33
REMARK   13  A    between atoms: C_32  and  C_34
REMARK                            x       y       z     vdW  Elec       q    Type
REMARK                         _______ _______ _______ _____ _____    ______ ____
ROOT
ATOM      1  C   UNL     1       0.046  -1.381  -6.183  0.00  0.00    +0.191 A 
ATOM      2  N   UNL     1      -0.469  -1.754  -7.349  0.00  0.00    -0.206 NA
ATOM      3  C   UNL     1       0.255  -2.357  -8.277  0.00  0.00    +0.134 A 
ATOM      4  C   UNL     1       1.631  -2.619  -8.025  0.00  0.00    +0.051 A 
ATOM      5  C   UNL     1       2.615  -3.267  -8.891  0.00  0.00    -0.020 A 
ATOM      6  C   UNL     1       3.869  -3.394  -8.409  0.00  0.00    +0.021 A 
ATOM      7  S   UNL     1       3.820  -2.668  -6.795  0.00  0.00    -0.071 S 
ATOM      8  C   UNL     1       2.110  -2.195  -6.768  0.00  0.00    +0.115 A 
ATOM      9  N   UNL     1       1.323  -1.594  -5.896  0.00  0.00    -0.214 NA
ATOM     10  C   UNL     1       5.031  -4.023  -9.115  0.00  0.00    +0.203 C 
ATOM     11  O   UNL     1       4.521  -4.746 -10.246  0.00  0.00    -0.368 OA
ATOM     12  C   UNL     1       3.605  -3.988 -11.041  0.00  0.00    +0.068 C 
ATOM     13  C   UNL     1       2.287  -3.793 -10.286  0.00  0.00    +0.071 C 
ATOM     14  C   UNL     1       4.217  -2.622 -11.356  0.00  0.00    +0.041 C 
ATOM     15  C   UNL     1       3.334  -4.733 -12.351  0.00  0.00    +0.041 C 
ATOM     16  N   UNL     1      -0.319  -2.730  -9.478  0.00  0.00    -0.318 N 
ATOM     17  C   UNL     1      -0.829  -4.095  -9.681  0.00  0.00    +0.088 C 
ATOM     18  C   UNL     1      -2.257  -4.004 -10.229  0.00  0.00    -0.060 C 
ATOM     19  N   UNL     1      -2.265  -3.168 -11.436  0.00  0.00    +0.382 N 
ATOM     20  C   UNL     1      -1.884  -1.792 -11.094  0.00  0.00    -0.060 C 
ATOM     21  C   UNL     1      -0.442  -1.772 -10.587  0.00  0.00    +0.088 C 
ATOM     22  H   UNL     1      -1.609  -3.540 -12.106  0.00  0.00    -0.082 HD
ENDROOT
BRANCH   1  23
ATOM     23  S   UNL     1      -0.985  -0.582  -4.999  0.00  0.00    -0.077 S 
BRANCH  23  24
ATOM     24  C   UNL     1       0.124  -0.257  -3.600  0.00  0.00    +0.173 C 
BRANCH  24  26
ATOM     25  N   UNL     1      -0.019   0.775  -1.357  0.00  0.00    -0.301 N 
ATOM     26  C   UNL     1      -0.643   0.433  -2.502  0.00  0.00    +0.226 C 
ATOM     27  O   UNL     1      -1.821   0.682  -2.648  0.00  0.00    -0.275 OA
BRANCH  25  29
ATOM     28  C   UNL     1      -0.682   2.961  -0.484  0.00  0.00    +0.024 C 
ATOM     29  C   UNL     1      -0.764   1.446  -0.289  0.00  0.00    +0.104 C 
ENDBRANCH  25  29
BRANCH  25  30
ATOM     30  C   UNL     1       1.404   0.474  -1.180  0.00  0.00    +0.104 C 
ATOM     31  C   UNL     1       1.558  -0.912  -0.551  0.00  0.00    +0.024 C 
ENDBRANCH  25  30
ENDBRANCH  24  26
ENDBRANCH  23  24
ENDBRANCH   1  23
BRANCH  19  32
ATOM     32  C   UNL     1      -3.612  -3.170 -12.022  0.00  0.00    -0.076 C 
BRANCH  32  33
ATOM     33  C   UNL     1      -3.949  -4.577 -12.521  0.00  0.00    -0.034 C 
ATOM     34  C   UNL     1      -5.399  -4.611 -13.009  0.00  0.00    +0.005 C 
ATOM     35  C   UNL     1      -3.014  -4.946 -13.674  0.00  0.00    +0.005 C 
ENDBRANCH  32  33
ENDBRANCH  19  32
TORSDOF 7
