REMARK  Name = ZINC64057961
REMARK  3 active torsions:
REMARK  status: ('A' for Active; 'I' for Inactive)
REMARK    1  A    between atoms: C_4  and  C_10
REMARK    2  A    between atoms: C_16  and  C_18
REMARK    3  A    between atoms: C_25  and  C_27
REMARK                            x       y       z     vdW  Elec       q    Type
REMARK                         _______ _______ _______ _____ _____    ______ ____
ROOT
ATOM      1  C   UNL     1       4.447   5.610  -2.668  0.00  0.00    -0.043 C 
ATOM      2  C   UNL     1       5.455   4.885  -2.195  0.00  0.00    -0.004 C 
ATOM      3  C   UNL     1       5.798   4.806  -0.733  0.00  0.00    +0.135 C 
ATOM      4  N   UNL     1       5.039   5.832  -0.004  0.00  0.00    -0.297 N 
ATOM      5  C   UNL     1       3.618   6.001  -0.354  0.00  0.00    +0.113 C 
ATOM      6  C   UNL     1       3.544   6.452  -1.817  0.00  0.00    +0.054 C 
ATOM      7  C   UNL     1       5.620   6.588   0.949  0.00  0.00    +0.220 C 
ATOM      8  O   UNL     1       6.812   6.496   1.153  0.00  0.00    -0.275 OA
ENDROOT
BRANCH   1  12
ATOM      9  C   UNL     1       1.611   7.938  -5.342  0.00  0.00    +0.020 A 
ATOM     10  C   UNL     1       2.376   7.353  -4.377  0.00  0.00    +0.013 A 
ATOM     11  C   UNL     1       3.306   6.363  -4.769  0.00  0.00    +0.022 A 
ATOM     12  C   UNL     1       4.216   5.590  -4.057  0.00  0.00    -0.015 C 
ATOM     13  C   UNL     1       4.906   4.724  -5.088  0.00  0.00    +0.150 C 
ATOM     14  N   UNL     1       4.312   5.081  -6.380  0.00  0.00    -0.365 N 
ATOM     15  C   UNL     1       3.402   6.012  -6.198  0.00  0.00    +0.135 A 
ATOM     16  N   UNL     1       2.598   6.652  -7.074  0.00  0.00    -0.238 NA
ATOM     17  C   UNL     1       1.747   7.564  -6.678  0.00  0.00    +0.113 A 
ATOM     18  H   UNL     1       4.552   4.691  -7.235  0.00  0.00    +0.161 HD
ENDBRANCH   1  12
BRANCH   7  19
ATOM     19  C   UNL     1       4.789   7.549   1.759  0.00  0.00    +0.092 C 
ATOM     20  C   UNL     1       3.930   6.766   2.756  0.00  0.00    +0.016 C 
ATOM     21  C   UNL     1       3.062   7.739   3.557  0.00  0.00    +0.020 C 
ATOM     22  C   UNL     1       3.964   8.694   4.343  0.00  0.00    +0.108 C 
ATOM     23  N   UNL     1       4.893   9.345   3.408  0.00  0.00    -0.300 N 
ATOM     24  C   UNL     1       5.711   8.503   2.525  0.00  0.00    +0.120 C 
ATOM     25  C   UNL     1       4.991  10.688   3.361  0.00  0.00    +0.229 C 
ATOM     26  O   UNL     1       4.244  11.374   4.026  0.00  0.00    -0.274 OA
BRANCH  25  27
ATOM     27  C   UNL     1       6.030  11.337   2.483  0.00  0.00    +0.140 C 
ATOM     28  C   UNL     1       6.572  12.646   3.115  0.00  0.00    +0.051 C 
ATOM     29  C   UNL     1       6.788  13.690   2.067  0.00  0.00    -0.019 C 
ATOM     30  C   UNL     1       6.202  13.571   0.892  0.00  0.00    +0.037 C 
ATOM     31  S   UNL     1       5.277  12.046   0.958  0.00  0.00    -0.120 S 
ENDBRANCH  25  27
ENDBRANCH   7  19
TORSDOF 3
