REMARK  Name = ZINC03290154
REMARK  7 active torsions:
REMARK  status: ('A' for Active; 'I' for Inactive)
REMARK    1  A    between atoms: C_1  and  C_2
REMARK    2  A    between atoms: N_5  and  C_7
REMARK    3  A    between atoms: C_25  and  C_27
REMARK    4  A    between atoms: C_30  and  O_35
REMARK    5  A    between atoms: C_31  and  O_33
REMARK    6  A    between atoms: O_33  and  C_34
REMARK    7  A    between atoms: O_35  and  C_36
REMARK                            x       y       z     vdW  Elec       q    Type
REMARK                         _______ _______ _______ _____ _____    ______ ____
ROOT
ATOM      1  C   UNL     1      -3.184   0.484   0.783  0.00  0.00    +0.068 C 
ATOM      2  C   UNL     1      -2.184   1.318   1.541  0.00  0.00    +0.068 A 
ATOM      3  C   UNL     1      -0.866   1.538   1.170  0.00  0.00    +0.043 A 
ATOM      4  C   UNL     1      -0.279   2.355   2.122  0.00  0.00    +0.141 A 
ATOM      5  N   UNL     1      -1.245   2.620   3.055  0.00  0.00    -0.216 N 
ATOM      6  N   UNL     1      -2.416   1.959   2.661  0.00  0.00    -0.169 NA
ATOM      7  N   UNL     1       1.012   2.729   2.007  0.00  0.00    -0.328 N 
ATOM      8  C   UNL     1       1.814   2.372   1.021  0.00  0.00    +0.105 C 
ATOM      9  C   UNL     1       3.152   2.847   1.037  0.00  0.00    +0.043 C 
ATOM     10  C   UNL     1       4.015   2.513   0.052  0.00  0.00    +0.013 C 
ATOM     11  C   UNL     1       3.554   1.650  -1.038  0.00  0.00    -0.004 A 
ATOM     12  C   UNL     1       4.413   1.279  -2.078  0.00  0.00    +0.010 A 
ATOM     13  C   UNL     1       3.948   0.468  -3.088  0.00  0.00    +0.001 A 
ATOM     14  C   UNL     1       2.635   0.018  -3.079  0.00  0.00    +0.002 A 
ATOM     15  C   UNL     1       1.776   0.374  -2.061  0.00  0.00    +0.024 A 
ATOM     16  C   UNL     1       2.224   1.194  -1.032  0.00  0.00    +0.043 A 
ATOM     17  N   UNL     1       1.381   1.563  -0.003  0.00  0.00    -0.274 N 
ATOM     18  C   UNL     1      -0.013   1.086   0.008  0.00  0.00    +0.146 C 
ATOM     19  H   UNL     1       1.386   3.377   2.812  0.00  0.00    +0.169 HD
ENDROOT
BRANCH   5  20
ATOM     20  C   UNL     1      -1.090   3.412   4.201  0.00  0.00    +0.068 A 
ATOM     21  C   UNL     1       0.117   3.413   4.887  0.00  0.00    +0.029 A 
ATOM     22  C   UNL     1       0.269   4.198   6.013  0.00  0.00    +0.022 A 
ATOM     23  C   UNL     1      -0.785   4.974   6.464  0.00  0.00    +0.041 A 
ATOM     24  C   UNL     1      -1.990   4.971   5.785  0.00  0.00    +0.022 A 
ATOM     25  C   UNL     1      -2.145   4.192   4.655  0.00  0.00    +0.029 A 
ATOM     26 CL   UNL     1      -0.593   5.955   7.884  0.00  0.00    -0.084 Cl
ENDBRANCH   5  20
BRANCH  18  27
ATOM     27  C   UNL     1      -0.676   1.549  -1.263  0.00  0.00    -0.018 A 
ATOM     28  C   UNL     1      -0.471   2.838  -1.718  0.00  0.00    +0.009 A 
ATOM     29  C   UNL     1      -1.077   3.268  -2.884  0.00  0.00    +0.050 A 
ATOM     30  C   UNL     1      -1.893   2.406  -3.599  0.00  0.00    +0.168 A 
ATOM     31  C   UNL     1      -2.099   1.108  -3.141  0.00  0.00    +0.162 A 
ATOM     32  C   UNL     1      -1.485   0.682  -1.975  0.00  0.00    +0.055 A 
BRANCH  31  33
ATOM     33  O   UNL     1      -2.899   0.258  -3.840  0.00  0.00    -0.491 OA
ATOM     34  C   UNL     1      -3.066  -1.058  -3.310  0.00  0.00    +0.277 C 
ENDBRANCH  31  33
BRANCH  30  35
ATOM     35  O   UNL     1      -2.489   2.827  -4.747  0.00  0.00    -0.431 OA
BRANCH  35  36
ATOM     36  C   UNL     1      -2.231   4.171  -5.157  0.00  0.00    +0.541 C 
ATOM     37  F   UNL     1      -2.665   5.053  -4.162  0.00  0.00    -0.166 F 
ATOM     38  F   UNL     1      -0.858   4.340  -5.363  0.00  0.00    -0.166 F 
ENDBRANCH  35  36
ENDBRANCH  30  35
ENDBRANCH  18  27
TORSDOF 5
