REMARK  Name = ZINC02791772
REMARK  5 active torsions:
REMARK  status: ('A' for Active; 'I' for Inactive)
REMARK    1  A    between atoms: C_1  and  C_2
REMARK    2  A    between atoms: C_6  and  C_19
REMARK    3  A    between atoms: C_13  and  C_14
REMARK    4  A    between atoms: N_16  and  C_17
REMARK    5  A    between atoms: N_16  and  C_18
REMARK                            x       y       z     vdW  Elec       q    Type
REMARK                         _______ _______ _______ _____ _____    ______ ____
ROOT
ATOM      1  C   UNL     1       2.505   8.468  -0.635  0.00  0.00    +0.046 C 
ATOM      2  C   UNL     1       3.999   8.302  -0.743  0.00  0.00    -0.018 A 
ATOM      3  C   UNL     1       4.543   7.054  -1.053  0.00  0.00    +0.056 A 
ATOM      4  C   UNL     1       3.857   5.769  -1.313  0.00  0.00    +0.168 A 
ATOM      5  N   UNL     1       2.591   5.413  -1.339  0.00  0.00    -0.206 NA
ATOM      6  C   UNL     1       2.500   4.109  -1.626  0.00  0.00    +0.183 A 
ATOM      7  N   UNL     1       3.711   3.616  -1.796  0.00  0.00    -0.143 NA
ATOM      8  N   UNL     1       4.616   4.670  -1.599  0.00  0.00    -0.201 N 
ATOM      9  C   UNL     1       5.972   4.754  -1.645  0.00  0.00    +0.226 A 
ATOM     10  N   UNL     1       6.597   5.877  -1.419  0.00  0.00    -0.228 NA
ATOM     11  C   UNL     1       5.952   6.999  -1.133  0.00  0.00    +0.114 A 
ATOM     12  S   UNL     1       6.446   8.667  -0.777  0.00  0.00    -0.064 S 
ATOM     13  C   UNL     1       4.823   9.371  -0.540  0.00  0.00    +0.080 A 
ENDROOT
BRANCH   6  14
ATOM     14  C   UNL     1       1.236   3.341  -1.741  0.00  0.00    +0.035 A 
ATOM     15  C   UNL     1       1.269   1.983  -2.051  0.00  0.00    +0.013 A 
ATOM     16  C   UNL     1       0.090   1.273  -2.156  0.00  0.00    +0.001 A 
ATOM     17  C   UNL     1      -1.123   1.909  -1.960  0.00  0.00    +0.001 A 
ATOM     18  C   UNL     1      -1.162   3.255  -1.646  0.00  0.00    +0.016 A 
ATOM     19  C   UNL     1       0.011   3.975  -1.538  0.00  0.00    +0.029 A 
ATOM     20 BR   UNL     1      -0.044   5.818  -1.117  0.00  0.00    -0.050 Br
ENDBRANCH   6  14
BRANCH  13  21
ATOM     21  C   UNL     1       4.464  10.754  -0.209  0.00  0.00    +0.253 C 
ATOM     22  O   UNL     1       3.297  11.101  -0.226  0.00  0.00    -0.269 OA
ATOM     23  N   UNL     1       5.426  11.641   0.115  0.00  0.00    -0.303 N 
ATOM     24  C   UNL     1       5.064  13.012   0.481  0.00  0.00    +0.132 C 
ATOM     25  C   UNL     1       6.833  11.234   0.100  0.00  0.00    +0.132 C 
ENDBRANCH  13  21
TORSDOF 2
