REMARK  Name = ZINC35425856
REMARK  3 active torsions:
REMARK  status: ('A' for Active; 'I' for Inactive)
REMARK    1  A    between atoms: N_13  and  C_15
REMARK    2  A    between atoms: C_15  and  C_16
REMARK    3  A    between atoms: N_18  and  C_19
REMARK                            x       y       z     vdW  Elec       q    Type
REMARK                         _______ _______ _______ _____ _____    ______ ____
ROOT
ATOM      1  C   UNL     1       0.074   1.321  -0.272  0.00  0.00    +0.002 A 
ATOM      2  C   UNL     1       1.270   2.019  -0.331  0.00  0.00    +0.002 A 
ATOM      3  C   UNL     1       2.474   1.346  -0.258  0.00  0.00    +0.028 A 
ATOM      4  C   UNL     1       2.491  -0.034  -0.124  0.00  0.00    +0.078 A 
ATOM      5  C   UNL     1       1.284  -0.746  -0.063  0.00  0.00    +0.090 A 
ATOM      6  C   UNL     1       0.072  -0.050  -0.139  0.00  0.00    +0.030 A 
ATOM      7  N   UNL     1       1.278  -2.100   0.067  0.00  0.00    -0.227 NA
ATOM      8  C   UNL     1       2.391  -2.788   0.140  0.00  0.00    +0.167 A 
ATOM      9  C   UNL     1       3.688  -2.096   0.082  0.00  0.00    +0.203 A 
ATOM     10  N   UNL     1       3.704  -0.717  -0.051  0.00  0.00    -0.239 N 
ATOM     11  C   UNL     1       4.987  -0.311  -0.082  0.00  0.00    +0.352 A 
ATOM     12  O   UNL     1       5.373   0.840  -0.191  0.00  0.00    -0.244 OA
ATOM     13  N   UNL     1       5.767  -1.406   0.028  0.00  0.00    -0.203 N 
ATOM     14  N   UNL     1       4.922  -2.520   0.131  0.00  0.00    -0.145 NA
ATOM     15  N   UNL     1       2.347  -4.162   0.272  0.00  0.00    -0.311 N 
ATOM     16  C   UNL     1       3.590  -4.933   0.223  0.00  0.00    +0.117 C 
ATOM     17  C   UNL     1       3.844  -5.581   1.589  0.00  0.00    +0.088 C 
ATOM     18  S   UNL     1       2.410  -6.613   2.018  0.00  0.00    -0.158 S 
ATOM     19  C   UNL     1       1.010  -5.464   1.854  0.00  0.00    +0.088 C 
ATOM     20  C   UNL     1       1.058  -4.829   0.465  0.00  0.00    +0.117 C 
ENDROOT
BRANCH  13  21
ATOM     21  C   UNL     1       7.232  -1.427   0.037  0.00  0.00    +0.244 C 
BRANCH  21  22
ATOM     22  C   UNL     1       7.727  -1.297   1.455  0.00  0.00    +0.239 C 
ATOM     23  O   UNL     1       6.934  -1.197   2.367  0.00  0.00    -0.273 OA
ATOM     24  N   UNL     1       9.050  -1.292   1.709  0.00  0.00    -0.282 N 
ATOM     25  H   UNL     1       9.685  -1.292   0.976  0.00  0.00    +0.155 HD
BRANCH  24  26
ATOM     26  C   UNL     1       9.510  -1.288   3.033  0.00  0.00    +0.069 A 
ATOM     27  C   UNL     1       8.802  -1.964   4.017  0.00  0.00    +0.029 A 
ATOM     28  C   UNL     1       9.256  -1.958   5.322  0.00  0.00    +0.040 A 
ATOM     29  C   UNL     1      10.417  -1.279   5.649  0.00  0.00    +0.126 A 
ATOM     30  C   UNL     1      11.126  -0.603   4.671  0.00  0.00    +0.078 A 
ATOM     31  C   UNL     1      10.678  -0.611   3.362  0.00  0.00    +0.147 A 
ATOM     32  F   UNL     1      11.373   0.044   2.406  0.00  0.00    -0.203 F 
ATOM     33  F   UNL     1      10.858  -1.275   6.926  0.00  0.00    -0.205 F 
ENDBRANCH  24  26
ENDBRANCH  21  22
ENDBRANCH  13  21
TORSDOF 3
