REMARK  Name = ZINC36643697
REMARK  12 active torsions:
REMARK  status: ('A' for Active; 'I' for Inactive)
REMARK    1  A    between atoms: C_1  and  C_2
REMARK    2  A    between atoms: C_4  and  C_37
REMARK    3  A    between atoms: N_11  and  C_12
REMARK    4  A    between atoms: C_12  and  C_13
REMARK    5  A    between atoms: C_13  and  C_14
REMARK    6  A    between atoms: C_14  and  N_15
REMARK    7  A    between atoms: N_15  and  C_16
REMARK    8  A    between atoms: N_15  and  C_17
REMARK    9  A    between atoms: C_18  and  C_20
REMARK   10  A    between atoms: C_23  and  S_26
REMARK   11  A    between atoms: S_26  and  N_29
REMARK   12  A    between atoms: C_33  and  C_36
REMARK                            x       y       z     vdW  Elec       q    Type
REMARK                         _______ _______ _______ _____ _____    ______ ____
ROOT
ATOM      1  C   UNL     1      -1.001   0.974  -1.077  0.00  0.00    +0.044 C 
ATOM      2  C   UNL     1      -0.788  -0.506  -0.895  0.00  0.00    -0.049 A 
ATOM      3  C   UNL     1      -0.859  -1.364  -1.984  0.00  0.00    +0.009 A 
ATOM      4  C   UNL     1      -0.669  -2.714  -1.846  0.00  0.00    -0.024 A 
ATOM      5  C   UNL     1      -0.393  -3.279  -0.580  0.00  0.00    +0.083 A 
ATOM      6  C   UNL     1      -0.328  -2.376   0.506  0.00  0.00    +0.041 A 
ATOM      7  C   UNL     1      -0.514  -1.024   0.357  0.00  0.00    +0.020 A 
ATOM      8  S   UNL     1       0.028  -3.454   1.873  0.00  0.00    -0.052 S 
ATOM      9  C   UNL     1       0.068  -4.983   0.949  0.00  0.00    +0.168 A 
ATOM     10  N   UNL     1      -0.182  -4.577  -0.274  0.00  0.00    -0.224 NA
ATOM     11  N   UNL     1       0.301  -6.268   1.407  0.00  0.00    -0.246 N 
ATOM     12  C   UNL     1       0.290  -7.304   0.544  0.00  0.00    +0.252 C 
ATOM     13  O   UNL     1       0.147  -7.101  -0.646  0.00  0.00    -0.270 OA
ATOM     14  C   UNL     1      -0.756  -3.606  -3.058  0.00  0.00    +0.046 C 
ENDROOT
BRANCH  12  15
ATOM     15  C   UNL     1       0.451  -8.685   1.045  0.00  0.00    +0.037 A 
ATOM     16  C   UNL     1      -0.168  -9.076   2.234  0.00  0.00    +0.015 A 
ATOM     17  C   UNL     1      -0.014 -10.366   2.696  0.00  0.00    +0.029 A 
ATOM     18  C   UNL     1       0.752 -11.273   1.984  0.00  0.00    +0.106 A 
ATOM     19  C   UNL     1       1.367 -10.892   0.805  0.00  0.00    +0.029 A 
ATOM     20  C   UNL     1       1.217  -9.606   0.329  0.00  0.00    +0.015 A 
BRANCH  18  21
ATOM     21  S   UNL     1       0.944 -12.919   2.582  0.00  0.00    +0.061 S 
ATOM     22  O   UNL     1       2.151 -13.416   2.021  0.00  0.00    -0.153 OA
ATOM     23  O   UNL     1       0.718 -12.871   3.984  0.00  0.00    -0.153 OA
BRANCH  21  24
ATOM     24  N   UNL     1      -0.285 -13.821   1.935  0.00  0.00    -0.176 NA
ATOM     25  C   UNL     1      -1.570 -13.947   2.637  0.00  0.00    +0.109 C 
ATOM     26  C   UNL     1      -2.696 -13.546   1.678  0.00  0.00    +0.017 C 
ATOM     27  C   UNL     1      -2.594 -14.381   0.400  0.00  0.00    +0.006 C 
ATOM     28  C   UNL     1      -1.254 -14.104  -0.286  0.00  0.00    +0.002 C 
ATOM     29  C   UNL     1      -0.114 -14.506   0.647  0.00  0.00    +0.112 C 
ATOM     30  C   UNL     1      -1.167 -14.913  -1.582  0.00  0.00    +0.009 C 
ENDBRANCH  21  24
ENDBRANCH  18  21
ENDBRANCH  12  15
BRANCH  11  31
ATOM     31  C   UNL     1       0.561  -6.503   2.830  0.00  0.00    +0.114 C 
BRANCH  31  32
ATOM     32  C   UNL     1      -0.744  -6.365   3.616  0.00  0.00    +0.001 C 
BRANCH  32  33
ATOM     33  C   UNL     1      -0.504  -6.758   5.075  0.00  0.00    -0.078 C 
BRANCH  33  34
ATOM     34  N   UNL     1      -1.757  -6.625   5.830  0.00  0.00    +0.376 N 
ATOM     35  C   UNL     1      -1.558  -7.115   7.201  0.00  0.00    -0.097 C 
ATOM     36  C   UNL     1      -2.159  -5.213   5.869  0.00  0.00    -0.097 C 
ATOM     37  H   UNL     1      -2.480  -7.168   5.381  0.00  0.00    -0.083 HD
ENDBRANCH  33  34
ENDBRANCH  32  33
ENDBRANCH  31  32
ENDBRANCH  11  31
TORSDOF 7
