REMARK  Name = ZINC27460221
REMARK  4 active torsions:
REMARK  status: ('A' for Active; 'I' for Inactive)
REMARK    1  A    between atoms: C_1  and  C_2
REMARK    2  A    between atoms: C_7  and  N_9
REMARK    3  A    between atoms: C_10  and  C_26
REMARK    4  A    between atoms: C_30  and  N_32
REMARK                            x       y       z     vdW  Elec       q    Type
REMARK                         _______ _______ _______ _____ _____    ______ ____
ROOT
ATOM      1  N   UNL     1      -0.018   1.464   0.010  0.00  0.00    -0.241 N 
ATOM      2  C   UNL     1       0.002  -0.004   0.002  0.00  0.00    +0.151 C 
ATOM      3  C   UNL     1       1.456  -0.399  -0.014  0.00  0.00    +0.072 A 
ATOM      4  C   UNL     1       2.132  -1.698  -0.027  0.00  0.00    +0.199 A 
ATOM      5  O   UNL     1       1.507  -2.744  -0.027  0.00  0.00    -0.287 OA
ATOM      6  C   UNL     1       3.608  -1.678  -0.041  0.00  0.00    +0.065 A 
ATOM      7  C   UNL     1       4.351  -2.857  -0.054  0.00  0.00    +0.030 A 
ATOM      8  C   UNL     1       5.728  -2.791  -0.067  0.00  0.00    +0.019 A 
ATOM      9  C   UNL     1       6.369  -1.559  -0.067  0.00  0.00    +0.019 A 
ATOM     10  C   UNL     1       5.644  -0.387  -0.054  0.00  0.00    +0.048 A 
ATOM     11  C   UNL     1       4.253  -0.429  -0.041  0.00  0.00    +0.140 A 
ATOM     12  O   UNL     1       3.535   0.709  -0.028  0.00  0.00    -0.450 OA
ATOM     13  C   UNL     1       2.188   0.743  -0.015  0.00  0.00    +0.199 A 
ATOM     14  C   UNL     1       1.255   1.896   0.000  0.00  0.00    +0.288 C 
ATOM     15  O   UNL     1       1.593   3.063   0.003  0.00  0.00    -0.266 OA
ATOM     16 BR   UNL     1       6.748  -4.384  -0.084  0.00  0.00    -0.050 Br
ENDROOT
BRANCH   1  22
ATOM     17  C   UNL     1      -1.900   4.362  -2.153  0.00  0.00    +0.032 C 
ATOM     18  C   UNL     1      -2.084   4.437  -0.636  0.00  0.00    +0.091 C 
ATOM     19  C   UNL     1      -3.434   3.879  -0.263  0.00  0.00    -0.005 C 
ATOM     20  C   UNL     1      -3.561   2.586   0.042  0.00  0.00    +0.001 C 
ATOM     21  C   UNL     1      -2.387   1.710   0.023  0.00  0.00    +0.039 C 
ATOM     22  C   UNL     1      -1.148   2.262   0.020  0.00  0.00    +0.094 C 
ATOM     23  N   UNL     1      -1.039   3.646   0.033  0.00  0.00    -0.326 N 
ATOM     24  H   UNL     1      -0.197   4.152   0.527  0.00  0.00    +0.148 HD
ENDBRANCH   1  22
BRANCH   2  25
ATOM     25  C   UNL     1      -0.693  -0.526  -1.229  0.00  0.00    -0.020 A 
ATOM     26  C   UNL     1      -0.512   0.106  -2.445  0.00  0.00    +0.006 A 
ATOM     27  C   UNL     1      -1.149  -0.373  -3.575  0.00  0.00    +0.003 A 
ATOM     28  C   UNL     1      -1.967  -1.484  -3.488  0.00  0.00    +0.033 A 
ATOM     29  C   UNL     1      -2.148  -2.115  -2.272  0.00  0.00    +0.127 A 
ATOM     30  C   UNL     1      -1.506  -1.640  -1.144  0.00  0.00    +0.038 A 
BRANCH  29  31
ATOM     31  N   UNL     1      -3.025  -3.304  -2.179  0.00  0.00    +0.056 N 
ATOM     32  O   UNL     1      -3.587  -3.726  -3.175  0.00  0.00    -0.126 OA
ATOM     33  O   UNL     1      -3.184  -3.861  -1.108  0.00  0.00    -0.126 OA
ENDBRANCH  29  31
ENDBRANCH   2  25
TORSDOF 3
