REMARK  Name = ZINC08827434
REMARK  2 active torsions:
REMARK  status: ('A' for Active; 'I' for Inactive)
REMARK    1  A    between atoms: C_3  and  C_10
REMARK    2  A    between atoms: C_5  and  N_7
REMARK                            x       y       z     vdW  Elec       q    Type
REMARK                         _______ _______ _______ _____ _____    ______ ____
ROOT
ATOM      1  C   UNL     1       0.631   3.393   0.013  0.00  0.00    +0.151 C 
ATOM      2  C   UNL     1      -0.874   3.348   0.027  0.00  0.00    +0.072 A 
ATOM      3  C   UNL     1      -1.899   4.395   0.042  0.00  0.00    +0.199 A 
ATOM      4  O   UNL     1      -1.606   5.577   0.045  0.00  0.00    -0.287 OA
ATOM      5  C   UNL     1      -3.305   3.945   0.054  0.00  0.00    +0.065 A 
ATOM      6  C   UNL     1      -4.360   4.857   0.069  0.00  0.00    +0.030 A 
ATOM      7  C   UNL     1      -5.658   4.393   0.079  0.00  0.00    +0.019 A 
ATOM      8  C   UNL     1      -5.912   3.028   0.075  0.00  0.00    +0.019 A 
ATOM      9  C   UNL     1      -4.878   2.118   0.060  0.00  0.00    +0.048 A 
ATOM     10  C   UNL     1      -3.559   2.563   0.049  0.00  0.00    +0.140 A 
ATOM     11  O   UNL     1      -2.541   1.683   0.034  0.00  0.00    -0.450 OA
ATOM     12  C   UNL     1      -1.243   2.042   0.018  0.00  0.00    +0.199 A 
ATOM     13  C   UNL     1      -0.014   1.211   0.009  0.00  0.00    +0.289 C 
ATOM     14  O   UNL     1       0.002  -0.004   0.002  0.00  0.00    -0.266 OA
ATOM     15  N   UNL     1       1.078   1.994   0.003  0.00  0.00    -0.232 N 
ATOM     16  C   UNL     1       2.395   1.558  -0.012  0.00  0.00    +0.168 A 
ATOM     17  N   UNL     1       3.505   2.272  -0.025  0.00  0.00    -0.233 NA
ATOM     18  C   UNL     1       4.689   1.694  -0.034  0.00  0.00    +0.120 A 
ATOM     19  C   UNL     1       4.746   0.339  -0.041  0.00  0.00    +0.068 A 
ATOM     20  S   UNL     1       3.006  -0.067  -0.026  0.00  0.00    -0.060 S 
ATOM     21 BR   UNL     1      -7.097   5.620   0.099  0.00  0.00    -0.050 Br
ENDROOT
BRANCH   1  24
ATOM     22  C   UNL     1       1.580   4.095  -3.573  0.00  0.00    +0.003 A 
ATOM     23  C   UNL     1       1.137   3.442  -2.437  0.00  0.00    +0.006 A 
ATOM     24  C   UNL     1       1.118   4.103  -1.224  0.00  0.00    -0.020 A 
ATOM     25  C   UNL     1       1.552   5.413  -1.143  0.00  0.00    +0.038 A 
ATOM     26  C   UNL     1       1.998   6.065  -2.278  0.00  0.00    +0.127 A 
ATOM     27  C   UNL     1       2.012   5.405  -3.493  0.00  0.00    +0.033 A 
BRANCH  26  28
ATOM     28  N   UNL     1       2.461   7.468  -2.192  0.00  0.00    +0.056 N 
ATOM     29  O   UNL     1       2.449   8.049  -1.121  0.00  0.00    -0.126 OA
ATOM     30  O   UNL     1       2.855   8.042  -3.191  0.00  0.00    -0.126 OA
ENDBRANCH  26  28
ENDBRANCH   1  24
TORSDOF 2
