REMARK  Name = ZINC57731521
REMARK  9 active torsions:
REMARK  status: ('A' for Active; 'I' for Inactive)
REMARK    1  A    between atoms: C_1  and  C_2
REMARK    2  A    between atoms: C_2  and  O_3
REMARK    3  A    between atoms: O_3  and  C_4
REMARK    4  A    between atoms: C_14  and  C_16
REMARK    5  A    between atoms: C_16  and  N_17
REMARK    6  A    between atoms: C_19  and  C_32
REMARK    7  A    between atoms: N_21  and  C_26
REMARK    8  A    between atoms: C_23  and  C_25
REMARK    9  A    between atoms: C_26  and  C_27
REMARK                            x       y       z     vdW  Elec       q    Type
REMARK                         _______ _______ _______ _____ _____    ______ ____
ROOT
ATOM      1  C   UNL     1       0.777  -1.811  -1.336  0.00  0.00    +0.122 A 
ATOM      2  C   UNL     1       0.244  -2.679  -0.388  0.00  0.00    +0.048 A 
ATOM      3  C   UNL     1       0.338  -4.038  -0.530  0.00  0.00    +0.032 A 
ATOM      4  C   UNL     1       0.985  -4.606  -1.652  0.00  0.00    +0.081 A 
ATOM      5  C   UNL     1       1.515  -3.696  -2.595  0.00  0.00    +0.044 A 
ATOM      6  C   UNL     1       1.412  -2.335  -2.452  0.00  0.00    +0.063 A 
ATOM      7  S   UNL     1       2.220  -4.782  -3.812  0.00  0.00    -0.052 S 
ATOM      8  C   UNL     1       1.783  -6.323  -3.019  0.00  0.00    +0.165 A 
ATOM      9  N   UNL     1       1.161  -5.915  -1.938  0.00  0.00    -0.225 NA
ATOM     10  N   UNL     1       2.035  -7.619  -3.440  0.00  0.00    -0.264 N 
ATOM     11  C   UNL     1       1.620  -8.662  -2.695  0.00  0.00    +0.233 C 
ATOM     12  O   UNL     1       1.025  -8.467  -1.656  0.00  0.00    -0.274 OA
ATOM     13  H   UNL     1       2.511  -7.775  -4.271  0.00  0.00    +0.157 HD
ENDROOT
BRANCH   1  14
ATOM     14  O   UNL     1       0.671  -0.465  -1.174  0.00  0.00    -0.492 OA
BRANCH  14  16
ATOM     15  C   UNL     1      -0.019   1.526   0.010  0.00  0.00    +0.048 C 
ATOM     16  C   UNL     1       0.002  -0.004   0.002  0.00  0.00    +0.225 C 
ENDBRANCH  14  16
ENDBRANCH   1  14
BRANCH  11  17
ATOM     17  C   UNL     1       1.895 -10.072  -3.152  0.00  0.00    +0.181 C 
BRANCH  17  18
ATOM     18  N   UNL     1       1.346 -11.020  -2.174  0.00  0.00    -0.295 NA
ATOM     19  C   UNL     1      -0.122 -10.949  -2.139  0.00  0.00    +0.069 C 
ATOM     20  C   UNL     1      -0.650 -11.907  -1.068  0.00  0.00    -0.057 C 
ATOM     21  N   UNL     1      -0.216 -13.275  -1.377  0.00  0.00    +0.388 N 
ATOM     22  C   UNL     1       1.252 -13.335  -1.385  0.00  0.00    -0.059 C 
ATOM     23  C   UNL     1       1.796 -12.390  -2.458  0.00  0.00    +0.037 C 
ATOM     24  C   UNL     1       1.277 -12.823  -3.830  0.00  0.00    +0.022 C 
ATOM     25  C   UNL     1      -2.179 -11.850  -1.043  0.00  0.00    -0.012 C 
ATOM     26  H   UNL     1      -0.568 -13.543  -2.284  0.00  0.00    -0.081 HD
BRANCH  21  27
ATOM     27  C   UNL     1      -0.739 -14.196  -0.359  0.00  0.00    -0.003 C 
BRANCH  27  28
ATOM     28  C   UNL     1      -0.398 -15.614  -0.742  0.00  0.00    +0.089 A 
ATOM     29  C   UNL     1       0.716 -16.278  -0.386  0.00  0.00    +0.042 A 
ATOM     30  C   UNL     1       0.625 -17.567  -0.959  0.00  0.00    +0.041 A 
ATOM     31  C   UNL     1      -0.539 -17.613  -1.631  0.00  0.00    +0.195 A 
ATOM     32  O   UNL     1      -1.157 -16.429  -1.491  0.00  0.00    -0.470 OA
ENDBRANCH  27  28
ENDBRANCH  21  27
ENDBRANCH  17  18
ENDBRANCH  11  17
TORSDOF 6
