REMARK  Name = ZINC39559660
REMARK  11 active torsions:
REMARK  status: ('A' for Active; 'I' for Inactive)
REMARK    1  A    between atoms: C_1  and  C_2
REMARK    2  A    between atoms: C_2  and  O_3
REMARK    3  A    between atoms: O_3  and  C_4
REMARK    4  A    between atoms: C_10  and  N_39
REMARK    5  A    between atoms: C_14  and  N_18
REMARK    6  A    between atoms: N_18  and  C_19
REMARK    7  A    between atoms: C_19  and  C_20
REMARK    8  A    between atoms: C_23  and  O_26
REMARK    9  A    between atoms: O_26  and  C_27
REMARK   10  A    between atoms: C_28  and  C_30
REMARK   11  A    between atoms: C_33  and  N_36
REMARK                            x       y       z     vdW  Elec       q    Type
REMARK                         _______ _______ _______ _____ _____    ______ ____
ROOT
ATOM      1  C   UNL     1      -0.798 -16.904  -1.118  0.00  0.00    +0.121 A 
ATOM      2  C   UNL     1       0.364 -17.623  -0.820  0.00  0.00    +0.048 A 
ATOM      3  C   UNL     1       1.330 -17.093  -0.025  0.00  0.00    +0.030 A 
ATOM      4  C   UNL     1       1.169 -15.798   0.513  0.00  0.00    +0.049 A 
ATOM      5  C   UNL     1      -0.010 -15.071   0.209  0.00  0.00    +0.023 A 
ATOM      6  C   UNL     1      -0.988 -15.648  -0.621  0.00  0.00    +0.057 A 
ATOM      7  C   UNL     1      -0.194 -13.775   0.735  0.00  0.00    +0.043 A 
ATOM      8  C   UNL     1       0.820 -13.251   1.555  0.00  0.00    +0.020 A 
ATOM      9  C   UNL     1       0.722 -11.969   2.122  0.00  0.00    +0.013 A 
ATOM     10  C   UNL     1       1.726 -11.502   2.909  0.00  0.00    +0.024 A 
ATOM     11  C   UNL     1       2.866 -12.271   3.171  0.00  0.00    +0.039 A 
ATOM     12  C   UNL     1       3.018 -13.533   2.643  0.00  0.00    +0.049 A 
ATOM     13  C   UNL     1       2.009 -14.065   1.821  0.00  0.00    +0.050 A 
ATOM     14  N   UNL     1       2.120 -15.282   1.293  0.00  0.00    -0.354 N 
ATOM     15  H   UNL     1       2.913 -15.807   1.481  0.00  0.00    +0.166 HD
ENDROOT
BRANCH  11  16
ATOM     16  N   UNL     1       3.870 -11.746   3.986  0.00  0.00    -0.263 N 
ATOM     17  C   UNL     1       5.039 -12.403   4.123  0.00  0.00    +0.251 C 
ATOM     18  O   UNL     1       5.273 -13.378   3.436  0.00  0.00    -0.270 OA
BRANCH  17  19
ATOM     19  C   UNL     1       6.036 -11.939   5.111  0.00  0.00    +0.037 A 
ATOM     20  C   UNL     1       5.649 -11.103   6.159  0.00  0.00    +0.015 A 
ATOM     21  C   UNL     1       6.585 -10.674   7.077  0.00  0.00    +0.033 A 
ATOM     22  C   UNL     1       7.905 -11.069   6.960  0.00  0.00    +0.126 A 
ATOM     23  C   UNL     1       8.296 -11.897   5.923  0.00  0.00    +0.033 A 
ATOM     24  C   UNL     1       7.369 -12.339   5.001  0.00  0.00    +0.015 A 
BRANCH  22  25
ATOM     25  N   UNL     1       8.904 -10.604   7.948  0.00  0.00    +0.056 N 
ATOM     26  O   UNL     1       8.565  -9.880   8.855  0.00  0.00    -0.126 OA
ATOM     27  O   UNL     1      10.059 -10.948   7.848  0.00  0.00    -0.126 OA
ENDBRANCH  22  25
ENDBRANCH  17  19
BRANCH  16  28
ATOM     28  C   UNL     1       3.655 -10.480   4.692  0.00  0.00    +0.149 C 
BRANCH  28  29
ATOM     29  C   UNL     1       2.831 -10.729   5.929  0.00  0.00    -0.029 A 
ATOM     30  C   UNL     1       2.877  -9.833   6.981  0.00  0.00    +0.009 A 
ATOM     31  C   UNL     1       2.124 -10.059   8.116  0.00  0.00    +0.046 A 
ATOM     32  C   UNL     1       1.319 -11.186   8.200  0.00  0.00    +0.120 A 
ATOM     33  C   UNL     1       1.273 -12.083   7.143  0.00  0.00    +0.046 A 
ATOM     34  C   UNL     1       2.025 -11.850   6.008  0.00  0.00    +0.009 A 
BRANCH  32  35
ATOM     35  O   UNL     1       0.577 -11.411   9.316  0.00  0.00    -0.495 OA
ATOM     36  C   UNL     1      -0.229 -12.591   9.333  0.00  0.00    +0.277 C 
ENDBRANCH  32  35
ENDBRANCH  28  29
ENDBRANCH  16  28
ENDBRANCH  11  16
BRANCH   7  37
ATOM     37  N   UNL     1      -1.332 -13.047   0.454  0.00  0.00    -0.357 N 
ATOM     38  H   UNL     1      -2.021 -13.424  -0.114  0.00  0.00    +0.142 HD
ATOM     39  H   UNL     1      -1.442 -12.157   0.824  0.00  0.00    +0.142 HD
ENDBRANCH   7  37
BRANCH   1  40
ATOM     40  O   UNL     1      -1.747 -17.462  -1.917  0.00  0.00    -0.492 OA
BRANCH  40  42
ATOM     41  C   UNL     1      -2.661 -19.236  -3.280  0.00  0.00    +0.048 C 
ATOM     42  C   UNL     1      -1.491 -18.780  -2.406  0.00  0.00    +0.225 C 
ENDBRANCH  40  42
ENDBRANCH   1  40
TORSDOF 9
