REMARK  Name = ZINC40381652
REMARK  4 active torsions:
REMARK  status: ('A' for Active; 'I' for Inactive)
REMARK    1  A    between atoms: C_3  and  S_16
REMARK    2  A    between atoms: C_4  and  N_8
REMARK    3  A    between atoms: C_9  and  C_11
REMARK    4  A    between atoms: S_16  and  N_19
REMARK                            x       y       z     vdW  Elec       q    Type
REMARK                         _______ _______ _______ _____ _____    ______ ____
ROOT
ATOM      1  C   UNL     1      -0.023   1.368   0.039  0.00  0.00    +0.040 A 
ATOM      2  C   UNL     1       1.161   2.082   0.024  0.00  0.00    +0.033 A 
ATOM      3  C   UNL     1       2.371   1.417  -0.001  0.00  0.00    +0.126 A 
ATOM      4  C   UNL     1       2.399   0.028  -0.011  0.00  0.00    +0.063 A 
ATOM      5  C   UNL     1       1.210  -0.688   0.004  0.00  0.00    +0.063 A 
ATOM      6  C   UNL     1       0.000  -0.016   0.029  0.00  0.00    +0.125 A 
ATOM      7  F   UNL     1      -1.158  -0.711   0.044  0.00  0.00    -0.205 F 
ENDROOT
BRANCH   4   8
ATOM      8  N   UNL     1       3.623  -0.648  -0.036  0.00  0.00    -0.280 N 
ATOM      9  C   UNL     1       3.693  -1.897  -0.537  0.00  0.00    +0.249 C 
ATOM     10  O   UNL     1       2.715  -2.399  -1.058  0.00  0.00    -0.270 OA
ATOM     11  H   UNL     1       4.422  -0.217   0.306  0.00  0.00    +0.155 HD
BRANCH   9  12
ATOM     12  C   UNL     1       4.952  -2.654  -0.454  0.00  0.00    +0.044 A 
ATOM     13  C   UNL     1       5.066  -3.991  -0.984  0.00  0.00    +0.020 A 
ATOM     14  C   UNL     1       6.273  -4.575  -0.845  0.00  0.00    +0.046 A 
ATOM     15  S   UNL     1       7.231  -3.329  -0.010  0.00  0.00    -0.104 S 
ATOM     16  C   UNL     1       6.079  -2.117   0.128  0.00  0.00    +0.058 A 
ENDBRANCH   9  12
ENDBRANCH   4   8
BRANCH   3  17
ATOM     17  S   UNL     1       3.878   2.329  -0.020  0.00  0.00    +0.058 S 
ATOM     18  O   UNL     1       4.672   1.780  -1.063  0.00  0.00    -0.153 OA
ATOM     19  O   UNL     1       3.522   3.704   0.022  0.00  0.00    -0.153 OA
BRANCH  17  20
ATOM     20  N   UNL     1       4.667   2.001   1.398  0.00  0.00    -0.203 NA
ATOM     21  H   UNL     1       4.270   1.398   2.046  0.00  0.00    +0.144 HD
ATOM     22  H   UNL     1       5.527   2.412   1.581  0.00  0.00    +0.144 HD
ENDBRANCH  17  20
ENDBRANCH   3  17
TORSDOF 4
