REMARK  Name = ZINC06289811
REMARK  6 active torsions:
REMARK  status: ('A' for Active; 'I' for Inactive)
REMARK    1  A    between atoms: C_1  and  O_2
REMARK    2  A    between atoms: O_2  and  C_3
REMARK    3  A    between atoms: C_12  and  C_13
REMARK    4  A    between atoms: C_17  and  C_27
REMARK    5  A    between atoms: C_22  and  N_26
REMARK    6  A    between atoms: C_23  and  C_24
REMARK                            x       y       z     vdW  Elec       q    Type
REMARK                         _______ _______ _______ _____ _____    ______ ____
ROOT
ATOM      1  C   UNL     1       0.042  -2.800  -0.009  0.00  0.00    +0.086 C 
ATOM      2  C   UNL     1      -0.948  -3.799   0.602  0.00  0.00    +0.144 C 
ATOM      3  C   UNL     1      -2.312  -3.174   0.774  0.00  0.00    +0.156 C 
ATOM      4  N   UNL     1      -3.108  -3.822  -0.014  0.00  0.00    -0.146 NA
ATOM      5  N   UNL     1      -2.450  -4.813  -0.742  0.00  0.00    -0.115 NA
ATOM      6  C   UNL     1      -1.182  -4.859  -0.471  0.00  0.00    +0.227 C 
ATOM      7  O   UNL     1      -0.154  -5.560  -0.997  0.00  0.00    -0.425 OA
ATOM      8  C   UNL     1       0.973  -4.828  -1.194  0.00  0.00    +0.200 C 
ATOM      9  C   UNL     1       1.110  -3.559  -0.753  0.00  0.00    +0.095 C 
ENDROOT
BRANCH   1  19
ATOM     10  C   UNL     1       0.576  -0.620   1.071  0.00  0.00    +0.124 A 
ATOM     11  C   UNL     1       1.153   0.152   2.084  0.00  0.00    +0.046 A 
ATOM     12  C   UNL     1       1.833  -0.431   3.108  0.00  0.00    +0.012 A 
ATOM     13  C   UNL     1       1.959  -1.831   3.152  0.00  0.00    -0.017 A 
ATOM     14  C   UNL     1       2.654  -2.467   4.195  0.00  0.00    +0.008 A 
ATOM     15  C   UNL     1       2.756  -3.824   4.207  0.00  0.00    +0.001 A 
ATOM     16  C   UNL     1       2.182  -4.596   3.199  0.00  0.00    +0.001 A 
ATOM     17  C   UNL     1       1.502  -4.015   2.173  0.00  0.00    +0.009 A 
ATOM     18  C   UNL     1       1.375  -2.616   2.127  0.00  0.00    -0.011 A 
ATOM     19  C   UNL     1       0.675  -1.982   1.087  0.00  0.00    +0.011 A 
BRANCH  10  21
ATOM     20  C   UNL     1      -0.166   1.419   0.101  0.00  0.00    +0.277 C 
ATOM     21  O   UNL     1      -0.097  -0.008   0.062  0.00  0.00    -0.495 OA
ENDBRANCH  10  21
ENDBRANCH   1  19
BRANCH   3  22
ATOM     22  C   UNL     1      -2.674  -2.027   1.682  0.00  0.00    +0.433 C 
ATOM     23  F   UNL     1      -4.038  -1.744   1.554  0.00  0.00    -0.165 F 
ATOM     24  F   UNL     1      -2.392  -2.375   3.007  0.00  0.00    -0.165 F 
ATOM     25  F   UNL     1      -1.928  -0.898   1.327  0.00  0.00    -0.165 F 
ENDBRANCH   3  22
BRANCH   8  26
ATOM     26  N   UNL     1       2.019  -5.402  -1.873  0.00  0.00    -0.328 N 
ATOM     27  H   UNL     1       1.944  -6.312  -2.200  0.00  0.00    +0.145 HD
ATOM     28  H   UNL     1       2.834  -4.898  -2.025  0.00  0.00    +0.145 HD
ENDBRANCH   8  26
BRANCH   9  29
ATOM     29  C   UNL     1       2.350  -2.890  -1.006  0.00  0.00    +0.100 C 
ATOM     30  N   UNL     1       3.335  -2.360  -1.207  0.00  0.00    -0.191 NA
ENDBRANCH   9  29
TORSDOF 5
