REMARK  Name = ZINC13632098
REMARK  4 active torsions:
REMARK  status: ('A' for Active; 'I' for Inactive)
REMARK    1  A    between atoms: C_1  and  C_2
REMARK    2  A    between atoms: C_5  and  S_8
REMARK    3  A    between atoms: S_8  and  N_11
REMARK    4  A    between atoms: C_13  and  C_22
REMARK                            x       y       z     vdW  Elec       q    Type
REMARK                         _______ _______ _______ _____ _____    ______ ____
ROOT
ATOM      1  N   UNL     1       4.050  -1.397  -0.138  0.00  0.00    -0.195 N 
ATOM      2  C   UNL     1       4.057  -2.869  -0.092  0.00  0.00    +0.186 C 
ATOM      3  C   UNL     1       2.699  -3.357  -0.618  0.00  0.00    +0.278 C 
ATOM      4  O   UNL     1       1.663  -2.795   0.192  0.00  0.00    -0.476 OA
ATOM      5  C   UNL     1       1.699  -1.457   0.427  0.00  0.00    +0.144 A 
ATOM      6  C   UNL     1       2.881  -0.737   0.273  0.00  0.00    +0.093 A 
ATOM      7  C   UNL     1       2.904   0.626   0.522  0.00  0.00    +0.028 A 
ATOM      8  C   UNL     1       1.748   1.272   0.922  0.00  0.00    +0.002 A 
ATOM      9  C   UNL     1       0.574   0.561   1.073  0.00  0.00    +0.004 A 
ATOM     10  C   UNL     1       0.546  -0.800   0.828  0.00  0.00    +0.047 A 
ENDROOT
BRANCH   3  11
ATOM     11  C   UNL     1       2.639  -4.861  -0.544  0.00  0.00    +0.262 C 
ATOM     12  O   UNL     1       1.855  -5.400   0.208  0.00  0.00    -0.271 OA
ATOM     13  N   UNL     1       3.457  -5.606  -1.313  0.00  0.00    -0.268 N 
ATOM     14  C   UNL     1       4.313  -4.973  -2.325  0.00  0.00    +0.114 C 
ATOM     15  C   UNL     1       4.219  -5.800  -3.609  0.00  0.00    +0.024 C 
ATOM     16  C   UNL     1       4.766  -7.202  -3.339  0.00  0.00    +0.038 C 
ATOM     17  C   UNL     1       4.114  -7.796  -2.119  0.00  0.00    -0.026 A 
ATOM     18  C   UNL     1       3.500  -7.000  -1.165  0.00  0.00    +0.040 A 
ATOM     19  C   UNL     1       2.917  -7.580  -0.045  0.00  0.00    +0.024 A 
ATOM     20  C   UNL     1       2.945  -8.951   0.118  0.00  0.00    +0.002 A 
ATOM     21  C   UNL     1       3.555  -9.745  -0.836  0.00  0.00    +0.000 A 
ATOM     22  C   UNL     1       4.137  -9.170  -1.949  0.00  0.00    +0.005 A 
ENDBRANCH   3  11
BRANCH   1  23
ATOM     23  S   UNL     1       5.375  -0.550  -0.655  0.00  0.00    +0.075 S 
ATOM     24  O   UNL     1       6.178  -1.463  -1.391  0.00  0.00    -0.150 OA
ATOM     25  O   UNL     1       4.889   0.661  -1.218  0.00  0.00    -0.150 OA
BRANCH  23  30
ATOM     26  C   UNL     1       8.545   0.975   4.247  0.00  0.00    +0.044 C 
ATOM     27  C   UNL     1       7.754   0.594   3.022  0.00  0.00    -0.050 A 
ATOM     28  C   UNL     1       7.911  -0.659   2.459  0.00  0.00    +0.005 A 
ATOM     29  C   UNL     1       7.184  -1.008   1.337  0.00  0.00    +0.029 A 
ATOM     30  C   UNL     1       6.301  -0.105   0.776  0.00  0.00    +0.109 A 
ATOM     31  C   UNL     1       6.148   1.150   1.335  0.00  0.00    +0.029 A 
ATOM     32  C   UNL     1       6.870   1.498   2.461  0.00  0.00    +0.005 A 
ENDBRANCH  23  30
ENDBRANCH   1  23
TORSDOF 3
