REMARK  Name = ZINC44755828
REMARK  5 active torsions:
REMARK  status: ('A' for Active; 'I' for Inactive)
REMARK    1  A    between atoms: C_1  and  N_2
REMARK    2  A    between atoms: N_2  and  C_3
REMARK    3  A    between atoms: C_8  and  C_9
REMARK    4  A    between atoms: N_11  and  C_12
REMARK    5  A    between atoms: C_23  and  C_25
REMARK                            x       y       z     vdW  Elec       q    Type
REMARK                         _______ _______ _______ _____ _____    ______ ____
ROOT
ATOM      1  C   UNL     1       0.083  -0.680   1.211  0.00  0.00    +0.048 A 
ATOM      2  C   UNL     1      -1.092  -1.102   1.819  0.00  0.00    +0.024 A 
ATOM      3  C   UNL     1      -1.045  -1.780   3.020  0.00  0.00    +0.002 A 
ATOM      4  C   UNL     1       0.172  -2.046   3.627  0.00  0.00    +0.001 A 
ATOM      5  C   UNL     1       1.348  -1.636   3.038  0.00  0.00    +0.015 A 
ATOM      6  C   UNL     1       1.317  -0.953   1.820  0.00  0.00    +0.058 A 
ENDROOT
BRANCH   1   8
ATOM      7  C   UNL     1      -0.052   1.467  -0.012  0.00  0.00    +0.138 C 
ATOM      8  N   UNL     1       0.037   0.005  -0.000  0.00  0.00    -0.269 N 
ATOM      9  C   UNL     1       0.075  -0.677  -1.162  0.00  0.00    +0.257 C 
ATOM     10  O   UNL     1       0.124  -0.076  -2.219  0.00  0.00    -0.269 OA
BRANCH   9  11
ATOM     11  C   UNL     1       0.058  -2.143  -1.152  0.00  0.00    +0.074 A 
ATOM     12  C   UNL     1       0.189  -3.025  -2.214  0.00  0.00    +0.021 A 
ATOM     13  C   UNL     1       0.133  -4.360  -1.891  0.00  0.00    +0.008 A 
ATOM     14  C   UNL     1      -0.042  -4.717  -0.594  0.00  0.00    +0.046 A 
ATOM     15  S   UNL     1      -0.129  -3.255   0.228  0.00  0.00    -0.092 S 
ENDBRANCH   9  11
ENDBRANCH   1   8
BRANCH   6  16
ATOM     16  C   UNL     1       2.572  -0.516   1.182  0.00  0.00    +0.250 C 
ATOM     17  O   UNL     1       2.540   0.083   0.124  0.00  0.00    -0.270 OA
ATOM     18  N   UNL     1       3.755  -0.781   1.771  0.00  0.00    -0.281 N 
ATOM     19  H   UNL     1       3.786  -1.316   2.579  0.00  0.00    +0.155 HD
BRANCH  18  20
ATOM     20  C   UNL     1       4.940  -0.283   1.216  0.00  0.00    +0.036 A 
ATOM     21  C   UNL     1       5.986   0.107   2.046  0.00  0.00    +0.027 A 
ATOM     22  C   UNL     1       7.156   0.600   1.505  0.00  0.00    +0.050 A 
ATOM     23  C   UNL     1       7.293   0.706   0.129  0.00  0.00    +0.157 A 
ATOM     24  C   UNL     1       6.246   0.315  -0.705  0.00  0.00    +0.089 A 
ATOM     25  C   UNL     1       5.073  -0.184  -0.161  0.00  0.00    +0.052 A 
ATOM     26  N   UNL     1       6.674   0.537  -2.014  0.00  0.00    -0.288 N 
ATOM     27  H   UNL     1       6.166   0.363  -2.821  0.00  0.00    +0.172 HD
ATOM     28  C   UNL     1       7.923   1.039  -1.951  0.00  0.00    +0.419 A 
ATOM     29  O   UNL     1       8.604   1.350  -2.910  0.00  0.00    -0.223 OA
ATOM     30  O   UNL     1       8.300   1.143  -0.667  0.00  0.00    -0.408 OA
ENDBRANCH  18  20
ENDBRANCH   6  16
TORSDOF 4
