REMARK  Name = ZINC65215655
REMARK  6 active torsions:
REMARK  status: ('A' for Active; 'I' for Inactive)
REMARK    1  A    between atoms: C_4  and  C_7
REMARK    2  A    between atoms: C_7  and  N_8
REMARK    3  A    between atoms: C_15  and  C_18
REMARK    4  A    between atoms: N_20  and  C_21
REMARK    5  A    between atoms: C_24  and  C_27
REMARK    6  A    between atoms: C_27  and  C_28
REMARK                            x       y       z     vdW  Elec       q    Type
REMARK                         _______ _______ _______ _____ _____    ______ ____
ROOT
ATOM      1  N   UNL     1       4.209  -0.924   1.425  0.00  0.00    -0.302 N 
ATOM      2  C   UNL     1       5.386  -0.285   1.811  0.00  0.00    +0.063 A 
ATOM      3  C   UNL     1       5.941   0.900   1.326  0.00  0.00    +0.034 A 
ATOM      4  C   UNL     1       7.102   1.355   1.839  0.00  0.00    +0.048 A 
ATOM      5  S   UNL     1       7.522   0.220   3.004  0.00  0.00    -0.091 S 
ATOM      6  C   UNL     1       6.147  -0.884   2.823  0.00  0.00    +0.083 A 
ATOM      7  C   UNL     1       5.763  -2.071   3.435  0.00  0.00    +0.212 A 
ATOM      8  C   UNL     1       4.568  -2.688   3.019  0.00  0.00    +0.149 A 
ATOM      9  C   UNL     1       3.807  -2.068   1.999  0.00  0.00    +0.268 A 
ATOM     10  O   UNL     1       2.767  -2.587   1.631  0.00  0.00    -0.267 OA
ATOM     11  O   UNL     1       6.521  -2.623   4.408  0.00  0.00    -0.286 OA
ENDROOT
BRANCH   8  12
ATOM     12  C   UNL     1       4.118  -3.940   3.632  0.00  0.00    +0.257 C 
ATOM     13  O   UNL     1       4.832  -4.516   4.433  0.00  0.00    -0.270 OA
ATOM     14  N   UNL     1       2.915  -4.455   3.310  0.00  0.00    -0.281 N 
ATOM     15  H   UNL     1       2.380  -4.039   2.616  0.00  0.00    +0.155 HD
BRANCH  14  16
ATOM     16  C   UNL     1       2.438  -5.588   3.976  0.00  0.00    +0.034 A 
ATOM     17  C   UNL     1       2.751  -5.793   5.313  0.00  0.00    +0.023 A 
ATOM     18  C   UNL     1       2.278  -6.913   5.968  0.00  0.00    +0.006 A 
ATOM     19  C   UNL     1       1.494  -7.831   5.293  0.00  0.00    -0.037 A 
ATOM     20  C   UNL     1       1.181  -7.631   3.961  0.00  0.00    +0.006 A 
ATOM     21  C   UNL     1       1.646  -6.509   3.302  0.00  0.00    +0.023 A 
BRANCH  19  22
ATOM     22  C   UNL     1       0.981  -9.053   6.010  0.00  0.00    +0.160 C 
BRANCH  22  23
ATOM     23  C   UNL     1      -0.357  -8.745   6.631  0.00  0.00    +0.360 C 
ATOM     24  O   UNL     1      -0.848  -7.637   6.504  0.00  0.00    -0.246 OA
ATOM     25  O   UNL     1      -0.949  -9.605   7.262  0.00  0.00    -0.246 OA
ENDBRANCH  22  23
ENDBRANCH  19  22
ENDBRANCH  14  16
ENDBRANCH   8  12
BRANCH   1  26
ATOM     26  C   UNL     1       3.386  -0.328   0.370  0.00  0.00    +0.160 C 
BRANCH  26  30
ATOM     27  C   UNL     1       0.556   2.355   2.115  0.00  0.00    +0.000 A 
ATOM     28  C   UNL     1       1.800   2.818   1.728  0.00  0.00    +0.000 A 
ATOM     29  C   UNL     1       2.716   1.950   1.163  0.00  0.00    +0.005 A 
ATOM     30  C   UNL     1       2.388   0.619   0.987  0.00  0.00    -0.028 A 
ATOM     31  C   UNL     1       1.145   0.156   1.374  0.00  0.00    +0.005 A 
ATOM     32  C   UNL     1       0.228   1.024   1.937  0.00  0.00    +0.000 A 
ENDBRANCH  26  30
ENDBRANCH   1  26
TORSDOF 6
