REMARK  Name = ZINC14920548
REMARK  9 active torsions:
REMARK  status: ('A' for Active; 'I' for Inactive)
REMARK    1  A    between atoms: C_1  and  C_2
REMARK    2  A    between atoms: C_2  and  O_3
REMARK    3  A    between atoms: O_3  and  C_4
REMARK    4  A    between atoms: C_7  and  N_10
REMARK    5  A    between atoms: C_11  and  C_13
REMARK    6  A    between atoms: C_13  and  C_15
REMARK    7  A    between atoms: C_13  and  N_56
REMARK    8  A    between atoms: N_18  and  S_21
REMARK    9  A    between atoms: S_21  and  C_24
REMARK                            x       y       z     vdW  Elec       q    Type
REMARK                         _______ _______ _______ _____ _____    ______ ____
ROOT
ATOM      1  C   UNL     1       0.782  -1.534   1.023  0.00  0.00    -0.060 C 
ATOM      2  C   UNL     1       1.708  -2.228   2.026  0.00  0.00    +0.091 C 
ATOM      3  N   UNL     1       1.171  -2.021   3.380  0.00  0.00    -0.180 NA
ATOM      4  C   UNL     1       0.842  -0.648   3.794  0.00  0.00    +0.091 C 
ATOM      5  C   UNL     1      -0.051  -0.016   2.721  0.00  0.00    -0.060 C 
ATOM      6  N   UNL     1       0.635  -0.116   1.414  0.00  0.00    +0.389 N 
ATOM      7  H   UNL     1       1.568   0.305   1.495  0.00  0.00    -0.081 HD
ENDROOT
BRANCH   3   8
ATOM      8  S   UNL     1       0.943  -3.297   4.409  0.00  0.00    +0.062 S 
ATOM      9  O   UNL     1      -0.159  -2.958   5.239  0.00  0.00    -0.153 OA
ATOM     10  O   UNL     1       0.962  -4.472   3.610  0.00  0.00    -0.153 OA
BRANCH   8  11
ATOM     11  C   UNL     1       2.357  -3.380   5.458  0.00  0.00    +0.125 A 
ATOM     12  C   UNL     1       2.230  -3.121   6.810  0.00  0.00    +0.030 A 
ATOM     13  C   UNL     1       3.338  -3.185   7.634  0.00  0.00    +0.003 A 
ATOM     14  C   UNL     1       4.575  -3.507   7.106  0.00  0.00    +0.021 A 
ATOM     15  C   UNL     1       4.703  -3.765   5.753  0.00  0.00    +0.061 A 
ATOM     16  C   UNL     1       3.592  -3.708   4.929  0.00  0.00    +0.086 A 
ATOM     17 CL   UNL     1       3.750  -4.040   3.233  0.00  0.00    -0.080 Cl
ATOM     18 CL   UNL     1       6.256  -4.170   5.090  0.00  0.00    -0.082 Cl
ENDBRANCH   8  11
ENDBRANCH   3   8
BRANCH   6  19
ATOM     19  C   UNL     1      -0.133   0.615   0.385  0.00  0.00    +0.017 C 
ATOM     20  C   UNL     1      -1.618   0.255   0.466  0.00  0.00    -0.004 C 
BRANCH  19  22
ATOM     21  N   UNL     1      -0.442   2.976  -0.286  0.00  0.00    -0.287 N 
ATOM     22  C   UNL     1       0.039   2.095   0.614  0.00  0.00    +0.203 C 
ATOM     23  O   UNL     1       0.609   2.492   1.607  0.00  0.00    -0.277 OA
ATOM     24  H   UNL     1      -0.962   2.662  -1.042  0.00  0.00    +0.155 HD
BRANCH  21  28
ATOM     25  C   UNL     1       0.305   7.051   0.184  0.00  0.00    +0.121 A 
ATOM     26  C   UNL     1       0.255   6.497  -1.087  0.00  0.00    +0.047 A 
ATOM     27  C   UNL     1       0.008   5.148  -1.243  0.00  0.00    +0.027 A 
ATOM     28  C   UNL     1      -0.191   4.345  -0.128  0.00  0.00    +0.034 A 
ATOM     29  C   UNL     1      -0.146   4.901   1.144  0.00  0.00    +0.027 A 
ATOM     30  C   UNL     1       0.106   6.250   1.299  0.00  0.00    +0.047 A 
BRANCH  25  31
ATOM     31  O   UNL     1       0.548   8.380   0.338  0.00  0.00    -0.492 OA
BRANCH  31  33
ATOM     32  C   UNL     1       0.870  10.386   1.647  0.00  0.00    +0.048 C 
ATOM     33  C   UNL     1       0.585   8.883   1.675  0.00  0.00    +0.225 C 
ENDBRANCH  31  33
ENDBRANCH  25  31
ENDBRANCH  21  28
ENDBRANCH  19  22
ENDBRANCH   6  19
TORSDOF 7
