REMARK  Name = ZINC64951970
REMARK  4 active torsions:
REMARK  status: ('A' for Active; 'I' for Inactive)
REMARK    1  A    between atoms: C_1  and  C_2
REMARK    2  A    between atoms: C_12  and  S_15
REMARK    3  A    between atoms: S_15  and  N_18
REMARK    4  A    between atoms: N_21  and  C_24
REMARK                            x       y       z     vdW  Elec       q    Type
REMARK                         _______ _______ _______ _____ _____    ______ ____
ROOT
ATOM      1  S   UNL     1      -4.603   1.944   2.731  0.00  0.00    +0.061 S 
ATOM      2  O   UNL     1      -6.023   1.976   2.689  0.00  0.00    -0.153 OA
ATOM      3  O   UNL     1      -3.886   1.308   3.781  0.00  0.00    -0.153 OA
ENDROOT
BRANCH   1  15
ATOM      4  C   UNL     1      -0.041   1.509  -0.046  0.00  0.00    +0.109 C 
ATOM      5  C   UNL     1      -0.021   0.002  -0.061  0.00  0.00    +0.217 C 
ATOM      6  O   UNL     1       1.037  -0.590  -0.091  0.00  0.00    -0.276 OA
ATOM      7  N   UNL     1      -1.179  -0.687  -0.041  0.00  0.00    -0.270 N 
ATOM      8  C   UNL     1      -1.180  -2.159  -0.049  0.00  0.00    +0.114 C 
ATOM      9  C   UNL     1      -1.209  -2.696  -1.456  0.00  0.00    +0.030 C 
ATOM     10  C   UNL     1      -2.490  -2.431  -2.230  0.00  0.00    +0.076 C 
ATOM     11  S   UNL     1      -2.619  -0.666  -2.642  0.00  0.00    -0.123 S 
ATOM     12  C   UNL     1      -3.230   0.044  -1.131  0.00  0.00    +0.029 A 
ATOM     13  C   UNL     1      -2.408  -0.022  -0.006  0.00  0.00    +0.051 A 
ATOM     14  C   UNL     1      -2.834   0.575   1.176  0.00  0.00    +0.053 A 
ATOM     15  C   UNL     1      -4.071   1.190   1.230  0.00  0.00    +0.107 A 
ATOM     16  C   UNL     1      -4.896   1.219   0.121  0.00  0.00    +0.030 A 
ATOM     17  C   UNL     1      -4.472   0.643  -1.081  0.00  0.00    +0.018 A 
ENDBRANCH   1  15
BRANCH   1  18
ATOM     18  N   UNL     1      -4.092   3.519   2.696  0.00  0.00    -0.174 NA
ATOM     19  C   UNL     1      -2.774   3.890   3.229  0.00  0.00    +0.128 C 
ATOM     20  C   UNL     1      -1.991   4.623   2.133  0.00  0.00    +0.122 C 
ATOM     21  N   UNL     1      -2.848   5.675   1.567  0.00  0.00    -0.327 N 
ATOM     22  C   UNL     1      -4.166   5.303   1.034  0.00  0.00    +0.122 C 
ATOM     23  C   UNL     1      -4.947   4.569   2.125  0.00  0.00    +0.128 C 
BRANCH  21  24
ATOM     24  C   UNL     1      -2.417   7.004   1.537  0.00  0.00    +0.030 A 
ATOM     25  C   UNL     1      -1.221   7.362   2.146  0.00  0.00    +0.024 A 
ATOM     26  C   UNL     1      -0.798   8.676   2.115  0.00  0.00    +0.022 A 
ATOM     27  C   UNL     1      -1.564   9.636   1.477  0.00  0.00    +0.041 A 
ATOM     28  C   UNL     1      -2.756   9.282   0.869  0.00  0.00    +0.022 A 
ATOM     29  C   UNL     1      -3.181   7.968   0.893  0.00  0.00    +0.024 A 
ATOM     30 CL   UNL     1      -1.029  11.287   1.440  0.00  0.00    -0.084 Cl
ENDBRANCH  21  24
ENDBRANCH   1  18
TORSDOF 3
