REMARK  Name = ZINC37725524
REMARK  11 active torsions:
REMARK  status: ('A' for Active; 'I' for Inactive)
REMARK    1  A    between atoms: C_1  and  C_2
REMARK    2  A    between atoms: C_2  and  C_3
REMARK    3  A    between atoms: C_3  and  C_5
REMARK    4  A    between atoms: C_3  and  N_23
REMARK    5  A    between atoms: C_5  and  C_6
REMARK    6  A    between atoms: C_11  and  O_12
REMARK    7  A    between atoms: O_12  and  C_13
REMARK    8  A    between atoms: C_13  and  C_15
REMARK    9  A    between atoms: C_13  and  C_16
REMARK   10  A    between atoms: N_18  and  C_19
REMARK   11  A    between atoms: C_19  and  C_20
REMARK                            x       y       z     vdW  Elec       q    Type
REMARK                         _______ _______ _______ _____ _____    ______ ____
ROOT
ATOM      1  C   UNL     1       1.337  -2.328   2.648  0.00  0.00    -0.006 A 
ATOM      2  C   UNL     1       2.660  -2.728   2.668  0.00  0.00    +0.022 A 
ATOM      3  C   UNL     1       3.170  -3.378   3.777  0.00  0.00    +0.018 A 
ATOM      4  C   UNL     1       2.358  -3.630   4.869  0.00  0.00    +0.019 A 
ATOM      5  C   UNL     1       1.036  -3.232   4.853  0.00  0.00    +0.047 A 
ATOM      6  C   UNL     1       0.523  -2.575   3.744  0.00  0.00    +0.125 A 
ATOM      7 BR   UNL     1       4.981  -3.924   3.801  0.00  0.00    -0.050 Br
ENDROOT
BRANCH   1   8
ATOM      8  C   UNL     1       0.781  -1.620   1.440  0.00  0.00    +0.022 C 
BRANCH   8   9
ATOM      9  C   UNL     1       0.860  -0.107   1.654  0.00  0.00    -0.071 C 
BRANCH   9  10
ATOM     10  N   UNL     1       2.269   0.303   1.732  0.00  0.00    +0.380 N 
ATOM     11  H   UNL     1       2.321   1.301   1.873  0.00  0.00    -0.090 HD
ATOM     12  H   UNL     1       2.715  -0.170   2.503  0.00  0.00    -0.090 HD
ATOM     13  H   UNL     1       2.738   0.060   0.872  0.00  0.00    -0.090 HD
ENDBRANCH   9  10
BRANCH   9  15
ATOM     14  C   UNL     1       0.152   2.115   0.758  0.00  0.00    +0.002 C 
ATOM     15  C   UNL     1       0.184   0.610   0.484  0.00  0.00    -0.019 C 
ENDBRANCH   9  15
ENDBRANCH   8   9
ENDBRANCH   1   8
BRANCH   6  16
ATOM     16  O   UNL     1      -0.777  -2.179   3.729  0.00  0.00    -0.480 OA
BRANCH  16  17
ATOM     17  C   UNL     1      -1.525  -2.362   4.932  0.00  0.00    +0.255 C 
ATOM     18  C   UNL     1      -2.085  -3.785   4.973  0.00  0.00    +0.062 C 
BRANCH  17  19
ATOM     19  C   UNL     1      -2.663  -1.374   4.972  0.00  0.00    +0.254 C 
ATOM     20  O   UNL     1      -2.872  -0.652   4.021  0.00  0.00    -0.272 OA
ATOM     21  N   UNL     1      -3.447  -1.292   6.065  0.00  0.00    -0.309 N 
ATOM     22  H   UNL     1      -3.279  -1.870   6.826  0.00  0.00    +0.149 HD
BRANCH  21  23
ATOM     23  C   UNL     1      -4.552  -0.332   6.104  0.00  0.00    +0.131 C 
BRANCH  23  24
ATOM     24  C   UNL     1      -5.267  -0.442   7.426  0.00  0.00    -0.016 C 
ATOM     25  C   UNL     1      -5.420   0.620   8.178  0.00  0.00    +0.005 C 
ENDBRANCH  23  24
ENDBRANCH  21  23
ENDBRANCH  17  19
ENDBRANCH  16  17
ENDBRANCH   6  16
TORSDOF 9
