REMARK  Name = ZINC40755721
REMARK  6 active torsions:
REMARK  status: ('A' for Active; 'I' for Inactive)
REMARK    1  A    between atoms: C_1  and  C_2
REMARK    2  A    between atoms: C_5  and  S_8
REMARK    3  A    between atoms: S_8  and  C_9
REMARK    4  A    between atoms: C_10  and  N_26
REMARK    5  A    between atoms: C_11  and  N_15
REMARK    6  A    between atoms: N_15  and  C_16
REMARK                            x       y       z     vdW  Elec       q    Type
REMARK                         _______ _______ _______ _____ _____    ______ ____
ROOT
ATOM      1  C   UNL     1       0.227  -4.966   1.677  0.00  0.00    +0.127 A 
ATOM      2  C   UNL     1       0.392  -6.300   2.056  0.00  0.00    +0.097 A 
ATOM      3  C   UNL     1       0.517  -6.588   3.416  0.00  0.00    +0.144 A 
ATOM      4  N   UNL     1       0.475  -5.588   4.294  0.00  0.00    -0.219 NA
ATOM      5  C   UNL     1       0.318  -4.342   3.894  0.00  0.00    +0.224 A 
ATOM      6  N   UNL     1       0.201  -4.027   2.620  0.00  0.00    -0.227 NA
ENDROOT
BRANCH   2   7
ATOM      7  N   UNL     1       0.430  -7.324   1.096  0.00  0.00    -0.353 N 
ATOM      8  H   UNL     1       0.341  -7.108   0.154  0.00  0.00    +0.142 HD
ATOM      9  H   UNL     1       0.545  -8.246   1.374  0.00  0.00    +0.142 HD
ENDBRANCH   2   7
BRANCH   3  10
ATOM     10  N   UNL     1       0.683  -7.899   3.848  0.00  0.00    -0.322 N 
ATOM     11  H   UNL     1       0.712  -8.622   3.202  0.00  0.00    +0.148 HD
BRANCH  10  12
ATOM     12  C   UNL     1       0.813  -8.188   5.278  0.00  0.00    +0.034 C 
ATOM     13  C   UNL     1      -0.443  -7.714   6.011  0.00  0.00    +0.029 C 
ATOM     14  C   UNL     1      -0.307  -8.016   7.505  0.00  0.00    -0.008 C 
ATOM     15  C   UNL     1      -0.138  -9.523   7.706  0.00  0.00    +0.007 C 
ATOM     16  C   UNL     1       1.119  -9.998   6.973  0.00  0.00    -0.008 C 
ATOM     17  C   UNL     1       0.983  -9.695   5.480  0.00  0.00    +0.029 C 
ATOM     18  C   UNL     1       2.342  -9.268   7.532  0.00  0.00    +0.007 C 
ATOM     19  C   UNL     1       2.172  -7.761   7.330  0.00  0.00    -0.008 C 
ATOM     20  C   UNL     1       0.916  -7.286   8.063  0.00  0.00    +0.007 C 
ATOM     21  C   UNL     1       2.036  -7.458   5.837  0.00  0.00    +0.029 C 
ENDBRANCH  10  12
ENDBRANCH   3  10
BRANCH   1  22
ATOM     22  S   UNL     1       0.063  -4.533  -0.023  0.00  0.00    -0.068 S 
BRANCH  22  27
ATOM     23  C   UNL     1      -0.036   1.502   0.010  0.00  0.00    +0.044 C 
ATOM     24  C   UNL     1      -0.011  -0.004   0.002  0.00  0.00    -0.050 A 
ATOM     25  C   UNL     1       1.199  -0.674  -0.007  0.00  0.00    +0.004 A 
ATOM     26  C   UNL     1       1.225  -2.055  -0.015  0.00  0.00    +0.015 A 
ATOM     27  C   UNL     1       0.035  -2.771  -0.013  0.00  0.00    +0.014 A 
ATOM     28  C   UNL     1      -1.179  -2.094  -0.003  0.00  0.00    +0.015 A 
ATOM     29  C   UNL     1      -1.198  -0.714   0.009  0.00  0.00    +0.004 A 
ENDBRANCH  22  27
ENDBRANCH   1  22
TORSDOF 5
