REMARK  Name = ZINC49789950
REMARK  12 active torsions:
REMARK  status: ('A' for Active; 'I' for Inactive)
REMARK    1  A    between atoms: C_1  and  N_2
REMARK    2  A    between atoms: N_2  and  C_3
REMARK    3  A    between atoms: N_2  and  C_4
REMARK    4  A    between atoms: C_4  and  C_6
REMARK    5  A    between atoms: C_4  and  C_20
REMARK    6  A    between atoms: C_6  and  N_7
REMARK    7  A    between atoms: N_10  and  N_11
REMARK    8  A    between atoms: N_11  and  C_12
REMARK    9  A    between atoms: C_12  and  N_14
REMARK   10  A    between atoms: N_14  and  C_15
REMARK   11  A    between atoms: C_25  and  O_26
REMARK   12  A    between atoms: O_26  and  C_27
REMARK                            x       y       z     vdW  Elec       q    Type
REMARK                         _______ _______ _______ _____ _____    ______ ____
ROOT
ATOM      1  N   UNL     1      -1.702   1.302  -1.405  0.00  0.00    -0.299 N 
ATOM      2  C   UNL     1      -2.076   1.923  -2.541  0.00  0.00    +0.316 C 
ATOM      3  O   UNL     1      -2.647   1.300  -3.415  0.00  0.00    -0.251 OA
ATOM      4  N   UNL     1      -1.817   3.235  -2.708  0.00  0.00    -0.219 N 
ATOM      5  H   UNL     1      -1.246   1.799  -0.708  0.00  0.00    +0.150 HD
ATOM      6  H   UNL     1      -2.087   3.683  -3.525  0.00  0.00    +0.174 HD
ENDROOT
BRANCH   4   7
ATOM      7  N   UNL     1      -1.160   3.953  -1.700  0.00  0.00    -0.245 N 
ATOM      8  H   UNL     1      -0.890   3.506  -0.883  0.00  0.00    +0.172 HD
BRANCH   7   9
ATOM      9  C   UNL     1      -0.901   5.266  -1.867  0.00  0.00    +0.147 C 
ATOM     10  S   UNL     1      -0.098   6.143  -0.636  0.00  0.00    -0.017 S 
BRANCH   9  11
ATOM     11  N   UNL     1      -1.275   5.887  -3.003  0.00  0.00    -0.323 N 
ATOM     12  H   UNL     1      -1.731   5.390  -3.700  0.00  0.00    +0.148 HD
BRANCH  11  13
ATOM     13  C   UNL     1      -0.994   7.313  -3.184  0.00  0.00    +0.072 C 
ATOM     14  C   UNL     1      -2.146   8.157  -2.600  0.00  0.00    +0.022 C 
ATOM     15  C   UNL     1      -2.280   9.348  -3.581  0.00  0.00    +0.002 C 
ATOM     16  C   UNL     1      -2.029   8.686  -4.959  0.00  0.00    +0.002 C 
ATOM     17  C   UNL     1      -0.920   7.649  -4.684  0.00  0.00    +0.022 C 
ENDBRANCH  11  13
ENDBRANCH   9  11
ENDBRANCH   7   9
ENDBRANCH   4   7
BRANCH   1  18
ATOM     18  C   UNL     1      -1.983  -0.125  -1.224  0.00  0.00    +0.095 C 
BRANCH  18  19
ATOM     19  C   UNL     1      -1.353  -0.606   0.085  0.00  0.00    -0.017 C 
BRANCH  19  20
ATOM     20  C   UNL     1       0.147  -0.502  -0.012  0.00  0.00    -0.018 A 
ATOM     21  C   UNL     1       0.805   0.566   0.569  0.00  0.00    +0.005 A 
ATOM     22  C   UNL     1       2.181   0.662   0.481  0.00  0.00    +0.000 A 
ATOM     23  C   UNL     1       2.903  -0.309  -0.189  0.00  0.00    +0.004 A 
ATOM     24  C   UNL     1       2.251  -1.378  -0.771  0.00  0.00    +0.046 A 
ATOM     25  C   UNL     1       0.870  -1.480  -0.679  0.00  0.00    +0.122 A 
BRANCH  25  26
ATOM     26  O   UNL     1       0.226  -2.534  -1.246  0.00  0.00    -0.495 OA
ATOM     27  C   UNL     1       1.034  -3.503  -1.917  0.00  0.00    +0.277 C 
ENDBRANCH  25  26
ENDBRANCH  19  20
BRANCH  19  29
ATOM     28  C   UNL     1      -3.300   0.231   1.207  0.00  0.00    -0.096 C 
ATOM     29  N   UNL     1      -1.831   0.228   1.195  0.00  0.00    +0.382 N 
ATOM     30  C   UNL     1      -1.332  -0.314   2.465  0.00  0.00    -0.096 C 
ATOM     31  H   UNL     1      -1.494   1.172   1.076  0.00  0.00    -0.082 HD
ENDBRANCH  19  29
ENDBRANCH  18  19
ENDBRANCH   1  18
TORSDOF 9
