REMARK  Name = ZINC39560761
REMARK  10 active torsions:
REMARK  status: ('A' for Active; 'I' for Inactive)
REMARK    1  A    between atoms: C_1  and  N_2
REMARK    2  A    between atoms: N_2  and  C_3
REMARK    3  A    between atoms: N_2  and  C_4
REMARK    4  A    between atoms: C_4  and  C_5
REMARK    5  A    between atoms: C_5  and  N_6
REMARK    6  A    between atoms: N_6  and  C_7
REMARK    7  A    between atoms: C_10  and  C_32
REMARK    8  A    between atoms: C_26  and  C_28
REMARK    9  A    between atoms: C_28  and  O_30
REMARK   10  A    between atoms: O_30  and  C_31
REMARK                            x       y       z     vdW  Elec       q    Type
REMARK                         _______ _______ _______ _____ _____    ______ ____
ROOT
ATOM      1  C   UNL     1      -4.711  -1.250  -3.055  0.00  0.00    -0.068 C 
ATOM      2  C   UNL     1      -4.493   0.257  -3.206  0.00  0.00    +0.008 C 
ATOM      3  C   UNL     1      -5.197   0.991  -2.062  0.00  0.00    +0.087 C 
ATOM      4  N   UNL     1      -6.630   0.676  -2.092  0.00  0.00    -0.274 NA
ATOM      5  C   UNL     1      -6.857  -0.762  -1.883  0.00  0.00    +0.106 C 
ATOM      6  C   UNL     1      -6.214  -1.546  -3.029  0.00  0.00    +0.009 C 
ATOM      7  C   UNL     1      -8.345  -1.010  -1.867  0.00  0.00    +0.063 C 
ATOM      8  N   UNL     1      -8.983  -2.144  -2.002  0.00  0.00    -0.250 NA
ATOM      9  C   UNL     1     -10.303  -1.921  -1.927  0.00  0.00    +0.068 C 
ATOM     10  C   UNL     1     -11.379  -2.804  -2.012  0.00  0.00    +0.028 C 
ATOM     11  C   UNL     1     -12.676  -2.264  -1.894  0.00  0.00    -0.002 C 
ATOM     12  C   UNL     1     -12.921  -0.971  -1.709  0.00  0.00    -0.022 C 
ATOM     13  C   UNL     1     -11.869   0.096  -1.599  0.00  0.00    +0.064 C 
ATOM     14  C   UNL     1     -10.505  -0.521  -1.728  0.00  0.00    -0.013 C 
ATOM     15  C   UNL     1      -9.284   0.032  -1.691  0.00  0.00    -0.017 C 
ATOM     16  C   UNL     1      -8.879   1.473  -1.501  0.00  0.00    +0.067 C 
ATOM     17  C   UNL     1      -7.386   1.498  -1.141  0.00  0.00    +0.172 C 
ENDROOT
BRANCH   3  18
ATOM     18  C   UNL     1      -5.005   2.477  -2.224  0.00  0.00    -0.029 A 
ATOM     19  C   UNL     1      -5.796   3.184  -3.111  0.00  0.00    +0.005 A 
ATOM     20  C   UNL     1      -5.620   4.547  -3.260  0.00  0.00    +0.002 A 
ATOM     21  C   UNL     1      -4.653   5.204  -2.523  0.00  0.00    +0.020 A 
ATOM     22  C   UNL     1      -3.861   4.497  -1.636  0.00  0.00    +0.041 A 
ATOM     23  C   UNL     1      -4.042   3.134  -1.482  0.00  0.00    +0.025 A 
ATOM     24 CL   UNL     1      -2.646   5.322  -0.709  0.00  0.00    -0.084 Cl
ENDBRANCH   3  18
BRANCH   1  25
ATOM     25  N   UNL     1      -4.099  -1.711  -1.801  0.00  0.00    +0.382 N 
ATOM     26  H   UNL     1      -4.314  -2.687  -1.661  0.00  0.00    -0.085 HD
ATOM     27  H   UNL     1      -4.465  -1.172  -1.031  0.00  0.00    -0.085 HD
BRANCH  25  28
ATOM     28  C   UNL     1      -2.642  -1.536  -1.874  0.00  0.00    -0.067 C 
BRANCH  28  29
ATOM     29  C   UNL     1      -2.005  -2.015  -0.569  0.00  0.00    +0.065 C 
BRANCH  29  31
ATOM     30  C   UNL     1      -0.192  -0.416  -0.702  0.00  0.00    +0.104 C 
ATOM     31  N   UNL     1      -0.548  -1.840  -0.641  0.00  0.00    -0.310 NA
ATOM     32  C   UNL     1       0.118  -2.502   0.488  0.00  0.00    +0.104 C 
ENDBRANCH  29  31
ENDBRANCH  28  29
ENDBRANCH  25  28
ENDBRANCH   1  25
BRANCH  17  33
ATOM     33  C   UNL     1      -7.197   0.953   0.251  0.00  0.00    +0.325 C 
ATOM     34  O   UNL     1      -7.343  -0.227   0.463  0.00  0.00    -0.249 OA
BRANCH  33  35
ATOM     35  O   UNL     1      -6.867   1.780   1.256  0.00  0.00    -0.467 OA
ATOM     36  C   UNL     1      -6.704   1.196   2.550  0.00  0.00    +0.280 C 
ENDBRANCH  33  35
ENDBRANCH  17  33
TORSDOF 7
