REMARK  Name = ZINC50869379
REMARK  4 active torsions:
REMARK  status: ('A' for Active; 'I' for Inactive)
REMARK    1  A    between atoms: C_1  and  C_2
REMARK    2  A    between atoms: C_2  and  C_3
REMARK    3  A    between atoms: C_3  and  C_4
REMARK    4  A    between atoms: C_6  and  N_16
REMARK                            x       y       z     vdW  Elec       q    Type
REMARK                         _______ _______ _______ _____ _____    ______ ____
ROOT
ATOM      1  C   UNL     1      -1.413  -2.041   0.005  0.00  0.00    +0.044 A 
ATOM      2  C   UNL     1      -2.095  -2.730   0.998  0.00  0.00    +0.046 A 
ATOM      3  C   UNL     1      -2.085  -4.116   1.003  0.00  0.00    +0.036 A 
ATOM      4  C   UNL     1      -1.367  -4.776  -0.023  0.00  0.00    +0.023 A 
ATOM      5  C   UNL     1      -1.309  -6.175  -0.088  0.00  0.00    +0.027 A 
ATOM      6  C   UNL     1      -0.608  -6.775  -1.092  0.00  0.00    +0.020 A 
ATOM      7  C   UNL     1       0.052  -6.014  -2.055  0.00  0.00    +0.037 A 
ATOM      8  C   UNL     1       0.016  -4.653  -2.020  0.00  0.00    +0.068 A 
ATOM      9  C   UNL     1      -0.698  -4.000  -0.999  0.00  0.00    +0.091 A 
ATOM     10  N   UNL     1      -0.755  -2.664  -0.945  0.00  0.00    -0.250 NA
ATOM     11 CL   UNL     1       0.849  -3.728  -3.230  0.00  0.00    -0.081 Cl
ATOM     12 BR   UNL     1      -0.531  -8.662  -1.178  0.00  0.00    -0.050 Br
ENDROOT
BRANCH   3  13
ATOM     13  N   UNL     1      -2.756  -4.833   1.982  0.00  0.00    -0.357 N 
ATOM     14  H   UNL     1      -3.242  -4.364   2.678  0.00  0.00    +0.142 HD
ATOM     15  H   UNL     1      -2.738  -5.802   1.971  0.00  0.00    +0.142 HD
ENDBRANCH   3  13
BRANCH   1  16
ATOM     16  C   UNL     1      -1.433  -0.534   0.013  0.00  0.00    +0.055 C 
BRANCH  16  18
ATOM     17  C   UNL     1      -0.019   1.526   0.010  0.00  0.00    +0.004 C 
ATOM     18  C   UNL     1       0.002  -0.004   0.002  0.00  0.00    +0.003 C 
ENDBRANCH  16  18
ENDBRANCH   1  16
TORSDOF 3
