REMARK  Name = ZINC05329299
REMARK  5 active torsions:
REMARK  status: ('A' for Active; 'I' for Inactive)
REMARK    1  A    between atoms: C_1  and  C_2
REMARK    2  A    between atoms: C_4  and  N_14
REMARK    3  A    between atoms: C_7  and  N_8
REMARK    4  A    between atoms: N_14  and  S_15
REMARK    5  A    between atoms: S_15  and  C_18
REMARK                            x       y       z     vdW  Elec       q    Type
REMARK                         _______ _______ _______ _____ _____    ______ ____
ROOT
ATOM      1  C   UNL     1      -3.174  -0.445   5.159  0.00  0.00    +0.046 C 
ATOM      2  C   UNL     1      -3.062  -0.029   3.715  0.00  0.00    -0.027 A 
ATOM      3  C   UNL     1      -1.952   0.668   3.281  0.00  0.00    +0.029 A 
ATOM      4  C   UNL     1      -1.849   1.050   1.950  0.00  0.00    +0.048 A 
ATOM      5  C   UNL     1      -2.866   0.737   1.057  0.00  0.00    +0.026 A 
ATOM      6  C   UNL     1      -3.972   0.035   1.490  0.00  0.00    +0.025 A 
ATOM      7  C   UNL     1      -4.075  -0.348   2.821  0.00  0.00    +0.039 A 
ENDROOT
BRANCH   7   8
ATOM      8  N   UNL     1      -5.202  -1.055   3.261  0.00  0.00    -0.271 N 
ATOM      9  C   UNL     1      -6.421  -0.428   3.784  0.00  0.00    +0.114 C 
ATOM     10  C   UNL     1      -7.508  -1.527   3.720  0.00  0.00    +0.029 C 
ATOM     11  C   UNL     1      -6.655  -2.815   3.795  0.00  0.00    +0.098 C 
ATOM     12  C   UNL     1      -5.302  -2.396   3.264  0.00  0.00    +0.220 C 
ATOM     13  O   UNL     1      -4.434  -3.158   2.895  0.00  0.00    -0.275 OA
ENDBRANCH   7   8
BRANCH   4  14
ATOM     14  N   UNL     1      -0.724   1.756   1.510  0.00  0.00    -0.216 N 
ATOM     15  H   UNL     1      -0.388   2.504   2.028  0.00  0.00    +0.174 HD
BRANCH  14  16
ATOM     16  S   UNL     1       0.033   1.315   0.105  0.00  0.00    +0.074 S 
ATOM     17  O   UNL     1       1.185   2.139  -0.012  0.00  0.00    -0.150 OA
ATOM     18  O   UNL     1      -0.971   1.263  -0.899  0.00  0.00    -0.150 OA
BRANCH  16  19
ATOM     19  C   UNL     1       0.613  -0.335   0.322  0.00  0.00    +0.128 A 
ATOM     20  C   UNL     1       0.097  -1.357  -0.453  0.00  0.00    +0.050 A 
ATOM     21  C   UNL     1       0.552  -2.651  -0.282  0.00  0.00    +0.043 A 
ATOM     22  C   UNL     1       1.525  -2.924   0.663  0.00  0.00    +0.021 A 
ATOM     23  C   UNL     1       2.041  -1.903   1.438  0.00  0.00    +0.023 A 
ATOM     24  C   UNL     1       1.590  -0.606   1.263  0.00  0.00    +0.068 A 
ATOM     25 CL   UNL     1       2.244   0.678   2.231  0.00  0.00    -0.082 Cl
ATOM     26 CL   UNL     1      -0.096  -3.935  -1.255  0.00  0.00    -0.083 Cl
ENDBRANCH  16  19
ENDBRANCH  14  16
ENDBRANCH   4  14
TORSDOF 4
