REMARK  Name = ZINC39480162
REMARK  5 active torsions:
REMARK  status: ('A' for Active; 'I' for Inactive)
REMARK    1  A    between atoms: C_1  and  C_2
REMARK    2  A    between atoms: C_2  and  C_3
REMARK    3  A    between atoms: C_2  and  S_4
REMARK    4  A    between atoms: S_4  and  C_7
REMARK    5  A    between atoms: N_16  and  C_26
REMARK                            x       y       z     vdW  Elec       q    Type
REMARK                         _______ _______ _______ _____ _____    ______ ____
ROOT
ATOM      1  C   UNL     1      -2.433   0.018  -1.449  0.00  0.00    +0.159 C 
ATOM      2  N   UNL     1      -2.447  -0.692  -2.480  0.00  0.00    -0.227 NA
ATOM      3  C   UNL     1      -2.872  -0.830  -3.729  0.00  0.00    +0.142 A 
ATOM      4  C   UNL     1      -3.810  -0.022  -4.396  0.00  0.00    +0.156 A 
ATOM      5  N   UNL     1      -4.216  -0.350  -5.619  0.00  0.00    -0.218 NA
ATOM      6  C   UNL     1      -3.710  -1.386  -6.254  0.00  0.00    +0.225 A 
ATOM      7  N   UNL     1      -2.782  -2.141  -5.698  0.00  0.00    -0.222 NA
ATOM      8  C   UNL     1      -2.350  -1.909  -4.474  0.00  0.00    +0.160 A 
ATOM      9 CL   UNL     1      -1.135  -2.935  -3.778  0.00  0.00    -0.060 Cl
ATOM     10  N   UNL     1      -4.284   1.148  -3.834  0.00  0.00    -0.285 N 
ATOM     11  C   UNL     1      -5.119   1.122  -2.712  0.00  0.00    +0.053 A 
ATOM     12  C   UNL     1      -4.522   1.286  -1.477  0.00  0.00    -0.016 A 
ATOM     13  C   UNL     1      -5.291   1.305  -0.332  0.00  0.00    +0.026 A 
ATOM     14  C   UNL     1      -6.663   1.137  -0.430  0.00  0.00    +0.042 A 
ATOM     15  C   UNL     1      -7.260   0.952  -1.665  0.00  0.00    +0.037 A 
ATOM     16  C   UNL     1      -6.489   0.944  -2.816  0.00  0.00    +0.041 A 
ATOM     17 BR   UNL     1      -7.295   0.694  -4.508  0.00  0.00    -0.048 Br
ATOM     18 CL   UNL     1      -7.640   1.157   1.005  0.00  0.00    -0.083 Cl
ATOM     19  C   UNL     1      -3.025   1.407  -1.408  0.00  0.00    +0.112 C 
ATOM     20  C   UNL     1      -3.906   2.435  -4.422  0.00  0.00    +0.137 C 
ENDROOT
BRANCH   1  21
ATOM     21  S   UNL     1      -1.700  -0.632   0.015  0.00  0.00    +0.013 S 
ATOM     22  O   UNL     1      -1.703  -2.041  -0.172  0.00  0.00    -0.168 OA
ATOM     23  O   UNL     1      -2.431  -0.041   1.080  0.00  0.00    -0.168 OA
BRANCH  21  25
ATOM     24  C   UNL     1      -0.019   1.526   0.010  0.00  0.00    +0.032 C 
ATOM     25  C   UNL     1       0.002  -0.004   0.002  0.00  0.00    +0.131 C 
ATOM     26  C   UNL     1       0.742  -0.511   1.242  0.00  0.00    +0.032 C 
ENDBRANCH  21  25
ENDBRANCH   1  21
TORSDOF 2
