REMARK  Name = ZINC51296434
REMARK  2 active torsions:
REMARK  status: ('A' for Active; 'I' for Inactive)
REMARK    1  A    between atoms: C_6  and  N_7
REMARK    2  A    between atoms: C_12  and  C_14
REMARK                            x       y       z     vdW  Elec       q    Type
REMARK                         _______ _______ _______ _____ _____    ______ ____
ROOT
ATOM      1  C   UNL     1      -0.023   1.281  -0.594  0.00  0.00    +0.023 A 
ATOM      2  C   UNL     1       1.103   1.790  -1.207  0.00  0.00    +0.007 A 
ATOM      3  C   UNL     1       2.289   1.074  -1.202  0.00  0.00    -0.026 A 
ATOM      4  C   UNL     1       2.342  -0.162  -0.574  0.00  0.00    +0.041 A 
ATOM      5  C   UNL     1       1.211  -0.679   0.043  0.00  0.00    +0.046 A 
ATOM      6  C   UNL     1       0.025   0.042   0.034  0.00  0.00    +0.026 A 
ATOM      7  N   UNL     1       3.532  -0.902  -0.547  0.00  0.00    -0.267 N 
ATOM      8  C   UNL     1       4.633  -0.509  -1.436  0.00  0.00    +0.114 C 
ATOM      9  C   UNL     1       4.777   1.016  -1.359  0.00  0.00    +0.024 C 
ATOM     10  C   UNL     1       3.496   1.661  -1.887  0.00  0.00    +0.038 C 
ATOM     11  C   UNL     1       3.663  -1.956   0.282  0.00  0.00    +0.252 C 
ATOM     12  O   UNL     1       2.712  -2.337   0.937  0.00  0.00    -0.270 OA
ENDROOT
BRANCH  11  13
ATOM     13  C   UNL     1       4.962  -2.650   0.395  0.00  0.00    +0.056 A 
ATOM     14  C   UNL     1       6.153  -1.924   0.319  0.00  0.00    +0.015 A 
ATOM     15  C   UNL     1       7.363  -2.577   0.426  0.00  0.00    +0.016 A 
ATOM     16  C   UNL     1       7.400  -3.950   0.606  0.00  0.00    +0.019 A 
ATOM     17  C   UNL     1       6.224  -4.676   0.682  0.00  0.00    +0.036 A 
ATOM     18  C   UNL     1       5.005  -4.034   0.583  0.00  0.00    +0.054 A 
ATOM     19 CL   UNL     1       3.531  -4.944   0.685  0.00  0.00    -0.083 Cl
ATOM     20 BR   UNL     1       9.064  -4.836   0.750  0.00  0.00    -0.050 Br
ENDBRANCH  11  13
BRANCH   6  21
ATOM     21  N   UNL     1      -1.114  -0.475   0.653  0.00  0.00    -0.358 N 
ATOM     22  H   UNL     1      -1.918   0.064   0.718  0.00  0.00    +0.142 HD
ATOM     23  H   UNL     1      -1.102  -1.374   1.018  0.00  0.00    +0.142 HD
ENDBRANCH   6  21
TORSDOF 2
