REMARK  Name = ZINC64202820
REMARK  6 active torsions:
REMARK  status: ('A' for Active; 'I' for Inactive)
REMARK    1  A    between atoms: C_1  and  C_2
REMARK    2  A    between atoms: C_2  and  S_3
REMARK    3  A    between atoms: S_3  and  N_6
REMARK    4  A    between atoms: C_9  and  N_12
REMARK    5  A    between atoms: C_13  and  C_15
REMARK    6  A    between atoms: C_15  and  C_16
REMARK                            x       y       z     vdW  Elec       q    Type
REMARK                         _______ _______ _______ _____ _____    ______ ____
ROOT
ATOM      1  N   UNL     1       1.789  -5.971  -3.031  0.00  0.00    -0.312 N 
ATOM      2  C   UNL     1       1.113  -7.128  -3.176  0.00  0.00    +0.217 C 
ATOM      3  O   UNL     1       0.076  -7.304  -2.572  0.00  0.00    -0.275 OA
ATOM      4  H   UNL     1       2.618  -5.830  -3.513  0.00  0.00    +0.149 HD
ENDROOT
BRANCH   1   8
ATOM      5  N   UNL     1       0.808  -2.241  -1.384  0.00  0.00    -0.181 NA
ATOM      6  C   UNL     1       1.887  -2.976  -0.709  0.00  0.00    +0.111 C 
ATOM      7  C   UNL     1       2.427  -4.046  -1.664  0.00  0.00    +0.039 C 
ATOM      8  C   UNL     1       1.271  -4.926  -2.144  0.00  0.00    +0.075 C 
ATOM      9  C   UNL     1       0.256  -4.069  -2.903  0.00  0.00    +0.039 C 
ATOM     10  C   UNL     1      -0.311  -2.999  -1.958  0.00  0.00    +0.111 C 
BRANCH   5  11
ATOM     11  S   UNL     1       0.851  -0.589  -1.490  0.00  0.00    +0.032 S 
ATOM     12  O   UNL     1       0.082  -0.280  -2.644  0.00  0.00    -0.158 OA
ATOM     13  O   UNL     1       2.232  -0.257  -1.430  0.00  0.00    -0.158 OA
BRANCH  11  15
ATOM     14  C   UNL     1      -0.019   1.526   0.010  0.00  0.00    +0.029 C 
ATOM     15  C   UNL     1       0.002  -0.004   0.002  0.00  0.00    +0.182 C 
ENDBRANCH  11  15
ENDBRANCH   5  11
ENDBRANCH   1   8
BRANCH   2  16
ATOM     16  C   UNL     1       1.645  -8.202  -4.088  0.00  0.00    +0.129 C 
BRANCH  16  17
ATOM     17  C   UNL     1       0.710  -9.384  -4.073  0.00  0.00    -0.033 C 
ATOM     18  C   UNL     1      -0.286  -9.644  -4.950  0.00  0.00    -0.001 A 
ATOM     19  C   UNL     1      -0.778  -8.932  -6.136  0.00  0.00    +0.010 A 
ATOM     20  C   UNL     1      -1.817  -9.452  -6.828  0.00  0.00    +0.001 A 
ATOM     21  C   UNL     1      -2.434 -10.649  -6.443  0.00  0.00    +0.002 A 
ATOM     22  C   UNL     1      -2.039 -11.360  -5.366  0.00  0.00    +0.026 A 
ATOM     23  C   UNL     1      -0.955 -10.907  -4.565  0.00  0.00    +0.043 A 
ATOM     24  N   UNL     1      -0.394 -11.408  -3.491  0.00  0.00    -0.380 N 
ATOM     25  C   UNL     1       0.699 -10.522  -3.076  0.00  0.00    +0.145 C 
ATOM     26  H   UNL     1      -0.655 -12.230  -3.046  0.00  0.00    +0.160 HD
ENDBRANCH  16  17
ENDBRANCH   2  16
TORSDOF 5
