REMARK  Name = ZINC67346273
REMARK  2 active torsions:
REMARK  status: ('A' for Active; 'I' for Inactive)
REMARK    1  A    between atoms: C_4  and  O_20
REMARK    2  A    between atoms: C_5  and  N_7
REMARK                            x       y       z     vdW  Elec       q    Type
REMARK                         _______ _______ _______ _____ _____    ______ ____
ROOT
ATOM      1  N   UNL     1       1.235  -2.080  -0.021  0.00  0.00    -0.324 N 
ATOM      2  C   UNL     1       1.252  -2.836   1.239  0.00  0.00    +0.124 C 
ATOM      3  C   UNL     1       0.073  -3.816   1.240  0.00  0.00    +0.127 C 
ATOM      4  N   UNL     1       0.078  -4.557  -0.030  0.00  0.00    -0.297 N 
ATOM      5  C   UNL     1       0.060  -3.802  -1.290  0.00  0.00    +0.127 C 
ATOM      6  C   UNL     1       1.234  -2.821  -1.291  0.00  0.00    +0.124 C 
ATOM      7  C   UNL     1       0.100  -5.941  -0.038  0.00  0.00    +0.218 A 
ATOM      8  N   UNL     1       0.110  -6.594   1.115  0.00  0.00    -0.222 NA
ATOM      9  C   UNL     1       0.131  -7.917   1.143  0.00  0.00    +0.131 A 
ATOM     10  C   UNL     1       0.141  -8.618  -0.054  0.00  0.00    +0.054 A 
ATOM     11  C   UNL     1       0.129  -7.903  -1.242  0.00  0.00    +0.131 A 
ATOM     12  N   UNL     1       0.103  -6.581  -1.198  0.00  0.00    -0.222 NA
ATOM     13 BR   UNL     1       0.171 -10.509  -0.065  0.00  0.00    -0.047 Br
ENDROOT
BRANCH   1  18
ATOM     14  C   UNL     1      -0.017   1.378   0.010  0.00  0.00    +0.002 A 
ATOM     15  C   UNL     1       1.169   2.089   0.002  0.00  0.00    +0.004 A 
ATOM     16  C   UNL     1       2.380   1.421  -0.013  0.00  0.00    +0.047 A 
ATOM     17  C   UNL     1       2.407   0.036  -0.021  0.00  0.00    +0.138 A 
ATOM     18  C   UNL     1       1.213  -0.681  -0.013  0.00  0.00    +0.072 A 
ATOM     19  C   UNL     1       0.002  -0.004   0.002  0.00  0.00    +0.027 A 
BRANCH  17  20
ATOM     20  O   UNL     1       3.598  -0.622  -0.036  0.00  0.00    -0.505 OA
ATOM     21  H   UNL     1       3.950  -0.817   0.843  0.00  0.00    +0.292 HD
ENDBRANCH  17  20
ENDBRANCH   1  18
TORSDOF 2
