REMARK  Name = ZINC00832617
REMARK  11 active torsions:
REMARK  status: ('A' for Active; 'I' for Inactive)
REMARK    1  A    between atoms: C_1  and  C_2
REMARK    2  A    between atoms: C_2  and  O_3
REMARK    3  A    between atoms: O_3  and  C_4
REMARK    4  A    between atoms: C_4  and  C_6
REMARK    5  A    between atoms: C_7  and  C_38
REMARK    6  A    between atoms: C_14  and  C_15
REMARK    7  A    between atoms: C_26  and  C_28
REMARK    8  A    between atoms: C_31  and  O_36
REMARK    9  A    between atoms: C_32  and  O_34
REMARK   10  A    between atoms: O_34  and  C_35
REMARK   11  A    between atoms: O_36  and  C_37
REMARK                            x       y       z     vdW  Elec       q    Type
REMARK                         _______ _______ _______ _____ _____    ______ ____
ROOT
ATOM      1  C   UNL     1      -2.941   4.521   1.117  0.00  0.00    +0.085 C 
ATOM      2  C   UNL     1      -4.130   4.021   1.566  0.00  0.00    +0.053 C 
ATOM      3  N   UNL     1      -4.907   3.305   0.763  0.00  0.00    -0.228 NA
ATOM      4  C   UNL     1      -4.629   3.018  -0.484  0.00  0.00    +0.178 A 
ATOM      5  N   UNL     1      -3.486   3.423  -1.131  0.00  0.00    -0.275 N 
ATOM      6  C   UNL     1      -3.312   3.068  -2.411  0.00  0.00    +0.268 A 
ATOM      7  O   UNL     1      -2.315   3.404  -3.025  0.00  0.00    -0.266 OA
ATOM      8  C   UNL     1      -4.359   2.261  -3.051  0.00  0.00    +0.081 A 
ATOM      9  C   UNL     1      -4.422   1.777  -4.319  0.00  0.00    +0.029 C 
ATOM     10  S   UNL     1      -5.526   2.086  -1.711  0.00  0.00    -0.046 S 
ATOM     11  C   UNL     1      -2.543   4.236  -0.313  0.00  0.00    +0.162 C 
ATOM     12  C   UNL     1      -4.563   4.283   2.986  0.00  0.00    +0.066 C 
ENDROOT
BRANCH   9  13
ATOM     13  C   UNL     1      -5.649   1.129  -4.798  0.00  0.00    -0.006 A 
ATOM     14  C   UNL     1      -6.861   1.338  -4.128  0.00  0.00    +0.058 A 
ATOM     15  C   UNL     1      -8.012   0.727  -4.581  0.00  0.00    +0.167 A 
ATOM     16  C   UNL     1      -7.968  -0.099  -5.707  0.00  0.00    +0.167 A 
ATOM     17  C   UNL     1      -6.767  -0.307  -6.371  0.00  0.00    +0.065 A 
ATOM     18  C   UNL     1      -5.613   0.304  -5.929  0.00  0.00    +0.029 A 
ATOM     19 BR   UNL     1      -3.982   0.022  -6.844  0.00  0.00    -0.050 Br
ATOM     20  O   UNL     1      -9.223  -0.576  -5.945  0.00  0.00    -0.453 OA
ATOM     21  C   UNL     1     -10.110   0.286  -5.207  0.00  0.00    +0.466 C 
ATOM     22  O   UNL     1      -9.296   0.764  -4.120  0.00  0.00    -0.453 OA
ENDBRANCH   9  13
BRANCH  11  23
ATOM     23  C   UNL     1      -1.215   3.524  -0.292  0.00  0.00    -0.016 A 
ATOM     24  C   UNL     1      -0.059   4.211  -0.614  0.00  0.00    +0.010 A 
ATOM     25  C   UNL     1       1.161   3.561  -0.602  0.00  0.00    +0.050 A 
ATOM     26  C   UNL     1       1.228   2.221  -0.255  0.00  0.00    +0.162 A 
ATOM     27  C   UNL     1       0.066   1.531   0.074  0.00  0.00    +0.162 A 
ATOM     28  C   UNL     1      -1.155   2.187   0.054  0.00  0.00    +0.055 A 
BRANCH  27  29
ATOM     29  O   UNL     1       0.127   0.216   0.414  0.00  0.00    -0.491 OA
ATOM     30  C   UNL     1      -1.087  -0.398   0.854  0.00  0.00    +0.277 C 
ENDBRANCH  27  29
BRANCH  26  31
ATOM     31  O   UNL     1       2.429   1.581  -0.237  0.00  0.00    -0.491 OA
ATOM     32  C   UNL     1       3.580   2.352  -0.586  0.00  0.00    +0.277 C 
ENDBRANCH  26  31
ENDBRANCH  11  23
BRANCH   1  33
ATOM     33  C   UNL     1      -2.111   5.278   1.961  0.00  0.00    +0.339 C 
ATOM     34  O   UNL     1      -2.419   5.445   3.127  0.00  0.00    -0.245 OA
BRANCH  33  35
ATOM     35  O   UNL     1      -0.973   5.822   1.478  0.00  0.00    -0.462 OA
BRANCH  35  37
ATOM     36  C   UNL     1       1.042   7.141   1.672  0.00  0.00    +0.048 C 
ATOM     37  C   UNL     1      -0.124   6.488   2.415  0.00  0.00    +0.229 C 
ENDBRANCH  35  37
ENDBRANCH  33  35
ENDBRANCH   1  33
TORSDOF 7
