REMARK  Name = ZINC62705202
REMARK  12 active torsions:
REMARK  status: ('A' for Active; 'I' for Inactive)
REMARK    1  A    between atoms: C_1  and  C_2
REMARK    2  A    between atoms: C_2  and  C_3
REMARK    3  A    between atoms: C_3  and  N_4
REMARK    4  A    between atoms: C_5  and  C_7
REMARK    5  A    between atoms: C_7  and  C_9
REMARK    6  A    between atoms: C_7  and  O_10
REMARK    7  A    between atoms: O_10  and  C_11
REMARK    8  A    between atoms: C_14  and  C_18
REMARK    9  A    between atoms: C_18  and  C_19
REMARK   10  A    between atoms: C_19  and  C_21
REMARK   11  A    between atoms: C_19  and  N_23
REMARK   12  A    between atoms: C_21  and  C_22
REMARK                            x       y       z     vdW  Elec       q    Type
REMARK                         _______ _______ _______ _____ _____    ______ ____
ROOT
ATOM      1  C   UNL     1      -4.033  -5.936   0.655  0.00  0.00    +0.136 A 
ATOM      2  C   UNL     1      -2.929  -6.622   1.139  0.00  0.00    +0.047 A 
ATOM      3  C   UNL     1      -3.082  -7.888   1.670  0.00  0.00    +0.007 A 
ATOM      4  C   UNL     1      -4.335  -8.472   1.721  0.00  0.00    -0.048 A 
ATOM      5  C   UNL     1      -5.437  -7.790   1.240  0.00  0.00    +0.022 A 
ATOM      6  C   UNL     1      -5.291  -6.521   0.712  0.00  0.00    +0.060 A 
ATOM      7 BR   UNL     1      -6.800  -5.586   0.061  0.00  0.00    -0.047 Br
ENDROOT
BRANCH   1   8
ATOM      8  O   UNL     1      -3.885  -4.690   0.131  0.00  0.00    -0.479 OA
BRANCH   8   9
ATOM      9  C   UNL     1      -2.587  -4.099   0.220  0.00  0.00    +0.255 C 
ATOM     10  C   UNL     1      -1.732  -4.567  -0.960  0.00  0.00    +0.062 C 
BRANCH   9  12
ATOM     11  N   UNL     1      -1.625  -1.825   0.356  0.00  0.00    -0.312 N 
ATOM     12  C   UNL     1      -2.715  -2.598   0.184  0.00  0.00    +0.254 C 
ATOM     13  O   UNL     1      -3.799  -2.086   0.001  0.00  0.00    -0.272 OA
ATOM     14  H   UNL     1      -0.758  -2.234   0.502  0.00  0.00    +0.149 HD
BRANCH  11  15
ATOM     15  C   UNL     1      -1.749  -0.365   0.321  0.00  0.00    +0.104 C 
BRANCH  15  17
ATOM     16  C   UNL     1      -0.504   1.793   0.504  0.00  0.00    +0.005 C 
ATOM     17  C   UNL     1      -0.374   0.269   0.541  0.00  0.00    +0.015 C 
ENDBRANCH  15  17
ENDBRANCH  11  15
ENDBRANCH   9  12
ENDBRANCH   8   9
ENDBRANCH   1   8
BRANCH   4  18
ATOM     18  C   UNL     1      -4.498  -9.853   2.301  0.00  0.00    +0.019 C 
BRANCH  18  19
ATOM     19  C   UNL     1      -4.768  -9.746   3.803  0.00  0.00    -0.071 C 
BRANCH  19  20
ATOM     20  N   UNL     1      -3.590  -9.180   4.473  0.00  0.00    +0.380 N 
ATOM     21  H   UNL     1      -3.399  -8.262   4.100  0.00  0.00    -0.090 HD
ATOM     22  H   UNL     1      -3.768  -9.110   5.464  0.00  0.00    -0.090 HD
ATOM     23  H   UNL     1      -2.793  -9.779   4.316  0.00  0.00    -0.090 HD
ENDBRANCH  19  20
BRANCH  19  24
ATOM     24  C   UNL     1      -5.057 -11.138   4.369  0.00  0.00    -0.019 C 
ATOM     25  C   UNL     1      -5.449 -11.018   5.843  0.00  0.00    +0.002 C 
ENDBRANCH  19  24
ENDBRANCH  18  19
ENDBRANCH   4  18
TORSDOF 9
