REMARK  Name = ZINC63572136
REMARK  6 active torsions:
REMARK  status: ('A' for Active; 'I' for Inactive)
REMARK    1  A    between atoms: C_1  and  O_2
REMARK    2  A    between atoms: O_2  and  C_3
REMARK    3  A    between atoms: C_6  and  C_9
REMARK    4  A    between atoms: N_27  and  C_28
REMARK    5  A    between atoms: C_33  and  O_34
REMARK    6  A    between atoms: O_34  and  C_35
REMARK                            x       y       z     vdW  Elec       q    Type
REMARK                         _______ _______ _______ _____ _____    ______ ____
ROOT
ATOM      1  C   UNL     1      -4.876  -3.368   0.556  0.00  0.00    +0.134 C 
ATOM      2  C   UNL     1      -5.361  -4.276   1.692  0.00  0.00    +0.131 C 
ATOM      3  C   UNL     1      -6.667  -4.902   1.220  0.00  0.00    -0.035 C 
ATOM      4  C   UNL     1      -7.579  -4.602   2.138  0.00  0.00    +0.001 A 
ATOM      5  C   UNL     1      -8.995  -4.980   2.270  0.00  0.00    +0.030 A 
ATOM      6  C   UNL     1      -9.652  -4.475   3.350  0.00  0.00    +0.042 A 
ATOM      7  C   UNL     1      -9.047  -3.643   4.298  0.00  0.00    +0.022 A 
ATOM      8  C   UNL     1      -7.750  -3.248   4.256  0.00  0.00    +0.027 A 
ATOM      9  C   UNL     1      -6.955  -3.719   3.170  0.00  0.00    +0.043 A 
ATOM     10  N   UNL     1      -5.678  -3.514   2.901  0.00  0.00    -0.375 N 
ATOM     11 CL   UNL     1     -11.325  -4.885   3.561  0.00  0.00    -0.084 Cl
ATOM     12  C   UNL     1      -6.789  -5.629  -0.096  0.00  0.00    +0.052 C 
ATOM     13  C   UNL     1      -6.202  -4.697  -1.172  0.00  0.00    +0.114 C 
ATOM     14  N   UNL     1      -4.933  -4.139  -0.695  0.00  0.00    -0.276 N 
ATOM     15  C   UNL     1      -3.807  -4.336  -1.409  0.00  0.00    +0.307 C 
ATOM     16  O   UNL     1      -2.732  -3.990  -0.958  0.00  0.00    -0.252 OA
ATOM     17  N   UNL     1      -3.872  -4.917  -2.624  0.00  0.00    -0.266 N 
ATOM     18  H   UNL     1      -4.734  -5.118  -3.020  0.00  0.00    +0.156 HD
ATOM     19  H   UNL     1      -5.058  -2.960   3.401  0.00  0.00    +0.160 HD
ENDROOT
BRANCH  17  20
ATOM     20  C   UNL     1      -2.694  -5.230  -3.315  0.00  0.00    +0.078 A 
ATOM     21  C   UNL     1      -1.537  -4.499  -3.085  0.00  0.00    +0.047 A 
ATOM     22  C   UNL     1      -0.376  -4.810  -3.768  0.00  0.00    +0.043 A 
ATOM     23  C   UNL     1      -0.364  -5.849  -4.681  0.00  0.00    +0.024 A 
ATOM     24  C   UNL     1      -1.513  -6.581  -4.915  0.00  0.00    +0.049 A 
ATOM     25  C   UNL     1      -2.679  -6.279  -4.231  0.00  0.00    +0.141 A 
ATOM     26 CL   UNL     1       1.071  -3.895  -3.479  0.00  0.00    -0.083 Cl
BRANCH  25  27
ATOM     27  O   UNL     1      -3.809  -7.002  -4.457  0.00  0.00    -0.493 OA
ATOM     28  C   UNL     1      -3.721  -8.063  -5.410  0.00  0.00    +0.277 C 
ENDBRANCH  25  27
ENDBRANCH  17  20
BRANCH   1  32
ATOM     29  C   UNL     1      -0.857  -2.129   1.310  0.00  0.00    +0.120 A 
ATOM     30  C   UNL     1      -1.268  -3.405   1.666  0.00  0.00    +0.046 A 
ATOM     31  C   UNL     1      -2.568  -3.803   1.421  0.00  0.00    +0.009 A 
ATOM     32  C   UNL     1      -3.459  -2.931   0.823  0.00  0.00    -0.024 A 
ATOM     33  C   UNL     1      -3.050  -1.659   0.467  0.00  0.00    +0.009 A 
ATOM     34  C   UNL     1      -1.753  -1.253   0.715  0.00  0.00    +0.046 A 
BRANCH  29  36
ATOM     35  C   UNL     1       1.290  -2.688   2.166  0.00  0.00    +0.277 C 
ATOM     36  O   UNL     1       0.422  -1.734   1.550  0.00  0.00    -0.495 OA
ENDBRANCH  29  36
ENDBRANCH   1  32
TORSDOF 4
