REMARK  Name = ZINC12251112
REMARK  4 active torsions:
REMARK  status: ('A' for Active; 'I' for Inactive)
REMARK    1  A    between atoms: C_4  and  N_28
REMARK    2  A    between atoms: C_5  and  C_7
REMARK    3  A    between atoms: N_14  and  C_21
REMARK    4  A    between atoms: C_18  and  C_19
REMARK                            x       y       z     vdW  Elec       q    Type
REMARK                         _______ _______ _______ _____ _____    ______ ____
ROOT
ATOM      1  C   UNL     1       2.589   2.513   0.529  0.00  0.00    +0.073 C 
ATOM      2  C   UNL     1       3.720   2.413   1.557  0.00  0.00    +0.110 C 
ATOM      3  C   UNL     1       4.449   1.112   1.371  0.00  0.00    +0.222 C 
ATOM      4  O   UNL     1       5.647   1.071   1.549  0.00  0.00    -0.275 OA
ATOM      5  N   UNL     1       3.790  -0.018   1.008  0.00  0.00    -0.248 N 
ATOM      6  C   UNL     1       4.586  -1.220   0.839  0.00  0.00    +0.222 C 
ATOM      7  N   UNL     1       3.908  -2.492   0.844  0.00  0.00    -0.304 N 
ATOM      8  C   UNL     1       2.671  -2.547   0.061  0.00  0.00    +0.182 C 
ATOM      9  S   UNL     1       1.470  -1.440   0.856  0.00  0.00    -0.090 S 
ATOM     10  C   UNL     1       2.429   0.045   0.795  0.00  0.00    +0.087 C 
ATOM     11  C   UNL     1       1.801   1.228   0.557  0.00  0.00    +0.065 C 
ENDROOT
BRANCH   7  12
ATOM     12  C   UNL     1       4.777  -3.524   0.481  0.00  0.00    +0.032 A 
ATOM     13  C   UNL     1       6.101  -3.242   0.171  0.00  0.00    +0.024 A 
ATOM     14  C   UNL     1       6.959  -4.266  -0.182  0.00  0.00    +0.017 A 
ATOM     15  C   UNL     1       6.498  -5.569  -0.237  0.00  0.00    +0.018 A 
ATOM     16  C   UNL     1       5.178  -5.852   0.066  0.00  0.00    +0.017 A 
ATOM     17  C   UNL     1       4.317  -4.833   0.425  0.00  0.00    +0.024 A 
ATOM     18 BR   UNL     1       7.673  -6.966  -0.728  0.00  0.00    -0.050 Br
ENDBRANCH   7  12
BRANCH   1  23
ATOM     19  C   UNL     1       0.325   4.826   2.473  0.00  0.00    +0.000 A 
ATOM     20  C   UNL     1       0.031   5.787   1.523  0.00  0.00    +0.002 A 
ATOM     21  C   UNL     1       0.565   5.688   0.252  0.00  0.00    +0.033 A 
ATOM     22  C   UNL     1       1.397   4.631  -0.068  0.00  0.00    +0.130 A 
ATOM     23  C   UNL     1       1.686   3.667   0.879  0.00  0.00    -0.009 A 
ATOM     24  C   UNL     1       1.153   3.766   2.151  0.00  0.00    +0.006 A 
BRANCH  22  25
ATOM     25  N   UNL     1       1.973   4.528  -1.428  0.00  0.00    +0.057 N 
ATOM     26  O   UNL     1       2.355   5.531  -2.005  0.00  0.00    -0.126 OA
ATOM     27  O   UNL     1       2.065   3.441  -1.970  0.00  0.00    -0.126 OA
ENDBRANCH  22  25
ENDBRANCH   1  23
BRANCH  11  28
ATOM     28  C   UNL     1       0.387   1.252   0.326  0.00  0.00    +0.098 C 
ATOM     29  N   UNL     1      -0.734   1.270   0.144  0.00  0.00    -0.191 NA
ENDBRANCH  11  28
TORSDOF 4
