REMARK  Name = ZINC12367348
REMARK  7 active torsions:
REMARK  status: ('A' for Active; 'I' for Inactive)
REMARK    1  A    between atoms: C_1  and  C_2
REMARK    2  A    between atoms: C_8  and  N_15
REMARK    3  A    between atoms: C_10  and  C_11
REMARK    4  A    between atoms: N_18  and  C_21
REMARK    5  A    between atoms: C_22  and  C_23
REMARK    6  A    between atoms: C_22  and  S_25
REMARK    7  A    between atoms: S_25  and  C_28
REMARK                            x       y       z     vdW  Elec       q    Type
REMARK                         _______ _______ _______ _____ _____    ______ ____
ROOT
ATOM      1  N   UNL     1       3.187   0.021   0.833  0.00  0.00    -0.326 N 
ATOM      2  C   UNL     1       2.554  -1.196   1.358  0.00  0.00    +0.124 C 
ATOM      3  C   UNL     1       2.683  -2.321   0.325  0.00  0.00    +0.123 C 
ATOM      4  N   UNL     1       4.102  -2.463  -0.036  0.00  0.00    -0.331 N 
ATOM      5  C   UNL     1       4.841  -1.257  -0.441  0.00  0.00    +0.123 C 
ATOM      6  C   UNL     1       4.627  -0.175   0.622  0.00  0.00    +0.124 C 
ENDROOT
BRANCH   1  14
ATOM      7  C   UNL     1       0.363   3.404  -1.853  0.00  0.00    +0.044 C 
ATOM      8  C   UNL     1       0.935   3.351  -0.459  0.00  0.00    -0.050 A 
ATOM      9  C   UNL     1       0.718   4.413   0.414  0.00  0.00    +0.005 A 
ATOM     10  C   UNL     1       1.225   4.398   1.678  0.00  0.00    +0.026 A 
ATOM     11  C   UNL     1       1.977   3.294   2.114  0.00  0.00    +0.049 A 
ATOM     12  C   UNL     1       2.192   2.214   1.225  0.00  0.00    +0.020 A 
ATOM     13  C   UNL     1       1.655   2.262  -0.069  0.00  0.00    +0.015 A 
ATOM     14  C   UNL     1       2.950   1.103   1.667  0.00  0.00    +0.041 A 
ATOM     15  C   UNL     1       3.446   1.131   2.961  0.00  0.00    +0.054 A 
ATOM     16  C   UNL     1       3.192   2.228   3.772  0.00  0.00    +0.122 A 
ATOM     17  N   UNL     1       2.474   3.314   3.400  0.00  0.00    -0.351 N 
ATOM     18  H   UNL     1       2.311   4.103   4.036  0.00  0.00    +0.166 HD
BRANCH  16  19
ATOM     19  C   UNL     1       3.739   2.244   5.176  0.00  0.00    +0.432 C 
ATOM     20  F   UNL     1       5.010   2.827   5.175  0.00  0.00    -0.164 F 
ATOM     21  F   UNL     1       2.886   2.986   6.000  0.00  0.00    -0.164 F 
ATOM     22  F   UNL     1       3.827   0.933   5.657  0.00  0.00    -0.164 F 
ENDBRANCH  16  19
ENDBRANCH   1  14
BRANCH   4  23
ATOM     23  C   UNL     1       4.719  -3.686   0.004  0.00  0.00    +0.109 C 
ATOM     24  C   UNL     1       5.020  -4.327  -1.142  0.00  0.00    +0.183 C 
BRANCH  24  25
ATOM     25  S   UNL     1       4.451  -3.690  -2.683  0.00  0.00    +0.036 S 
ATOM     26  O   UNL     1       3.923  -4.792  -3.409  0.00  0.00    -0.164 OA
ATOM     27  O   UNL     1       3.680  -2.534  -2.385  0.00  0.00    -0.164 OA
BRANCH  25  28
ATOM     28  C   UNL     1       5.868  -3.134  -3.572  0.00  0.00    +0.094 A 
ATOM     29  C   UNL     1       6.303  -1.830  -3.432  0.00  0.00    +0.027 A 
ATOM     30  C   UNL     1       7.418  -1.395  -4.125  0.00  0.00    +0.002 A 
ATOM     31  C   UNL     1       8.091  -2.263  -4.966  0.00  0.00    +0.000 A 
ATOM     32  C   UNL     1       7.652  -3.566  -5.109  0.00  0.00    +0.002 A 
ATOM     33  C   UNL     1       6.541  -4.002  -4.412  0.00  0.00    +0.027 A 
ENDBRANCH  25  28
ENDBRANCH  24  25
BRANCH  24  34
ATOM     34  C   UNL     1       5.801  -5.527  -1.108  0.00  0.00    +0.120 C 
ATOM     35  N   UNL     1       6.420  -6.479  -1.081  0.00  0.00    -0.189 NA
ENDBRANCH  24  34
ENDBRANCH   4  23
TORSDOF 6
