REMARK  Name = ZINC08841251
REMARK  9 active torsions:
REMARK  status: ('A' for Active; 'I' for Inactive)
REMARK    1  A    between atoms: C_1  and  C_2
REMARK    2  A    between atoms: C_5  and  S_8
REMARK    3  A    between atoms: S_8  and  N_11
REMARK    4  A    between atoms: C_15  and  C_17
REMARK    5  A    between atoms: C_17  and  N_19
REMARK    6  A    between atoms: N_21  and  C_33
REMARK    7  A    between atoms: C_25  and  S_29
REMARK    8  A    between atoms: S_29  and  C_32
REMARK    9  A    between atoms: C_33  and  C_34
REMARK                            x       y       z     vdW  Elec       q    Type
REMARK                         _______ _______ _______ _____ _____    ______ ____
ROOT
ATOM      1  C   UNL     1      -1.425  -0.976   1.548  0.00  0.00    +0.257 C 
ATOM      2  O   UNL     1      -1.293  -0.251   0.580  0.00  0.00    -0.272 OA
ENDROOT
BRANCH   1   3
ATOM      3  N   UNL     1      -2.439  -0.790   2.385  0.00  0.00    -0.155 NA
ATOM      4  C   UNL     1      -2.642   0.408   2.929  0.00  0.00    +0.167 A 
ATOM      5  N   UNL     1      -1.821   1.492   2.912  0.00  0.00    -0.317 N 
ATOM      6  C   UNL     1      -2.207   2.664   3.533  0.00  0.00    +0.058 A 
ATOM      7  C   UNL     1      -1.506   3.878   3.617  0.00  0.00    +0.029 A 
ATOM      8  C   UNL     1      -2.042   4.955   4.280  0.00  0.00    +0.029 A 
ATOM      9  C   UNL     1      -3.287   4.880   4.884  0.00  0.00    +0.089 A 
ATOM     10  C   UNL     1      -4.000   3.696   4.816  0.00  0.00    +0.044 A 
ATOM     11  C   UNL     1      -3.464   2.618   4.153  0.00  0.00    +0.041 A 
ATOM     12  S   UNL     1      -4.015   0.961   3.832  0.00  0.00    -0.052 S 
BRANCH   9  13
ATOM     13  S   UNL     1      -3.954   6.275   5.728  0.00  0.00    -0.006 S 
ATOM     14  O   UNL     1      -3.338   7.399   5.114  0.00  0.00    -0.170 OA
ATOM     15  O   UNL     1      -5.362   6.097   5.668  0.00  0.00    -0.170 OA
ATOM     16  C   UNL     1      -3.375   6.104   7.439  0.00  0.00    +0.200 C 
ENDBRANCH   9  13
BRANCH   5  17
ATOM     17  C   UNL     1      -0.527   1.418   2.228  0.00  0.00    +0.151 C 
BRANCH  17  18
ATOM     18  C   UNL     1      -0.652   2.015   0.851  0.00  0.00    -0.013 C 
ATOM     19  C   UNL     1       0.167   2.965   0.472  0.00  0.00    +0.005 C 
ENDBRANCH  17  18
ENDBRANCH   5  17
ENDBRANCH   1   3
BRANCH   1  24
ATOM     20  N   UNL     1       0.377  -2.312   0.592  0.00  0.00    -0.165 NA
ATOM     21  C   UNL     1       0.186  -3.704   0.146  0.00  0.00    +0.110 C 
ATOM     22  C   UNL     1      -1.194  -4.117   0.717  0.00  0.00    +0.019 C 
ATOM     23  C   UNL     1      -1.188  -3.401   2.094  0.00  0.00    +0.031 C 
ATOM     24  C   UNL     1      -0.437  -2.087   1.796  0.00  0.00    +0.167 C 
BRANCH  20  25
ATOM     25  S   UNL     1       1.346  -1.187  -0.141  0.00  0.00    +0.062 S 
ATOM     26  O   UNL     1       1.328  -1.481  -1.532  0.00  0.00    -0.153 OA
ATOM     27  O   UNL     1       0.961   0.080   0.374  0.00  0.00    -0.153 OA
BRANCH  25  32
ATOM     28  C   UNL     1       6.985  -2.180   1.760  0.00  0.00    +0.044 C 
ATOM     29  C   UNL     1       5.577  -1.932   1.285  0.00  0.00    -0.050 A 
ATOM     30  C   UNL     1       5.108  -2.568   0.151  0.00  0.00    +0.005 A 
ATOM     31  C   UNL     1       3.816  -2.341  -0.284  0.00  0.00    +0.029 A 
ATOM     32  C   UNL     1       2.993  -1.477   0.414  0.00  0.00    +0.106 A 
ATOM     33  C   UNL     1       3.464  -0.837   1.544  0.00  0.00    +0.029 A 
ATOM     34  C   UNL     1       4.754  -1.068   1.983  0.00  0.00    +0.005 A 
ENDBRANCH  25  32
ENDBRANCH  20  25
ENDBRANCH   1  24
TORSDOF 7
