REMARK  Name = ZINC35674892
REMARK  13 active torsions:
REMARK  status: ('A' for Active; 'I' for Inactive)
REMARK    1  A    between atoms: C_1  and  C_2
REMARK    2  A    between atoms: C_2  and  C_3
REMARK    3  A    between atoms: C_3  and  C_5
REMARK    4  A    between atoms: C_3  and  N_28
REMARK    5  A    between atoms: C_9  and  O_26
REMARK    6  A    between atoms: C_10  and  O_24
REMARK    7  A    between atoms: N_15  and  C_16
REMARK    8  A    between atoms: C_16  and  C_17
REMARK    9  A    between atoms: C_22  and  C_23
REMARK   10  A    between atoms: O_24  and  C_25
REMARK   11  A    between atoms: O_26  and  C_27
REMARK   12  A    between atoms: N_28  and  S_29
REMARK   13  A    between atoms: S_29  and  C_32
REMARK                            x       y       z     vdW  Elec       q    Type
REMARK                         _______ _______ _______ _____ _____    ______ ____
ROOT
ATOM      1  C   UNL     1       0.595  -1.896  -0.559  0.00  0.00    -0.018 C 
ATOM      2  C   UNL     1       1.002  -1.989   0.888  0.00  0.00    -0.053 A 
ATOM      3  C   UNL     1       0.723  -0.917   1.723  0.00  0.00    +0.051 A 
ATOM      4  C   UNL     1       1.077  -0.961   3.060  0.00  0.00    +0.162 A 
ATOM      5  C   UNL     1       1.716  -2.088   3.568  0.00  0.00    +0.162 A 
ATOM      6  C   UNL     1       1.994  -3.154   2.731  0.00  0.00    +0.053 A 
ATOM      7  C   UNL     1       1.637  -3.104   1.392  0.00  0.00    -0.044 A 
ATOM      8  C   UNL     1       1.966  -4.286   0.514  0.00  0.00    +0.017 C 
ATOM      9  C   UNL     1       1.156  -4.209  -0.781  0.00  0.00    -0.073 C 
ATOM     10  N   UNL     1       1.334  -2.872  -1.366  0.00  0.00    +0.388 N 
ATOM     11  H   UNL     1       2.314  -2.632  -1.371  0.00  0.00    -0.080 HD
ENDROOT
BRANCH   5  12
ATOM     12  O   UNL     1       2.067  -2.141   4.881  0.00  0.00    -0.491 OA
ATOM     13  C   UNL     1       2.720  -3.330   5.331  0.00  0.00    +0.277 C 
ENDBRANCH   5  12
BRANCH   4  14
ATOM     14  O   UNL     1       0.800   0.092   3.874  0.00  0.00    -0.491 OA
ATOM     15  C   UNL     1       0.142   1.214   3.283  0.00  0.00    +0.277 C 
ENDBRANCH   4  14
BRANCH   1  16
ATOM     16  C   UNL     1       0.889  -0.487  -1.077  0.00  0.00    +0.067 C 
BRANCH  16  18
ATOM     17  C   UNL     1       2.683   1.216  -1.429  0.00  0.00    +0.005 C 
ATOM     18  C   UNL     1       2.351  -0.135  -0.793  0.00  0.00    +0.016 C 
ENDBRANCH  16  18
BRANCH  16  19
ATOM     19  N   UNL     1       0.015   0.474  -0.400  0.00  0.00    -0.188 NA
ATOM     20  H   UNL     1       0.365   1.025   0.319  0.00  0.00    +0.148 HD
BRANCH  19  21
ATOM     21  S   UNL     1      -1.568   0.622  -0.861  0.00  0.00    +0.059 S 
ATOM     22  O   UNL     1      -2.155   1.585   0.002  0.00  0.00    -0.153 OA
ATOM     23  O   UNL     1      -1.567   0.765  -2.275  0.00  0.00    -0.153 OA
BRANCH  21  24
ATOM     24  C   UNL     1      -2.357  -0.914  -0.511  0.00  0.00    +0.105 A 
ATOM     25  C   UNL     1      -2.511  -1.856  -1.512  0.00  0.00    +0.030 A 
ATOM     26  C   UNL     1      -3.130  -3.061  -1.238  0.00  0.00    +0.022 A 
ATOM     27  C   UNL     1      -3.596  -3.325   0.037  0.00  0.00    +0.041 A 
ATOM     28  C   UNL     1      -3.443  -2.382   1.038  0.00  0.00    +0.022 A 
ATOM     29  C   UNL     1      -2.818  -1.180   0.764  0.00  0.00    +0.030 A 
ATOM     30 CL   UNL     1      -4.375  -4.838   0.382  0.00  0.00    -0.084 Cl
ENDBRANCH  21  24
ENDBRANCH  19  21
ENDBRANCH  16  19
ENDBRANCH   1  16
BRANCH  10  31
ATOM     31  C   UNL     1       0.817  -2.865  -2.741  0.00  0.00    -0.042 C 
BRANCH  31  32
ATOM     32  C   UNL     1       1.665  -3.766  -3.601  0.00  0.00    -0.061 A 
ATOM     33  C   UNL     1       2.845  -3.294  -4.144  0.00  0.00    +0.002 A 
ATOM     34  C   UNL     1       3.623  -4.121  -4.932  0.00  0.00    +0.000 A 
ATOM     35  C   UNL     1       3.220  -5.420  -5.178  0.00  0.00    +0.000 A 
ATOM     36  C   UNL     1       2.041  -5.893  -4.635  0.00  0.00    +0.003 A 
ATOM     37  C   UNL     1       1.265  -5.067  -3.842  0.00  0.00    -0.049 A 
ATOM     38  C   UNL     1      -0.019  -5.584  -3.246  0.00  0.00    +0.044 C 
ENDBRANCH  31  32
ENDBRANCH  10  31
TORSDOF 9
