REMARK  Name = ZINC23428881
REMARK  10 active torsions:
REMARK  status: ('A' for Active; 'I' for Inactive)
REMARK    1  A    between atoms: C_1  and  C_2
REMARK    2  A    between atoms: C_6  and  C_8
REMARK    3  A    between atoms: C_8  and  O_9
REMARK    4  A    between atoms: O_9  and  C_10
REMARK    5  A    between atoms: C_10  and  C_12
REMARK    6  A    between atoms: C_10  and  C_30
REMARK    7  A    between atoms: C_12  and  N_13
REMARK    8  A    between atoms: C_19  and  C_21
REMARK    9  A    between atoms: C_24  and  O_28
REMARK   10  A    between atoms: O_28  and  C_29
REMARK                            x       y       z     vdW  Elec       q    Type
REMARK                         _______ _______ _______ _____ _____    ______ ____
ROOT
ATOM      1  C   UNL     1      -2.765  -2.319  -1.090  0.00  0.00    -0.042 C 
ENDROOT
BRANCH   1   2
ATOM      2  N   UNL     1      -2.291  -1.452  -2.178  0.00  0.00    +0.384 N 
ATOM      3  C   UNL     1      -3.417  -0.928  -2.962  0.00  0.00    -0.059 C 
ATOM      4  C   UNL     1      -2.899   0.108  -3.965  0.00  0.00    +0.089 C 
ATOM      5  N   UNL     1      -1.823  -0.506  -4.757  0.00  0.00    -0.301 N 
ATOM      6  C   UNL     1      -0.725  -1.173  -4.040  0.00  0.00    +0.089 C 
ATOM      7  C   UNL     1      -1.329  -2.159  -3.034  0.00  0.00    -0.059 C 
ATOM      8  C   UNL     1      -1.841  -0.459  -6.103  0.00  0.00    +0.247 C 
ATOM      9  O   UNL     1      -2.724   0.148  -6.678  0.00  0.00    -0.270 OA
ATOM     10  H   UNL     1      -1.770  -0.594  -1.726  0.00  0.00    -0.082 HD
BRANCH   8  11
ATOM     11  C   UNL     1      -0.789  -1.143  -6.880  0.00  0.00    +0.040 A 
ATOM     12  C   UNL     1       0.511  -1.227  -6.377  0.00  0.00    +0.017 A 
ATOM     13  C   UNL     1       1.489  -1.871  -7.101  0.00  0.00    +0.049 A 
ATOM     14  C   UNL     1       1.188  -2.428  -8.338  0.00  0.00    +0.155 A 
ATOM     15  C   UNL     1      -0.105  -2.343  -8.847  0.00  0.00    +0.165 A 
ATOM     16  C   UNL     1      -1.090  -1.704  -8.124  0.00  0.00    +0.055 A 
ATOM     17  F   UNL     1      -0.394  -2.886 -10.049  0.00  0.00    -0.202 F 
BRANCH  14  18
ATOM     18  O   UNL     1       2.156  -3.058  -9.051  0.00  0.00    -0.492 OA
ATOM     19  C   UNL     1       3.461  -3.109  -8.470  0.00  0.00    +0.277 C 
ENDBRANCH  14  18
ENDBRANCH   8  11
ENDBRANCH   1   2
BRANCH   1  20
ATOM     20  C   UNL     1      -1.677  -2.436  -0.021  0.00  0.00    +0.132 C 
BRANCH  20  21
ATOM     21  C   UNL     1      -2.158  -3.336   1.088  0.00  0.00    -0.021 A 
ATOM     22  C   UNL     1      -3.005  -2.840   2.061  0.00  0.00    +0.007 A 
ATOM     23  C   UNL     1      -3.451  -3.666   3.076  0.00  0.00    +0.020 A 
ATOM     24  C   UNL     1      -3.040  -4.987   3.123  0.00  0.00    +0.041 A 
ATOM     25  C   UNL     1      -2.187  -5.481   2.152  0.00  0.00    +0.020 A 
ATOM     26  C   UNL     1      -1.746  -4.655   1.135  0.00  0.00    +0.007 A 
ATOM     27 CL   UNL     1      -3.593  -6.023   4.402  0.00  0.00    -0.084 Cl
ENDBRANCH  20  21
BRANCH  20  28
ATOM     28  O   UNL     1      -1.387  -1.141   0.508  0.00  0.00    -0.369 OA
BRANCH  28  29
ATOM     29  C   UNL     1      -0.039  -0.984   0.956  0.00  0.00    +0.195 C 
BRANCH  29  35
ATOM     30  C   UNL     1       1.183   3.812   0.214  0.00  0.00    +0.044 C 
ATOM     31  C   UNL     1       0.738   2.706   1.136  0.00  0.00    -0.050 A 
ATOM     32  C   UNL     1       0.506   2.972   2.473  0.00  0.00    +0.003 A 
ATOM     33  C   UNL     1       0.099   1.958   3.319  0.00  0.00    +0.001 A 
ATOM     34  C   UNL     1      -0.078   0.678   2.828  0.00  0.00    +0.006 A 
ATOM     35  C   UNL     1       0.153   0.412   1.491  0.00  0.00    -0.022 A 
ATOM     36  C   UNL     1       0.566   1.425   0.646  0.00  0.00    +0.009 A 
ENDBRANCH  29  35
ENDBRANCH  28  29
ENDBRANCH  20  28
ENDBRANCH   1  20
TORSDOF 8
