REMARK  Name = ZINC20320068
REMARK  9 active torsions:
REMARK  status: ('A' for Active; 'I' for Inactive)
REMARK    1  A    between atoms: C_1  and  C_2
REMARK    2  A    between atoms: C_3  and  C_23
REMARK    3  A    between atoms: N_8  and  C_11
REMARK    4  A    between atoms: C_11  and  C_12
REMARK    5  A    between atoms: C_12  and  C_13
REMARK    6  A    between atoms: C_16  and  O_21
REMARK    7  A    between atoms: C_17  and  O_19
REMARK    8  A    between atoms: O_19  and  C_20
REMARK    9  A    between atoms: O_21  and  C_22
REMARK                            x       y       z     vdW  Elec       q    Type
REMARK                         _______ _______ _______ _____ _____    ______ ____
ROOT
ATOM      1  C   UNL     1      -7.900   5.474   4.062  0.00  0.00    +0.065 C 
ATOM      2  C   UNL     1      -6.657   5.034   3.333  0.00  0.00    +0.041 A 
ATOM      3  C   UNL     1      -6.211   5.527   2.089  0.00  0.00    +0.042 A 
ATOM      4  C   UNL     1      -5.043   4.863   1.784  0.00  0.00    +0.125 A 
ATOM      5  N   UNL     1      -4.791   4.001   2.800  0.00  0.00    -0.258 N 
ATOM      6  N   UNL     1      -5.806   4.129   3.746  0.00  0.00    -0.299 N 
ATOM      7  C   UNL     1      -3.626   3.110   2.835  0.00  0.00    +0.231 C 
ATOM      8  N   UNL     1      -3.054   3.068   1.476  0.00  0.00    -0.268 NA
ATOM      9  C   UNL     1      -2.905   4.425   0.930  0.00  0.00    +0.192 C 
ATOM     10  N   UNL     1      -4.232   5.006   0.667  0.00  0.00    -0.316 N 
ATOM     11  H   UNL     1      -4.449   5.464  -0.310  0.00  0.00    +0.149 HD
ATOM     12  H   UNL     1      -5.971   3.616   4.705  0.00  0.00    +0.187 HD
ENDROOT
BRANCH   3  13
ATOM     13  C   UNL     1      -6.875   6.565   1.264  0.00  0.00    -0.012 A 
ATOM     14  C   UNL     1      -8.131   6.321   0.711  0.00  0.00    +0.009 A 
ATOM     15  C   UNL     1      -8.745   7.290  -0.056  0.00  0.00    +0.002 A 
ATOM     16  C   UNL     1      -8.117   8.502  -0.277  0.00  0.00    +0.020 A 
ATOM     17  C   UNL     1      -6.869   8.751   0.269  0.00  0.00    +0.042 A 
ATOM     18  C   UNL     1      -6.248   7.789   1.042  0.00  0.00    +0.028 A 
ATOM     19 CL   UNL     1      -6.087  10.274  -0.014  0.00  0.00    -0.084 Cl
ENDBRANCH   3  13
BRANCH   8  20
ATOM     20  C   UNL     1      -1.771   2.353   1.466  0.00  0.00    +0.092 C 
BRANCH  20  21
ATOM     21  C   UNL     1      -1.333   2.112   0.020  0.00  0.00    +0.050 C 
BRANCH  21  22
ATOM     22  C   UNL     1      -0.017   1.378   0.010  0.00  0.00    -0.042 A 
ATOM     23  C   UNL     1       1.169   2.089   0.002  0.00  0.00    +0.007 A 
ATOM     24  C   UNL     1       2.379   1.420  -0.013  0.00  0.00    +0.049 A 
ATOM     25  C   UNL     1       2.405   0.035  -0.021  0.00  0.00    +0.161 A 
ATOM     26  C   UNL     1       1.211  -0.680  -0.013  0.00  0.00    +0.162 A 
ATOM     27  C   UNL     1       0.002  -0.004   0.002  0.00  0.00    +0.053 A 
BRANCH  26  28
ATOM     28  O   UNL     1       1.232  -2.040  -0.020  0.00  0.00    -0.491 OA
ATOM     29  C   UNL     1      -0.032  -2.708  -0.011  0.00  0.00    +0.277 C 
ENDBRANCH  26  28
BRANCH  25  30
ATOM     30  O   UNL     1       3.594  -0.625  -0.036  0.00  0.00    -0.491 OA
ATOM     31  C   UNL     1       4.779   0.174  -0.043  0.00  0.00    +0.277 C 
ENDBRANCH  25  30
ENDBRANCH  21  22
ENDBRANCH  20  21
ENDBRANCH   8  20
TORSDOF 6
