REMARK  Name = ZINC35836352
REMARK  5 active torsions:
REMARK  status: ('A' for Active; 'I' for Inactive)
REMARK    1  A    between atoms: C_1  and  C_2
REMARK    2  A    between atoms: C_5  and  O_8
REMARK    3  A    between atoms: O_8  and  C_9
REMARK    4  A    between atoms: N_18  and  C_21
REMARK    5  A    between atoms: C_26  and  C_28
REMARK                            x       y       z     vdW  Elec       q    Type
REMARK                         _______ _______ _______ _____ _____    ______ ____
ROOT
ATOM      1  C   UNL     1       0.665  -4.742   1.395  0.00  0.00    +0.230 A 
ATOM      2  C   UNL     1       0.658  -6.139   1.376  0.00  0.00    +0.053 A 
ATOM      3  C   UNL     1       0.761  -6.816   2.567  0.00  0.00    +0.056 A 
ATOM      4  N   UNL     1       0.851  -6.118   3.697  0.00  0.00    -0.219 NA
ATOM      5  C   UNL     1       0.854  -4.795   3.687  0.00  0.00    +0.221 A 
ATOM      6  N   UNL     1       0.771  -4.110   2.556  0.00  0.00    -0.179 NA
ATOM      7  N   UNL     1       0.951  -4.111   4.886  0.00  0.00    -0.303 N 
ATOM      8  C   UNL     1       1.178  -4.828   6.150  0.00  0.00    +0.089 C 
ATOM      9  C   UNL     1       2.350  -4.165   6.881  0.00  0.00    -0.060 C 
ATOM     10  N   UNL     1       2.078  -2.731   7.039  0.00  0.00    +0.380 N 
ATOM     11  C   UNL     1       2.019  -2.086   5.721  0.00  0.00    -0.060 C 
ATOM     12  C   UNL     1       0.836  -2.645   4.932  0.00  0.00    +0.089 C 
ATOM     13  C   UNL     1       3.149  -2.116   7.835  0.00  0.00    -0.096 C 
ATOM     14  C   UNL     1       0.793  -8.318   2.654  0.00  0.00    +0.075 C 
ATOM     15  C   UNL     1       0.211  -8.946   1.388  0.00  0.00    +0.114 C 
ATOM     16  N   UNL     1       0.814  -8.273   0.226  0.00  0.00    -0.293 N 
ATOM     17  C   UNL     1       0.529  -6.843   0.052  0.00  0.00    +0.150 C 
ATOM     18  C   UNL     1       1.597  -8.942  -0.643  0.00  0.00    +0.247 C 
ATOM     19  O   UNL     1       1.901 -10.098  -0.421  0.00  0.00    -0.270 OA
ATOM     20  H   UNL     1       1.196  -2.607   7.513  0.00  0.00    -0.082 HD
ENDROOT
BRANCH  18  21
ATOM     21  C   UNL     1       2.086  -8.271  -1.865  0.00  0.00    +0.037 A 
ATOM     22  C   UNL     1       3.318  -8.629  -2.417  0.00  0.00    +0.014 A 
ATOM     23  C   UNL     1       3.768  -7.999  -3.558  0.00  0.00    +0.021 A 
ATOM     24  C   UNL     1       3.002  -7.013  -4.157  0.00  0.00    +0.041 A 
ATOM     25  C   UNL     1       1.779  -6.654  -3.614  0.00  0.00    +0.021 A 
ATOM     26  C   UNL     1       1.315  -7.280  -2.477  0.00  0.00    +0.014 A 
ATOM     27 CL   UNL     1       3.576  -6.224  -5.592  0.00  0.00    -0.084 Cl
ENDBRANCH  18  21
BRANCH   1  28
ATOM     28  O   UNL     1       0.572  -4.040   0.239  0.00  0.00    -0.438 OA
BRANCH  28  33
ATOM     29  C   UNL     1       1.125   1.559   0.493  0.00  0.00    +0.044 C 
ATOM     30  C   UNL     1       0.977   0.061   0.425  0.00  0.00    -0.050 A 
ATOM     31  C   UNL     1      -0.264  -0.500   0.185  0.00  0.00    +0.007 A 
ATOM     32  C   UNL     1      -0.402  -1.873   0.122  0.00  0.00    +0.046 A 
ATOM     33  C   UNL     1       0.705  -2.689   0.300  0.00  0.00    +0.130 A 
ATOM     34  C   UNL     1       1.949  -2.124   0.541  0.00  0.00    +0.046 A 
ATOM     35  C   UNL     1       2.083  -0.750   0.598  0.00  0.00    +0.007 A 
ENDBRANCH  28  33
ENDBRANCH   1  28
TORSDOF 3
