REMARK  Name = ZINC16000420
REMARK  4 active torsions:
REMARK  status: ('A' for Active; 'I' for Inactive)
REMARK    1  A    between atoms: C_1  and  O_2
REMARK    2  A    between atoms: O_2  and  C_3
REMARK    3  A    between atoms: C_6  and  N_35
REMARK    4  A    between atoms: C_8  and  N_9
REMARK                            x       y       z     vdW  Elec       q    Type
REMARK                         _______ _______ _______ _____ _____    ______ ____
ROOT
ATOM      1  N   UNL     1       5.115  -0.383   1.323  0.00  0.00    -0.206 N 
ATOM      2  C   UNL     1       4.391  -1.386   0.813  0.00  0.00    +0.229 C 
ATOM      3  O   UNL     1       4.822  -2.477   0.508  0.00  0.00    -0.275 OA
ATOM      4  C   UNL     1       2.933  -0.948   0.682  0.00  0.00    +0.074 C 
ATOM      5  C   UNL     1       2.561  -0.835  -0.807  0.00  0.00    -0.054 C 
ATOM      6  C   UNL     1       3.467  -1.767  -1.632  0.00  0.00    -0.016 C 
ATOM      7  C   UNL     1       4.680  -0.865  -2.042  0.00  0.00    -0.020 C 
ATOM      8  C   UNL     1       4.403   0.509  -1.400  0.00  0.00    -0.076 C 
ATOM      9  N   UNL     1       2.935   0.557  -1.200  0.00  0.00    +0.395 N 
ATOM     10  C   UNL     1       2.617   1.372  -0.015  0.00  0.00    +0.053 C 
ATOM     11  C   UNL     1       2.969   0.514   1.205  0.00  0.00    +0.089 C 
ATOM     12  C   UNL     1       4.418   0.730   1.580  0.00  0.00    +0.230 C 
ATOM     13  O   UNL     1       4.877   1.753   2.042  0.00  0.00    -0.275 OA
ATOM     14  C   UNL     1       1.171   1.781   0.000  0.00  0.00    -0.024 A 
ATOM     15  C   UNL     1      -0.013   1.076   0.008  0.00  0.00    +0.043 A 
ATOM     16  C   UNL     1      -1.222   1.752   0.017  0.00  0.00    +0.124 A 
ATOM     17  C   UNL     1      -1.236   3.137   0.030  0.00  0.00    +0.040 A 
ATOM     18  C   UNL     1      -0.052   3.845   0.022  0.00  0.00    +0.026 A 
ATOM     19  C   UNL     1       1.168   3.172   0.007  0.00  0.00    +0.036 A 
ATOM     20  N   UNL     1       2.478   3.658  -0.003  0.00  0.00    -0.286 N 
ATOM     21  C   UNL     1       3.388   2.665  -0.016  0.00  0.00    +0.212 C 
ATOM     22  O   UNL     1       4.594   2.788  -0.027  0.00  0.00    -0.277 OA
ATOM     23  F   UNL     1      -2.384   1.063   0.019  0.00  0.00    -0.205 F 
ATOM     24  H   UNL     1       2.663   4.742   0.000  0.00  0.00    +0.155 HD
ATOM     25  H   UNL     1       2.433   0.961  -2.092  0.00  0.00    -0.079 HD
ENDROOT
BRANCH   1  31
ATOM     26  C   UNL     1       7.407  -0.147   0.573  0.00  0.00    +0.142 A 
ATOM     27  C   UNL     1       8.766  -0.250   0.821  0.00  0.00    +0.050 A 
ATOM     28  C   UNL     1       9.213  -0.701   2.049  0.00  0.00    +0.036 A 
ATOM     29  C   UNL     1       8.306  -1.045   3.035  0.00  0.00    +0.128 A 
ATOM     30  C   UNL     1       6.948  -0.941   2.797  0.00  0.00    +0.060 A 
ATOM     31  C   UNL     1       6.493  -0.489   1.567  0.00  0.00    +0.088 A 
BRANCH  29  32
ATOM     32  N   UNL     1       8.790  -1.527   4.348  0.00  0.00    +0.056 N 
ATOM     33  O   UNL     1       7.992  -1.831   5.217  0.00  0.00    -0.126 OA
ATOM     34  O   UNL     1       9.986  -1.619   4.560  0.00  0.00    -0.126 OA
ENDBRANCH  29  32
BRANCH  26  36
ATOM     35  C   UNL     1       7.960   0.623  -1.607  0.00  0.00    +0.277 C 
ATOM     36  O   UNL     1       6.966   0.291  -0.636  0.00  0.00    -0.493 OA
ENDBRANCH  26  36
ENDBRANCH   1  31
TORSDOF 3
