REMARK  Name = ZINC45543449
REMARK  18 active torsions:
REMARK  status: ('A' for Active; 'I' for Inactive)
REMARK    1  A    between atoms: C_1  and  C_2
REMARK    2  A    between atoms: C_2  and  C_3
REMARK    3  A    between atoms: C_3  and  C_4
REMARK    4  A    between atoms: C_4  and  O_5
REMARK    5  A    between atoms: O_5  and  C_6
REMARK    6  A    between atoms: C_6  and  C_7
REMARK    7  A    between atoms: C_7  and  C_8
REMARK    8  A    between atoms: C_8  and  C_9
REMARK    9  A    between atoms: C_9  and  C_10
REMARK   10  A    between atoms: C_10  and  C_11
REMARK   11  A    between atoms: C_10  and  C_12
REMARK   12  A    between atoms: C_10  and  N_17
REMARK   13  A    between atoms: C_12  and  O_14
REMARK   14  A    between atoms: O_14  and  C_15
REMARK   15  A    between atoms: C_15  and  C_16
REMARK   16  A    between atoms: N_17  and  C_18
REMARK   17  A    between atoms: C_18  and  C_19
REMARK   18  A    between atoms: C_19  and  C_20
REMARK                            x       y       z     vdW  Elec       q    Type
REMARK                         _______ _______ _______ _____ _____    ______ ____
ROOT
ATOM      1  C   UNL     1       3.107  -7.714  -5.353  0.00  0.00    +0.028 C 
ATOM      2  C   UNL     1       1.697  -8.289  -5.505  0.00  0.00    +0.001 C 
ENDROOT
BRANCH   1   3
ATOM      3  N   UNL     1       3.732  -8.263  -4.142  0.00  0.00    +0.390 N 
ATOM      4  H   UNL     1       3.179  -8.014  -3.336  0.00  0.00    -0.084 HD
ATOM      5  H   UNL     1       3.785  -9.268  -4.217  0.00  0.00    -0.084 HD
BRANCH   3   6
ATOM      6  C   UNL     1       5.085  -7.711  -3.996  0.00  0.00    -0.081 C 
BRANCH   6   7
ATOM      7  C   UNL     1       5.736  -8.283  -2.735  0.00  0.00    -0.022 C 
ATOM      8  C   UNL     1       7.146  -7.708  -2.583  0.00  0.00    +0.002 C 
ENDBRANCH   6   7
ENDBRANCH   3   6
ENDBRANCH   1   3
BRANCH   1   9
ATOM      9  C   UNL     1       3.933  -8.085  -6.557  0.00  0.00    +0.296 C 
ATOM     10  O   UNL     1       4.031  -7.315  -7.483  0.00  0.00    -0.252 OA
BRANCH   9  11
ATOM     11  O   UNL     1       4.561  -9.271  -6.601  0.00  0.00    -0.466 OA
BRANCH  11  12
ATOM     12  C   UNL     1       5.327  -9.557  -7.773  0.00  0.00    +0.228 C 
ATOM     13  C   UNL     1       5.963 -10.942  -7.641  0.00  0.00    +0.048 C 
ENDBRANCH  11  12
ENDBRANCH   9  11
ENDBRANCH   1   9
BRANCH   1  14
ATOM     14  C   UNL     1       3.027  -6.190  -5.239  0.00  0.00    -0.002 C 
BRANCH  14  15
ATOM     15  C   UNL     1       2.295  -5.812  -3.950  0.00  0.00    +0.001 C 
BRANCH  15  16
ATOM     16  C   UNL     1       2.215  -4.289  -3.836  0.00  0.00    +0.028 C 
BRANCH  16  17
ATOM     17  C   UNL     1       1.483  -3.911  -2.547  0.00  0.00    +0.160 C 
BRANCH  17  18
ATOM     18  O   UNL     1       1.408  -2.488  -2.441  0.00  0.00    -0.380 OA
BRANCH  18  19
ATOM     19  C   UNL     1       0.739  -2.027  -1.265  0.00  0.00    +0.160 C 
BRANCH  19  20
ATOM     20  C   UNL     1       0.718  -0.497  -1.257  0.00  0.00    +0.028 C 
BRANCH  20  22
ATOM     21  C   UNL     1      -0.019   1.526   0.010  0.00  0.00    +0.004 C 
ATOM     22  C   UNL     1       0.002  -0.004   0.002  0.00  0.00    -0.001 C 
ENDBRANCH  20  22
ENDBRANCH  19  20
ENDBRANCH  18  19
ENDBRANCH  17  18
ENDBRANCH  16  17
ENDBRANCH  15  16
ENDBRANCH  14  15
ENDBRANCH   1  14
TORSDOF 14
