REMARK  Name = ZINC38693395
REMARK  5 active torsions:
REMARK  status: ('A' for Active; 'I' for Inactive)
REMARK    1  A    between atoms: C_1  and  C_2
REMARK    2  A    between atoms: C_4  and  C_7
REMARK    3  A    between atoms: N_9  and  C_10
REMARK    4  A    between atoms: N_16  and  S_20
REMARK    5  A    between atoms: S_20  and  C_23
REMARK                            x       y       z     vdW  Elec       q    Type
REMARK                         _______ _______ _______ _____ _____    ______ ____
ROOT
ATOM      1  C   UNL     1      -1.550  -5.746   0.692  0.00  0.00    +0.036 A 
ATOM      2  C   UNL     1      -2.934  -5.628   0.686  0.00  0.00    +0.024 A 
ATOM      3  C   UNL     1      -3.724  -6.753   0.569  0.00  0.00    +0.007 A 
ATOM      4  C   UNL     1      -3.145  -8.007   0.455  0.00  0.00    -0.025 A 
ATOM      5  C   UNL     1      -1.764  -8.129   0.456  0.00  0.00    +0.056 A 
ATOM      6  C   UNL     1      -0.965  -6.997   0.571  0.00  0.00    +0.048 A 
ATOM      7  N   UNL     1      -1.154  -9.382   0.333  0.00  0.00    -0.203 N 
ATOM      8  C   UNL     1      -1.972 -10.590   0.504  0.00  0.00    +0.132 C 
ATOM      9  C   UNL     1      -3.277 -10.387  -0.277  0.00  0.00    +0.025 C 
ATOM     10  C   UNL     1      -4.040  -9.213   0.334  0.00  0.00    +0.038 C 
ENDROOT
BRANCH   1  13
ATOM     11  C   UNL     1      -1.151  -3.580   1.589  0.00  0.00    +0.270 C 
ATOM     12  O   UNL     1      -2.245  -3.608   2.115  0.00  0.00    -0.268 OA
ATOM     13  N   UNL     1      -0.749  -4.606   0.813  0.00  0.00    -0.280 N 
ATOM     14  H   UNL     1       0.096  -4.554   0.339  0.00  0.00    +0.155 HD
BRANCH  11  18
ATOM     15  C   UNL     1       0.636   0.886   3.216  0.00  0.00    +0.089 C 
ATOM     16  C   UNL     1       0.515  -0.448   2.525  0.00  0.00    +0.135 A 
ATOM     17  C   UNL     1      -0.545  -1.274   2.585  0.00  0.00    +0.080 A 
ATOM     18  C   UNL     1      -0.256  -2.416   1.800  0.00  0.00    +0.168 A 
ATOM     19  N   UNL     1       0.943  -2.261   1.294  0.00  0.00    -0.073 NA
ATOM     20  O   UNL     1       1.445  -1.014   1.740  0.00  0.00    -0.359 OA
ENDBRANCH  11  18
ENDBRANCH   1  13
BRANCH   7  21
ATOM     21  S   UNL     1       0.464  -9.501   0.000  0.00  0.00    +0.075 S 
ATOM     22  O   UNL     1       0.682 -10.817  -0.489  0.00  0.00    -0.150 OA
ATOM     23  O   UNL     1       0.812  -8.344  -0.747  0.00  0.00    -0.150 OA
BRANCH  21  24
ATOM     24  C   UNL     1       1.321  -9.386   1.536  0.00  0.00    +0.109 A 
ATOM     25  C   UNL     1       1.715  -8.151   2.016  0.00  0.00    +0.031 A 
ATOM     26  C   UNL     1       2.387  -8.060   3.220  0.00  0.00    +0.040 A 
ATOM     27  C   UNL     1       2.666  -9.206   3.945  0.00  0.00    +0.124 A 
ATOM     28  C   UNL     1       2.272 -10.443   3.463  0.00  0.00    +0.040 A 
ATOM     29  C   UNL     1       1.595 -10.531   2.261  0.00  0.00    +0.031 A 
ATOM     30  F   UNL     1       3.324  -9.118   5.122  0.00  0.00    -0.205 F 
ENDBRANCH  21  24
ENDBRANCH   7  21
TORSDOF 4
