REMARK  Name = ZINC43666545
REMARK  3 active torsions:
REMARK  status: ('A' for Active; 'I' for Inactive)
REMARK    1  A    between atoms: C_6  and  C_7
REMARK    2  A    between atoms: C_7  and  N_8
REMARK    3  A    between atoms: C_9  and  N_14
REMARK                            x       y       z     vdW  Elec       q    Type
REMARK                         _______ _______ _______ _____ _____    ______ ____
ROOT
ATOM      1  C   UNL     1      -1.293  -0.775   0.011  0.00  0.00    +0.180 C 
ENDROOT
BRANCH   1   7
ATOM      2  C   UNL     1      -0.017   1.378   0.010  0.00  0.00    +0.007 A 
ATOM      3  C   UNL     1       1.171   2.086   0.002  0.00  0.00    +0.022 A 
ATOM      4  C   UNL     1       2.378   1.412  -0.013  0.00  0.00    +0.059 A 
ATOM      5  C   UNL     1       2.397   0.027  -0.021  0.00  0.00    +0.060 A 
ATOM      6  C   UNL     1       1.208  -0.680  -0.013  0.00  0.00    +0.027 A 
ATOM      7  C   UNL     1       0.002  -0.004   0.002  0.00  0.00    -0.025 A 
ATOM      8 CL   UNL     1       3.912  -0.821  -0.040  0.00  0.00    -0.082 Cl
ATOM      9 CL   UNL     1       3.869   2.301  -0.023  0.00  0.00    -0.082 Cl
ENDBRANCH   1   7
BRANCH   1  10
ATOM     10  N   UNL     1      -1.726  -1.017  -1.368  0.00  0.00    -0.246 N 
ATOM     11  C   UNL     1      -2.520  -0.204  -2.111  0.00  0.00    +0.128 A 
ATOM     12  C   UNL     1      -2.680  -0.792  -3.329  0.00  0.00    +0.072 A 
ATOM     13  C   UNL     1      -1.965  -1.993  -3.323  0.00  0.00    +0.150 A 
ATOM     14  N   UNL     1      -1.391  -2.126  -2.155  0.00  0.00    -0.177 NA
ATOM     15  I   UNL     1      -3.800  -0.032  -4.928  0.00  0.00    -0.039 I 
BRANCH  11  16
ATOM     16  N   UNL     1      -3.068   1.009  -1.704  0.00  0.00    -0.343 N 
ATOM     17  H   UNL     1      -2.894   1.345  -0.810  0.00  0.00    +0.144 HD
ATOM     18  H   UNL     1      -3.625   1.519  -2.313  0.00  0.00    +0.144 HD
ENDBRANCH  11  16
ENDBRANCH   1  10
TORSDOF 3
