REMARK  Name = ZINC16969255
REMARK  12 active torsions:
REMARK  status: ('A' for Active; 'I' for Inactive)
REMARK    1  A    between atoms: C_1  and  C_2
REMARK    2  A    between atoms: C_4  and  O_38
REMARK    3  A    between atoms: C_6  and  O_37
REMARK    4  A    between atoms: C_8  and  O_36
REMARK    5  A    between atoms: C_10  and  O_13
REMARK    6  A    between atoms: O_13  and  C_14
REMARK    7  A    between atoms: C_18  and  O_35
REMARK    8  A    between atoms: C_20  and  O_34
REMARK    9  A    between atoms: C_24  and  C_25
REMARK   10  A    between atoms: C_27  and  O_33
REMARK   11  A    between atoms: C_28  and  O_32
REMARK   12  A    between atoms: C_29  and  O_31
REMARK                            x       y       z     vdW  Elec       q    Type
REMARK                         _______ _______ _______ _____ _____    ______ ____
ROOT
ATOM      1  C   UNL     1      -4.102   1.216   2.529  0.00  0.00    +0.214 A 
ATOM      2  C   UNL     1      -5.152   1.823   1.792  0.00  0.00    +0.238 A 
ATOM      3  O   UNL     1      -4.926   2.692   0.966  0.00  0.00    -0.283 OA
ATOM      4  C   UNL     1      -6.523   1.359   2.059  0.00  0.00    +0.109 A 
ATOM      5  C   UNL     1      -7.619   1.901   1.375  0.00  0.00    +0.135 A 
ATOM      6  C   UNL     1      -8.892   1.444   1.658  0.00  0.00    +0.091 A 
ATOM      7  C   UNL     1      -9.082   0.453   2.617  0.00  0.00    +0.124 A 
ATOM      8  C   UNL     1      -8.002  -0.086   3.299  0.00  0.00    +0.092 A 
ATOM      9  C   UNL     1      -6.717   0.359   3.028  0.00  0.00    +0.147 A 
ATOM     10  O   UNL     1      -5.656  -0.156   3.683  0.00  0.00    -0.451 OA
ATOM     11  C   UNL     1      -4.398   0.253   3.447  0.00  0.00    +0.181 A 
ENDROOT
BRANCH  11  12
ATOM     12  C   UNL     1      -3.296  -0.364   4.209  0.00  0.00    +0.028 A 
ATOM     13  C   UNL     1      -2.157  -0.826   3.544  0.00  0.00    +0.061 A 
ATOM     14  C   UNL     1      -1.123  -1.398   4.262  0.00  0.00    +0.163 A 
ATOM     15  C   UNL     1      -1.221  -1.524   5.645  0.00  0.00    +0.201 A 
ATOM     16  C   UNL     1      -2.356  -1.070   6.309  0.00  0.00    +0.163 A 
ATOM     17  C   UNL     1      -3.391  -0.492   5.598  0.00  0.00    +0.061 A 
BRANCH  16  18
ATOM     18  O   UNL     1      -2.448  -1.195   7.661  0.00  0.00    -0.503 OA
ATOM     19  H   UNL     1      -2.850  -2.024   7.953  0.00  0.00    +0.292 HD
ENDBRANCH  16  18
BRANCH  15  20
ATOM     20  O   UNL     1      -0.205  -2.093   6.348  0.00  0.00    -0.501 OA
ATOM     21  H   UNL     1      -0.287  -3.051   6.452  0.00  0.00    +0.292 HD
ENDBRANCH  15  20
BRANCH  14  22
ATOM     22  O   UNL     1      -0.012  -1.843   3.616  0.00  0.00    -0.503 OA
ATOM     23  H   UNL     1      -0.066  -2.765   3.330  0.00  0.00    +0.292 HD
ENDBRANCH  14  22
ENDBRANCH  11  12
BRANCH   7  24
ATOM     24  O   UNL     1     -10.336   0.012   2.888  0.00  0.00    -0.507 OA
ATOM     25  H   UNL     1     -10.784   0.504   3.590  0.00  0.00    +0.292 HD
ENDBRANCH   7  24
BRANCH   5  26
ATOM     26  O   UNL     1      -7.432   2.867   0.440  0.00  0.00    -0.506 OA
ATOM     27  H   UNL     1      -7.462   3.767   0.793  0.00  0.00    +0.292 HD
ENDBRANCH   5  26
BRANCH   1  28
ATOM     28  O   UNL     1      -2.811   1.596   2.325  0.00  0.00    -0.453 OA
BRANCH  28  34
ATOM     29  C   UNL     1      -1.790   3.148   6.690  0.00  0.00    +0.041 C 
ATOM     30  C   UNL     1      -1.835   3.569   5.220  0.00  0.00    +0.150 C 
ATOM     31  C   UNL     1      -0.439   4.018   4.774  0.00  0.00    +0.174 C 
ATOM     32  C   UNL     1      -0.481   4.380   3.286  0.00  0.00    +0.180 C 
ATOM     33  C   UNL     1      -0.985   3.172   2.491  0.00  0.00    +0.214 C 
ATOM     34  C   UNL     1      -2.359   2.757   3.025  0.00  0.00    +0.339 C 
ATOM     35  O   UNL     1      -2.257   2.463   4.420  0.00  0.00    -0.334 OA
BRANCH  33  36
ATOM     36  O   UNL     1      -1.096   3.522   1.110  0.00  0.00    -0.383 OA
ATOM     37  H   UNL     1      -1.333   2.782   0.534  0.00  0.00    +0.210 HD
ENDBRANCH  33  36
BRANCH  32  38
ATOM     38  O   UNL     1       0.832   4.730   2.842  0.00  0.00    -0.386 OA
ATOM     39  H   UNL     1       0.880   4.968   1.906  0.00  0.00    +0.210 HD
ENDBRANCH  32  38
BRANCH  31  40
ATOM     40  O   UNL     1      -0.037   5.161   5.532  0.00  0.00    -0.387 OA
ATOM     41  H   UNL     1       0.011   5.004   6.485  0.00  0.00    +0.210 HD
ENDBRANCH  31  40
ENDBRANCH  28  34
ENDBRANCH   1  28
TORSDOF 11
