REMARK  Name = ZINC14269460
REMARK  6 active torsions:
REMARK  status: ('A' for Active; 'I' for Inactive)
REMARK    1  A    between atoms: C_3  and  C_27
REMARK    2  A    between atoms: C_6  and  N_7
REMARK    3  A    between atoms: N_7  and  C_8
REMARK    4  A    between atoms: C_8  and  N_10
REMARK    5  A    between atoms: C_11  and  C_13
REMARK    6  A    between atoms: C_16  and  C_18
REMARK                            x       y       z     vdW  Elec       q    Type
REMARK                         _______ _______ _______ _____ _____    ______ ____
ROOT
ATOM      1  N   UNL     1       5.938  -0.627  -0.262  0.00  0.00    -0.261 N 
ATOM      2  C   UNL     1       7.094   0.057  -0.372  0.00  0.00    +0.285 C 
ATOM      3  O   UNL     1       7.085   1.274  -0.366  0.00  0.00    -0.266 OA
ATOM      4  H   UNL     1       5.945  -1.597  -0.267  0.00  0.00    +0.157 HD
ENDROOT
BRANCH   2   5
ATOM      5  C   UNL     1       8.361  -0.664  -0.498  0.00  0.00    +0.190 A 
ATOM      6  C   UNL     1       9.610  -0.092  -0.623  0.00  0.00    +0.055 A 
ATOM      7  C   UNL     1      10.528  -1.143  -0.710  0.00  0.00    +0.051 A 
ATOM      8  C   UNL     1       9.815  -2.306  -0.646  0.00  0.00    +0.137 A 
ATOM      9  O   UNL     1       8.511  -2.006  -0.519  0.00  0.00    -0.450 OA
BRANCH   8  10
ATOM     10  C   UNL     1      10.382  -3.668  -0.708  0.00  0.00    +0.036 A 
ATOM     11  C   UNL     1      11.271  -4.012  -1.730  0.00  0.00    +0.014 A 
ATOM     12  C   UNL     1      11.801  -5.284  -1.779  0.00  0.00    +0.021 A 
ATOM     13  C   UNL     1      11.446  -6.224  -0.825  0.00  0.00    +0.042 A 
ATOM     14  C   UNL     1      10.562  -5.891   0.188  0.00  0.00    +0.040 A 
ATOM     15  C   UNL     1      10.028  -4.620   0.252  0.00  0.00    +0.053 A 
ATOM     16 CL   UNL     1       8.919  -4.205   1.522  0.00  0.00    -0.083 Cl
ATOM     17 CL   UNL     1      12.113  -7.825  -0.899  0.00  0.00    -0.083 Cl
ENDBRANCH   8  10
ENDBRANCH   2   5
BRANCH   1  18
ATOM     18  C   UNL     1       4.771   0.037  -0.146  0.00  0.00    +0.141 C 
ATOM     19  S   UNL     1       4.757   1.749  -0.137  0.00  0.00    -0.018 S 
BRANCH  18  20
ATOM     20  N   UNL     1       3.615  -0.646  -0.036  0.00  0.00    -0.297 N 
ATOM     21  H   UNL     1       3.628  -1.613   0.040  0.00  0.00    +0.154 HD
BRANCH  20  27
ATOM     22  C   UNL     1       2.192   1.088  -0.919  0.00  0.00    +0.024 A 
ATOM     23  C   UNL     1       0.994   1.765  -0.919  0.00  0.00    +0.018 A 
ATOM     24  C   UNL     1      -0.017   1.395  -0.026  0.00  0.00    +0.082 A 
ATOM     25  C   UNL     1       0.195   0.336   0.864  0.00  0.00    +0.057 A 
ATOM     26  C   UNL     1       1.398  -0.337   0.858  0.00  0.00    +0.044 A 
ATOM     27  C   UNL     1       2.400   0.036  -0.032  0.00  0.00    +0.034 A 
ATOM     28 CL   UNL     1      -1.055  -0.129   1.975  0.00  0.00    -0.083 Cl
BRANCH  24  29
ATOM     29  C   UNL     1      -1.299   2.121  -0.019  0.00  0.00    +0.388 C 
ATOM     30  O   UNL     1      -2.176   1.797   0.757  0.00  0.00    -0.241 OA
ATOM     31  O   UNL     1      -1.499   3.144  -0.873  0.00  0.00    -0.241 OA
ENDBRANCH  24  29
ENDBRANCH  20  27
ENDBRANCH  18  20
ENDBRANCH   1  18
TORSDOF 6
