REMARK  Name = ZINC18207884
REMARK  6 active torsions:
REMARK  status: ('A' for Active; 'I' for Inactive)
REMARK    1  A    between atoms: C_1  and  C_2
REMARK    2  A    between atoms: C_2  and  O_4
REMARK    3  A    between atoms: O_4  and  C_5
REMARK    4  A    between atoms: C_8  and  C_11
REMARK    5  A    between atoms: C_11  and  C_13
REMARK    6  A    between atoms: N_28  and  C_31
REMARK                            x       y       z     vdW  Elec       q    Type
REMARK                         _______ _______ _______ _____ _____    ______ ____
ROOT
ATOM      1  C   UNL     1      -2.565  -7.305  -0.157  0.00  0.00    +0.176 C 
ATOM      2  C   UNL     1      -3.029  -7.064  -1.601  0.00  0.00    +0.119 C 
ATOM      3  C   UNL     1      -3.844  -8.343  -1.964  0.00  0.00    +0.116 C 
ATOM      4  C   UNL     1      -3.260  -9.418  -1.038  0.00  0.00    +0.129 C 
ATOM      5  N   UNL     1      -2.620  -8.739   0.094  0.00  0.00    -0.237 N 
ATOM      6  N   UNL     1      -2.232  -9.443   1.249  0.00  0.00    -0.191 NA
ATOM      7  C   UNL     1      -2.987 -10.467   1.565  0.00  0.00    +0.130 C 
ATOM      8  C   UNL     1      -4.162 -10.796   0.751  0.00  0.00    +0.019 C 
ATOM      9  C   UNL     1      -4.340 -10.320  -0.493  0.00  0.00    -0.001 C 
ATOM     10  C   UNL     1      -3.374  -8.601  -3.387  0.00  0.00    +0.232 C 
ATOM     11  O   UNL     1      -3.957  -9.264  -4.218  0.00  0.00    -0.274 OA
ATOM     12  N   UNL     1      -2.204  -7.968  -3.567  0.00  0.00    -0.210 N 
ATOM     13  C   UNL     1      -1.855  -7.138  -2.553  0.00  0.00    +0.232 C 
ATOM     14  O   UNL     1      -0.796  -6.563  -2.422  0.00  0.00    -0.274 OA
ENDROOT
BRANCH  12  15
ATOM     15  C   UNL     1      -1.411  -8.141  -4.711  0.00  0.00    +0.044 A 
ATOM     16  C   UNL     1      -0.270  -7.372  -4.888  0.00  0.00    +0.025 A 
ATOM     17  C   UNL     1       0.509  -7.544  -6.016  0.00  0.00    +0.017 A 
ATOM     18  C   UNL     1       0.152  -8.483  -6.968  0.00  0.00    +0.018 A 
ATOM     19  C   UNL     1      -0.985  -9.251  -6.793  0.00  0.00    +0.017 A 
ATOM     20  C   UNL     1      -1.764  -9.086  -5.665  0.00  0.00    +0.025 A 
ATOM     21 BR   UNL     1       1.221  -8.715  -8.511  0.00  0.00    -0.050 Br
ENDBRANCH  12  15
BRANCH   1  22
ATOM     22  C   UNL     1      -1.152  -6.811   0.015  0.00  0.00    +0.186 C 
ATOM     23  O   UNL     1      -0.227  -7.595  -0.014  0.00  0.00    -0.290 OA
BRANCH  22  27
ATOM     24  C   UNL     1      -0.409  -2.677   0.601  0.00  0.00    +0.132 A 
ATOM     25  C   UNL     1       0.652  -3.574   0.569  0.00  0.00    +0.047 A 
ATOM     26  C   UNL     1       0.417  -4.917   0.379  0.00  0.00    +0.015 A 
ATOM     27  C   UNL     1      -0.895  -5.379   0.219  0.00  0.00    +0.020 A 
ATOM     28  C   UNL     1      -1.961  -4.471   0.253  0.00  0.00    +0.015 A 
ATOM     29  C   UNL     1      -1.715  -3.131   0.448  0.00  0.00    +0.047 A 
BRANCH  24  30
ATOM     30  O   UNL     1      -0.172  -1.354   0.788  0.00  0.00    -0.426 OA
BRANCH  30  32
ATOM     31  C   UNL     1       0.534   0.835  -0.111  0.00  0.00    +0.136 C 
ATOM     32  C   UNL     1       0.341  -0.654  -0.237  0.00  0.00    +0.309 C 
ATOM     33  O   UNL     1       0.646  -1.218  -1.261  0.00  0.00    -0.251 OA
ENDBRANCH  30  32
ENDBRANCH  24  30
ENDBRANCH  22  27
ENDBRANCH   1  22
TORSDOF 5
