REMARK  Name = ZINC15988791
REMARK  8 active torsions:
REMARK  status: ('A' for Active; 'I' for Inactive)
REMARK    1  A    between atoms: C_1  and  C_2
REMARK    2  A    between atoms: C_5  and  C_17
REMARK    3  A    between atoms: C_7  and  S_8
REMARK    4  A    between atoms: S_8  and  N_11
REMARK    5  A    between atoms: N_19  and  C_20
REMARK    6  A    between atoms: C_20  and  C_21
REMARK    7  A    between atoms: C_21  and  C_23
REMARK    8  A    between atoms: C_21  and  N_65
REMARK                            x       y       z     vdW  Elec       q    Type
REMARK                         _______ _______ _______ _____ _____    ______ ____
ROOT
ATOM      1  C   UNL     1       7.137  -0.026  -2.520  0.00  0.00    +0.244 C 
ATOM      2  O   UNL     1       7.913   0.851  -2.193  0.00  0.00    -0.270 OA
ATOM      3  N   UNL     1       7.428  -0.830  -3.561  0.00  0.00    -0.312 N 
ATOM      4  H   UNL     1       6.809  -1.530  -3.822  0.00  0.00    +0.149 HD
ENDROOT
BRANCH   1   9
ATOM      5  C   UNL     1       2.225  -0.751   0.389  0.00  0.00    +0.046 C 
ATOM      6  C   UNL     1       3.510  -0.559  -0.375  0.00  0.00    -0.024 A 
ATOM      7  C   UNL     1       3.803  -1.383  -1.447  0.00  0.00    +0.006 A 
ATOM      8  C   UNL     1       4.980  -1.217  -2.147  0.00  0.00    +0.013 A 
ATOM      9  C   UNL     1       5.873  -0.210  -1.775  0.00  0.00    +0.039 A 
ATOM     10  C   UNL     1       5.568   0.621  -0.696  0.00  0.00    +0.041 A 
ATOM     11  C   UNL     1       4.388   0.444  -0.004  0.00  0.00    +0.109 A 
BRANCH  11  12
ATOM     12  S   UNL     1       4.001   1.491   1.358  0.00  0.00    +0.061 S 
ATOM     13  O   UNL     1       5.097   2.382   1.510  0.00  0.00    -0.153 OA
ATOM     14  O   UNL     1       3.557   0.644   2.409  0.00  0.00    -0.153 OA
BRANCH  12  15
ATOM     15  N   UNL     1       2.699   2.413   0.913  0.00  0.00    -0.177 NA
ATOM     16  C   UNL     1       1.332   1.987   1.240  0.00  0.00    +0.109 C 
ATOM     17  C   UNL     1       0.499   1.972  -0.045  0.00  0.00    +0.017 C 
ATOM     18  C   UNL     1       0.585   3.342  -0.720  0.00  0.00    +0.003 C 
ATOM     19  C   UNL     1       2.040   3.640  -1.090  0.00  0.00    +0.017 C 
ATOM     20  C   UNL     1       2.890   3.675   0.183  0.00  0.00    +0.109 C 
ENDBRANCH  12  15
ENDBRANCH  11  12
ENDBRANCH   1   9
BRANCH   3  21
ATOM     21  C   UNL     1       8.680  -0.648  -4.300  0.00  0.00    +0.097 C 
BRANCH  21  22
ATOM     22  C   UNL     1       8.708  -1.596  -5.500  0.00  0.00    +0.016 C 
BRANCH  22  28
ATOM     23  C   UNL     1       7.481  -2.302  -7.464  0.00  0.00    -0.078 C 
ATOM     24  C   UNL     1       6.163  -2.132  -8.223  0.00  0.00    -0.019 C 
ATOM     25  C   UNL     1       6.052  -0.690  -8.726  0.00  0.00    -0.004 C 
ATOM     26  C   UNL     1       6.143   0.266  -7.533  0.00  0.00    -0.019 C 
ATOM     27  C   UNL     1       7.461   0.026  -6.794  0.00  0.00    -0.078 C 
ATOM     28  N   UNL     1       7.496  -1.372  -6.315  0.00  0.00    +0.387 N 
ATOM     29  H   UNL     1       6.667  -1.546  -5.735  0.00  0.00    -0.081 HD
ENDBRANCH  22  28
BRANCH  22  30
ATOM     30  C   UNL     1       9.949  -1.340  -6.314  0.00  0.00    +0.093 A 
ATOM     31  C   UNL     1      11.011  -2.161  -6.409  0.00  0.00    +0.043 A 
ATOM     32  C   UNL     1      11.938  -1.533  -7.273  0.00  0.00    +0.041 A 
ATOM     33  C   UNL     1      11.391  -0.363  -7.648  0.00  0.00    +0.195 A 
ATOM     34  O   UNL     1      10.186  -0.252  -7.064  0.00  0.00    -0.469 OA
ENDBRANCH  22  30
ENDBRANCH  21  22
ENDBRANCH   3  21
TORSDOF 7
