REMARK  Name = ZINC22429559
REMARK  6 active torsions:
REMARK  status: ('A' for Active; 'I' for Inactive)
REMARK    1  A    between atoms: C_1  and  C_2
REMARK    2  A    between atoms: C_2  and  C_23
REMARK    3  A    between atoms: N_5  and  C_9
REMARK    4  A    between atoms: C_9  and  C_10
REMARK    5  A    between atoms: C_15  and  S_21
REMARK    6  A    between atoms: S_21  and  C_22
REMARK                            x       y       z     vdW  Elec       q    Type
REMARK                         _______ _______ _______ _____ _____    ______ ____
ROOT
ATOM      1  C   UNL     1      -4.951  12.620   1.510  0.00  0.00    +0.047 C 
ATOM      2  C   UNL     1      -4.614  11.139   1.319  0.00  0.00    +0.135 C 
ATOM      3  C   UNL     1      -3.491  10.724   2.249  0.00  0.00    +0.251 C 
ATOM      4  O   UNL     1      -3.497  10.747   3.461  0.00  0.00    -0.272 OA
ATOM      5  N   UNL     1      -2.484  10.325   1.447  0.00  0.00    -0.219 N 
ATOM      6  C   UNL     1      -2.809  10.434   0.154  0.00  0.00    +0.310 C 
ATOM      7  O   UNL     1      -2.063  10.137  -0.758  0.00  0.00    -0.252 OA
ATOM      8  N   UNL     1      -4.057  10.904  -0.024  0.00  0.00    -0.281 N 
ATOM      9  H   UNL     1      -4.664  11.117  -0.916  0.00  0.00    +0.152 HD
ENDROOT
BRANCH   2  10
ATOM     10  C   UNL     1      -5.833  10.283   1.546  0.00  0.00    -0.012 A 
ATOM     11  C   UNL     1      -6.081   9.755   2.799  0.00  0.00    +0.010 A 
ATOM     12  C   UNL     1      -7.199   8.968   3.015  0.00  0.00    +0.050 A 
ATOM     13  C   UNL     1      -8.070   8.712   1.969  0.00  0.00    +0.162 A 
ATOM     14  C   UNL     1      -7.821   9.242   0.711  0.00  0.00    +0.162 A 
ATOM     15  C   UNL     1      -6.704  10.033   0.500  0.00  0.00    +0.055 A 
ATOM     16  O   UNL     1      -8.685   8.983  -0.313  0.00  0.00    -0.488 OA
ATOM     17  C   UNL     1      -8.720   7.630  -0.773  0.00  0.00    +0.232 C 
ATOM     18  C   UNL     1      -9.659   6.794   0.082  0.00  0.00    +0.082 C 
ATOM     19  C   UNL     1      -9.175   6.666   1.518  0.00  0.00    +0.232 C 
ATOM     20  O   UNL     1      -9.176   7.939   2.168  0.00  0.00    -0.488 OA
ENDBRANCH   2  10
BRANCH   5  21
ATOM     21  C   UNL     1      -1.190   9.838   1.932  0.00  0.00    +0.156 C 
BRANCH  21  22
ATOM     22  C   UNL     1      -1.219   8.333   2.016  0.00  0.00    +0.008 A 
ATOM     23  C   UNL     1      -2.382   7.658   1.776  0.00  0.00    +0.018 A 
ATOM     24  C   UNL     1      -2.366   6.254   1.865  0.00  0.00    +0.001 A 
ATOM     25  C   UNL     1      -3.527   5.497   1.630  0.00  0.00    +0.011 A 
ATOM     26  C   UNL     1      -3.480   4.141   1.719  0.00  0.00    +0.015 A 
ATOM     27  C   UNL     1      -2.288   3.485   2.053  0.00  0.00    +0.010 A 
ATOM     28  C   UNL     1      -1.133   4.200   2.289  0.00  0.00    +0.043 A 
ATOM     29  C   UNL     1      -1.153   5.600   2.199  0.00  0.00    +0.074 A 
ATOM     30  N   UNL     1      -0.048   6.321   2.422  0.00  0.00    -0.235 NA
ATOM     31  C   UNL     1      -0.060   7.630   2.340  0.00  0.00    +0.135 A 
ATOM     32 CL   UNL     1       1.406   8.510   2.642  0.00  0.00    -0.062 Cl
BRANCH  27  33
ATOM     33  S   UNL     1      -2.264   1.727   2.166  0.00  0.00    -0.129 S 
ATOM     34  C   UNL     1      -3.968   1.239   1.784  0.00  0.00    +0.090 C 
ENDBRANCH  27  33
ENDBRANCH  21  22
ENDBRANCH   5  21
TORSDOF 4
