REMARK  Name = ZINC09460741
REMARK  5 active torsions:
REMARK  status: ('A' for Active; 'I' for Inactive)
REMARK    1  A    between atoms: C_1  and  C_2
REMARK    2  A    between atoms: C_2  and  C_4
REMARK    3  A    between atoms: C_7  and  N_10
REMARK    4  A    between atoms: C_25  and  C_31
REMARK    5  A    between atoms: C_31  and  C_33
REMARK                            x       y       z     vdW  Elec       q    Type
REMARK                         _______ _______ _______ _____ _____    ______ ____
ROOT
ATOM      1  N   UNL     1       3.937  -1.644  -0.265  0.00  0.00    -0.210 N 
ATOM      2  C   UNL     1       2.628  -1.566   0.023  0.00  0.00    +0.232 C 
ATOM      3  O   UNL     1       1.770  -2.332  -0.359  0.00  0.00    -0.274 OA
ATOM      4  C   UNL     1       2.406  -0.351   0.910  0.00  0.00    +0.113 C 
ATOM      5  C   UNL     1       2.166   0.867   0.009  0.00  0.00    +0.100 C 
ATOM      6  C   UNL     1       0.759   1.386   0.152  0.00  0.00    -0.021 A 
ATOM      7  C   UNL     1      -0.297   0.533   0.374  0.00  0.00    +0.006 A 
ATOM      8  C   UNL     1      -1.579   1.038   0.507  0.00  0.00    +0.000 A 
ATOM      9  C   UNL     1      -1.803   2.402   0.427  0.00  0.00    +0.001 A 
ATOM     10  C   UNL     1      -0.753   3.268   0.204  0.00  0.00    +0.008 A 
ATOM     11  C   UNL     1       0.542   2.767   0.062  0.00  0.00    -0.019 A 
ATOM     12  C   UNL     1       1.673   3.684  -0.184  0.00  0.00    +0.022 C 
ATOM     13  C   UNL     1       2.932   3.255   0.031  0.00  0.00    +0.054 C 
ATOM     14  C   UNL     1       4.020   1.408   1.429  0.00  0.00    +0.141 C 
ATOM     15  C   UNL     1       3.841  -0.116   1.473  0.00  0.00    +0.116 C 
ATOM     16  C   UNL     1       4.703  -0.781   0.421  0.00  0.00    +0.232 C 
ATOM     17  O   UNL     1       5.882  -0.572   0.232  0.00  0.00    -0.274 OA
ATOM     18  N   UNL     1       3.262   1.783   0.206  0.00  0.00    -0.384 NA
ATOM     19  H   UNL     1       3.906   1.584  -0.569  0.00  0.00    +0.127 HD
ENDROOT
BRANCH   1  23
ATOM     20  C   UNL     1       5.486  -4.333  -3.050  0.00  0.00    +0.017 A 
ATOM     21  C   UNL     1       5.791  -4.475  -1.690  0.00  0.00    +0.013 A 
ATOM     22  C   UNL     1       5.277  -3.585  -0.775  0.00  0.00    +0.024 A 
ATOM     23  C   UNL     1       4.456  -2.545  -1.198  0.00  0.00    +0.044 A 
ATOM     24  C   UNL     1       4.146  -2.402  -2.547  0.00  0.00    +0.024 A 
ATOM     25  C   UNL     1       4.659  -3.284  -3.470  0.00  0.00    +0.013 A 
BRANCH  20  27
ATOM     26  C   UNL     1       5.701  -5.125  -5.493  0.00  0.00    +0.091 C 
ATOM     27  C   UNL     1       6.031  -5.280  -4.031  0.00  0.00    +0.160 C 
ATOM     28  O   UNL     1       6.748  -6.188  -3.664  0.00  0.00    -0.292 OA
ENDBRANCH  20  27
ENDBRANCH   1  23
BRANCH  14  29
ATOM     29  C   UNL     1       5.426   1.744   1.003  0.00  0.00    +0.183 C 
ATOM     30  O   UNL     1       5.639   2.148  -0.121  0.00  0.00    -0.290 OA
BRANCH  29  31
ATOM     31  C   UNL     1       6.541   1.583   1.950  0.00  0.00    +0.019 A 
ATOM     32  C   UNL     1       6.299   1.124   3.249  0.00  0.00    +0.011 A 
ATOM     33  C   UNL     1       7.349   0.971   4.129  0.00  0.00    +0.001 A 
ATOM     34  C   UNL     1       8.639   1.280   3.733  0.00  0.00    +0.000 A 
ATOM     35  C   UNL     1       8.886   1.742   2.452  0.00  0.00    +0.001 A 
ATOM     36  C   UNL     1       7.847   1.895   1.558  0.00  0.00    +0.011 A 
ENDBRANCH  29  31
ENDBRANCH  14  29
TORSDOF 4
