REMARK  Name = ZINC65397323
REMARK  4 active torsions:
REMARK  status: ('A' for Active; 'I' for Inactive)
REMARK    1  A    between atoms: C_1  and  C_2
REMARK    2  A    between atoms: C_7  and  C_20
REMARK    3  A    between atoms: C_25  and  C_31
REMARK    4  A    between atoms: C_26  and  C_30
REMARK                            x       y       z     vdW  Elec       q    Type
REMARK                         _______ _______ _______ _____ _____    ______ ____
ROOT
ATOM      1  C   UNL     1       0.511   1.088   0.538  0.00  0.00    +0.045 C 
ATOM      2  C   UNL     1       0.703  -0.234   1.236  0.00  0.00    -0.036 C 
ATOM      3  C   UNL     1      -0.316  -1.118   1.301  0.00  0.00    +0.080 C 
ATOM      4  N   UNL     1      -0.154  -2.312   1.931  0.00  0.00    -0.286 N 
ATOM      5  C   UNL     1      -1.134  -3.359   2.310  0.00  0.00    +0.113 C 
ATOM      6  C   UNL     1      -1.696  -2.959   3.682  0.00  0.00    +0.049 C 
ATOM      7  C   UNL     1      -0.538  -2.606   4.614  0.00  0.00    +0.105 C 
ATOM      8  C   UNL     1      -0.049  -3.822   5.349  0.00  0.00    +0.214 C 
ATOM      9  O   UNL     1       0.409  -3.658   6.460  0.00  0.00    -0.276 OA
ATOM     10  N   UNL     1      -0.078  -5.061   4.876  0.00  0.00    -0.313 N 
ATOM     11  C   UNL     1      -0.717  -5.440   3.621  0.00  0.00    +0.132 C 
ATOM     12  C   UNL     1      -0.206  -4.580   2.453  0.00  0.00    +0.146 C 
ATOM     13  N   UNL     1       1.096  -3.980   2.758  0.00  0.00    -0.262 NA
ATOM     14  C   UNL     1       1.077  -2.712   2.389  0.00  0.00    +0.121 C 
ATOM     15  C   UNL     1       2.138  -1.764   2.387  0.00  0.00    +0.044 C 
ATOM     16  C   UNL     1       1.945  -0.550   1.814  0.00  0.00    +0.008 C 
ATOM     17  H   UNL     1       0.351  -5.758   5.397  0.00  0.00    +0.149 HD
ENDROOT
BRANCH   6  18
ATOM     18  C   UNL     1      -2.602  -1.765   3.526  0.00  0.00    -0.036 C 
ATOM     19  C   UNL     1      -2.182  -0.544   3.876  0.00  0.00    +0.002 C 
ATOM     20  C   UNL     1      -3.032   0.641   3.796  0.00  0.00    +0.000 C 
ATOM     21  C   UNL     1      -4.387   0.504   3.671  0.00  0.00    +0.006 C 
ATOM     22  C   UNL     1      -4.847  -0.821   3.569  0.00  0.00    -0.014 C 
ATOM     23  C   UNL     1      -5.986  -1.425   3.943  0.00  0.00    -0.024 C 
ATOM     24  C   UNL     1      -5.816  -2.827   3.876  0.00  0.00    +0.037 C 
ATOM     25  N   UNL     1      -4.667  -3.157   3.360  0.00  0.00    -0.276 NA
ATOM     26  C   UNL     1      -3.986  -1.927   2.973  0.00  0.00    +0.162 C 
ATOM     27  C   UNL     1      -6.844  -3.823   4.348  0.00  0.00    +0.065 C 
ATOM     28  C   UNL     1      -7.248  -0.720   4.370  0.00  0.00    +0.046 C 
ENDBRANCH   6  18
TORSDOF 1
