REMARK  Name = ZINC39021333
REMARK  8 active torsions:
REMARK  status: ('A' for Active; 'I' for Inactive)
REMARK    1  A    between atoms: C_1  and  C_2
REMARK    2  A    between atoms: C_5  and  C_8
REMARK    3  A    between atoms: C_10  and  C_14
REMARK    4  A    between atoms: C_18  and  S_22
REMARK    5  A    between atoms: N_20  and  N_21
REMARK    6  A    between atoms: S_22  and  C_23
REMARK    7  A    between atoms: C_23  and  C_24
REMARK    8  A    between atoms: N_26  and  C_27
REMARK                            x       y       z     vdW  Elec       q    Type
REMARK                         _______ _______ _______ _____ _____    ______ ____
ROOT
ATOM      1  C   UNL     1      -1.131  -7.229   0.976  0.00  0.00    +0.185 C 
ATOM      2  N   UNL     1      -2.340  -6.661   0.325  0.00  0.00    -0.234 NA
ATOM      3  N   UNL     1      -3.293  -7.782   0.360  0.00  0.00    -0.228 NA
ATOM      4  C   UNL     1      -2.463  -8.981   0.103  0.00  0.00    +0.214 C 
ATOM      5  N   UNL     1      -1.081  -8.630   0.500  0.00  0.00    -0.197 NA
ATOM      6  H   UNL     1      -2.143  -6.384  -0.625  0.00  0.00    +0.143 HD
ATOM      7  H   UNL     1      -3.747  -7.842   1.259  0.00  0.00    +0.143 HD
ENDROOT
BRANCH   1  10
ATOM      8  C   UNL     1       0.108  -4.279  -0.018  0.00  0.00    +0.091 C 
ATOM      9  C   UNL     1       0.113  -5.054   1.084  0.00  0.00    +0.034 C 
ATOM     10  C   UNL     1       0.122  -6.469   0.533  0.00  0.00    +0.187 C 
ATOM     11  N   UNL     1       0.120  -6.261  -0.925  0.00  0.00    -0.176 NA
ATOM     12  N   UNL     1       0.107  -5.047  -1.138  0.00  0.00    -0.154 NA
BRANCH   8  17
ATOM     13  C   UNL     1       0.072   1.480   0.017  0.00  0.00    +0.044 C 
ATOM     14  C   UNL     1       0.081  -0.027   0.008  0.00  0.00    -0.050 A 
ATOM     15  C   UNL     1       0.080  -0.709  -1.195  0.00  0.00    +0.004 A 
ATOM     16  C   UNL     1       0.089  -2.089  -1.210  0.00  0.00    +0.010 A 
ATOM     17  C   UNL     1       0.099  -2.795  -0.009  0.00  0.00    +0.002 A 
ATOM     18  C   UNL     1       0.100  -2.103   1.201  0.00  0.00    +0.010 A 
ATOM     19  C   UNL     1       0.097  -0.723   1.203  0.00  0.00    +0.004 A 
ENDBRANCH   8  17
ENDBRANCH   1  10
BRANCH   5  20
ATOM     20  N   UNL     1      -0.595  -9.518   1.543  0.00  0.00    -0.264 NA
ATOM     21  H   UNL     1      -0.561 -10.473   1.219  0.00  0.00    +0.137 HD
ATOM     22  H   UNL     1       0.308  -9.219   1.880  0.00  0.00    +0.137 HD
ENDBRANCH   5  20
BRANCH   4  23
ATOM     23  S   UNL     1      -3.060 -10.375   1.099  0.00  0.00    -0.115 S 
BRANCH  23  24
ATOM     24  C   UNL     1      -2.938  -9.777   2.807  0.00  0.00    +0.168 C 
BRANCH  24  25
ATOM     25  C   UNL     1      -3.410 -10.853   3.751  0.00  0.00    +0.227 C 
ATOM     26  O   UNL     1      -3.790 -11.919   3.314  0.00  0.00    -0.275 OA
ATOM     27  N   UNL     1      -3.409 -10.632   5.080  0.00  0.00    -0.285 N 
ATOM     28  H   UNL     1      -3.042  -9.806   5.434  0.00  0.00    +0.155 HD
BRANCH  27  29
ATOM     29  C   UNL     1      -3.936 -11.593   5.951  0.00  0.00    +0.035 A 
ATOM     30  C   UNL     1      -4.610 -11.197   7.098  0.00  0.00    +0.026 A 
ATOM     31  C   UNL     1      -5.131 -12.146   7.956  0.00  0.00    +0.041 A 
ATOM     32  C   UNL     1      -4.981 -13.493   7.673  0.00  0.00    +0.142 A 
ATOM     33  C   UNL     1      -4.309 -13.892   6.528  0.00  0.00    +0.078 A 
ATOM     34  C   UNL     1      -3.792 -12.944   5.665  0.00  0.00    +0.046 A 
ATOM     35 CL   UNL     1      -4.122 -15.581   6.175  0.00  0.00    -0.081 Cl
ATOM     36  F   UNL     1      -5.490 -14.420   8.513  0.00  0.00    -0.204 F 
ENDBRANCH  27  29
ENDBRANCH  24  25
ENDBRANCH  23  24
ENDBRANCH   4  23
TORSDOF 7
