REMARK  Name = ZINC23249269
REMARK  5 active torsions:
REMARK  status: ('A' for Active; 'I' for Inactive)
REMARK    1  A    between atoms: C_6  and  N_7
REMARK    2  A    between atoms: C_8  and  C_10
REMARK    3  A    between atoms: C_10  and  N_11
REMARK    4  A    between atoms: N_14  and  C_17
REMARK    5  A    between atoms: C_17  and  C_18
REMARK                            x       y       z     vdW  Elec       q    Type
REMARK                         _______ _______ _______ _____ _____    ______ ____
ROOT
ATOM      1  N   UNL     1      -2.193  -4.265  -0.312  0.00  0.00    +0.387 N 
ATOM      2  C   UNL     1      -1.481  -4.529  -1.569  0.00  0.00    -0.063 C 
ATOM      3  C   UNL     1      -1.167  -6.023  -1.673  0.00  0.00    +0.066 C 
ATOM      4  N   UNL     1      -2.420  -6.789  -1.629  0.00  0.00    -0.298 NA
ATOM      5  C   UNL     1      -3.156  -6.516  -0.387  0.00  0.00    +0.066 C 
ATOM      6  C   UNL     1      -3.454  -5.018  -0.293  0.00  0.00    -0.063 C 
ATOM      7  H   UNL     1      -1.618  -4.553   0.466  0.00  0.00    -0.081 HD
ENDROOT
BRANCH   1   8
ATOM      8  C   UNL     1      -2.479  -2.828  -0.204  0.00  0.00    +0.019 C 
BRANCH   8  10
ATOM      9  N   UNL     1      -1.200  -0.722   0.010  0.00  0.00    -0.287 N 
ATOM     10  C   UNL     1      -1.183  -2.065  -0.099  0.00  0.00    +0.201 C 
ATOM     11  O   UNL     1      -0.126  -2.659  -0.113  0.00  0.00    -0.278 OA
ATOM     12  H   UNL     1      -2.045  -0.252   0.089  0.00  0.00    +0.155 HD
BRANCH   9  18
ATOM     13  C   UNL     1       0.065   1.248  -0.586  0.00  0.00    +0.025 A 
ATOM     14  C   UNL     1       1.253   1.953  -0.584  0.00  0.00    +0.022 A 
ATOM     15  C   UNL     1       2.379   1.413   0.010  0.00  0.00    +0.041 A 
ATOM     16  C   UNL     1       2.319   0.165   0.605  0.00  0.00    +0.022 A 
ATOM     17  C   UNL     1       1.135  -0.545   0.606  0.00  0.00    +0.025 A 
ATOM     18  C   UNL     1       0.003  -0.005   0.010  0.00  0.00    +0.033 A 
ATOM     19 CL   UNL     1       3.870   2.302   0.009  0.00  0.00    -0.084 Cl
ENDBRANCH   9  18
ENDBRANCH   8  10
ENDBRANCH   1   8
BRANCH   4  20
ATOM     20  C   UNL     1      -2.164  -8.227  -1.784  0.00  0.00    +0.180 C 
BRANCH  20  21
ATOM     21  C   UNL     1      -3.471  -8.952  -1.980  0.00  0.00    +0.230 C 
ATOM     22  O   UNL     1      -4.513  -8.331  -1.990  0.00  0.00    -0.274 OA
ATOM     23  N   UNL     1      -3.482 -10.290  -2.144  0.00  0.00    -0.300 N 
ATOM     24  C   UNL     1      -2.298 -11.162  -2.147  0.00  0.00    +0.108 C 
ATOM     25  C   UNL     1      -2.792 -12.603  -2.392  0.00  0.00    +0.020 C 
ATOM     26  C   UNL     1      -4.167 -12.387  -3.078  0.00  0.00    +0.020 C 
ATOM     27  C   UNL     1      -4.683 -11.121  -2.345  0.00  0.00    +0.108 C 
ENDBRANCH  20  21
ENDBRANCH   4  20
TORSDOF 5
