REMARK  Name = ZINC63141974
REMARK  4 active torsions:
REMARK  status: ('A' for Active; 'I' for Inactive)
REMARK    1  A    between atoms: C_1  and  O_2
REMARK    2  A    between atoms: O_2  and  C_3
REMARK    3  A    between atoms: C_8  and  C_9
REMARK    4  A    between atoms: N_28  and  C_31
REMARK                            x       y       z     vdW  Elec       q    Type
REMARK                         _______ _______ _______ _____ _____    ______ ____
ROOT
ATOM      1  C   UNL     1       0.052  -2.828   0.005  0.00  0.00    +0.137 C 
ATOM      2  C   UNL     1       0.994  -2.901  -1.200  0.00  0.00    +0.131 C 
ATOM      3  C   UNL     1       0.425  -3.956  -2.139  0.00  0.00    -0.034 C 
ATOM      4  C   UNL     1       0.261  -3.362  -3.315  0.00  0.00    -0.001 A 
ATOM      5  C   UNL     1      -0.181  -3.880  -4.620  0.00  0.00    +0.010 A 
ATOM      6  C   UNL     1      -0.248  -2.975  -5.633  0.00  0.00    +0.001 A 
ATOM      7  C   UNL     1       0.077  -1.623  -5.479  0.00  0.00    +0.002 A 
ATOM      8  C   UNL     1       0.497  -1.063  -4.317  0.00  0.00    +0.026 A 
ATOM      9  C   UNL     1       0.612  -1.916  -3.181  0.00  0.00    +0.043 A 
ATOM     10  N   UNL     1       1.015  -1.645  -1.953  0.00  0.00    -0.375 N 
ATOM     11  C   UNL     1       0.079  -5.349  -1.674  0.00  0.00    +0.065 C 
ATOM     12  C   UNL     1      -0.782  -5.189  -0.408  0.00  0.00    +0.167 C 
ATOM     13  N   UNL     1      -0.172  -4.210   0.486  0.00  0.00    -0.279 N 
ATOM     14  C   UNL     1       0.203  -4.507   1.736  0.00  0.00    +0.234 C 
ATOM     15  O   UNL     1       0.721  -3.629   2.393  0.00  0.00    -0.274 OA
ATOM     16  C   UNL     1       0.029  -5.843   2.379  0.00  0.00    +0.204 C 
ATOM     17  N   UNL     1      -0.608  -6.801   1.492  0.00  0.00    -0.288 N 
ATOM     18  C   UNL     1      -0.972  -6.520   0.242  0.00  0.00    +0.237 C 
ATOM     19  O   UNL     1      -1.497  -7.399  -0.408  0.00  0.00    -0.274 OA
ATOM     20  H   UNL     1       1.275  -0.778  -1.604  0.00  0.00    +0.160 HD
ENDROOT
BRANCH  17  21
ATOM     21  C   UNL     1      -0.861  -8.152   1.999  0.00  0.00    +0.077 C 
ATOM     22  C   UNL     1      -1.778  -8.075   3.221  0.00  0.00    +0.022 C 
ATOM     23  C   UNL     1      -2.360  -9.460   3.510  0.00  0.00    +0.002 C 
ATOM     24  C   UNL     1      -2.813 -10.107   2.200  0.00  0.00    +0.000 C 
ATOM     25  C   UNL     1      -1.927 -11.316   1.895  0.00  0.00    +0.000 C 
ATOM     26  C   UNL     1      -0.571 -10.836   1.375  0.00  0.00    +0.000 C 
ATOM     27  C   UNL     1       0.267 -10.314   2.544  0.00  0.00    +0.002 C 
ATOM     28  C   UNL     1       0.465  -8.804   2.397  0.00  0.00    +0.022 C 
ENDBRANCH  17  21
BRANCH   1  34
ATOM     29  C   UNL     1      -0.115  -1.396   2.056  0.00  0.00    +0.125 A 
ATOM     30  C   UNL     1       0.468  -0.641   3.064  0.00  0.00    +0.046 A 
ATOM     31  C   UNL     1       1.841  -0.492   3.107  0.00  0.00    +0.004 A 
ATOM     32  C   UNL     1       2.633  -1.094   2.147  0.00  0.00    +0.001 A 
ATOM     33  C   UNL     1       2.054  -1.846   1.141  0.00  0.00    +0.009 A 
ATOM     34  C   UNL     1       0.682  -2.003   1.097  0.00  0.00    +0.017 A 
BRANCH  29  36
ATOM     35  C   UNL     1      -2.224  -0.890   3.032  0.00  0.00    +0.277 C 
ATOM     36  O   UNL     1      -1.465  -1.544   2.012  0.00  0.00    -0.495 OA
ENDBRANCH  29  36
ENDBRANCH   1  34
TORSDOF 3
