REMARK  Name = ZINC36637328
REMARK  10 active torsions:
REMARK  status: ('A' for Active; 'I' for Inactive)
REMARK    1  A    between atoms: C_1  and  C_2
REMARK    2  A    between atoms: C_2  and  C_3
REMARK    3  A    between atoms: N_9  and  S_10
REMARK    4  A    between atoms: S_10  and  C_13
REMARK    5  A    between atoms: C_16  and  C_19
REMARK    6  A    between atoms: N_21  and  C_22
REMARK    7  A    between atoms: C_22  and  C_23
REMARK    8  A    between atoms: C_23  and  N_24
REMARK    9  A    between atoms: N_24  and  C_25
REMARK   10  A    between atoms: N_24  and  C_26
REMARK                            x       y       z     vdW  Elec       q    Type
REMARK                         _______ _______ _______ _____ _____    ______ ____
ROOT
ATOM      1  C   UNL     1      -2.656   7.192   1.120  0.00  0.00    +0.252 C 
ATOM      2  O   UNL     1      -2.120   7.986   0.373  0.00  0.00    -0.270 OA
ATOM      3  N   UNL     1      -3.962   7.328   1.424  0.00  0.00    -0.248 N 
ATOM      4  C   UNL     1      -4.739   8.252   0.745  0.00  0.00    +0.168 A 
ATOM      5  N   UNL     1      -6.011   8.531   0.900  0.00  0.00    -0.224 NA
ATOM      6  C   UNL     1      -6.646   9.466   0.160  0.00  0.00    +0.080 A 
ATOM      7  C   UNL     1      -8.002   9.860   0.226  0.00  0.00    +0.032 A 
ATOM      8  C   UNL     1      -8.492  10.833  -0.605  0.00  0.00    +0.040 A 
ATOM      9  C   UNL     1      -7.679  11.466  -1.538  0.00  0.00    +0.125 A 
ATOM     10  C   UNL     1      -6.346  11.105  -1.629  0.00  0.00    +0.055 A 
ATOM     11  C   UNL     1      -5.849  10.131  -0.800  0.00  0.00    +0.043 A 
ATOM     12  S   UNL     1      -4.260   9.373  -0.562  0.00  0.00    -0.052 S 
ATOM     13  F   UNL     1      -8.186  12.422  -2.347  0.00  0.00    -0.205 F 
ENDROOT
BRANCH   1  17
ATOM     14  C   UNL     1      -0.415   3.986   2.774  0.00  0.00    +0.106 A 
ATOM     15  C   UNL     1       0.038   4.627   1.634  0.00  0.00    +0.029 A 
ATOM     16  C   UNL     1      -0.686   5.668   1.092  0.00  0.00    +0.015 A 
ATOM     17  C   UNL     1      -1.877   6.076   1.696  0.00  0.00    +0.037 A 
ATOM     18  C   UNL     1      -2.327   5.426   2.846  0.00  0.00    +0.015 A 
ATOM     19  C   UNL     1      -1.597   4.382   3.375  0.00  0.00    +0.029 A 
BRANCH  14  20
ATOM     20  S   UNL     1       0.515   2.656   3.461  0.00  0.00    +0.061 S 
ATOM     21  O   UNL     1       0.287   2.682   4.863  0.00  0.00    -0.153 OA
ATOM     22  O   UNL     1       1.818   2.739   2.898  0.00  0.00    -0.153 OA
BRANCH  20  28
ATOM     23  C   UNL     1       0.172   0.749   1.556  0.00  0.00    +0.080 C 
ATOM     24  C   UNL     1       0.659  -0.699   1.671  0.00  0.00    +0.021 C 
ATOM     25  C   UNL     1      -0.392  -1.528   2.413  0.00  0.00    +0.003 C 
ATOM     26  C   UNL     1      -0.582  -0.969   3.825  0.00  0.00    +0.017 C 
ATOM     27  C   UNL     1      -1.083   0.475   3.734  0.00  0.00    +0.110 C 
ATOM     28  N   UNL     1      -0.154   1.250   2.898  0.00  0.00    -0.174 NA
BRANCH  23  30
ATOM     29  C   UNL     1       1.515   1.178  -0.506  0.00  0.00    +0.005 C 
ATOM     30  C   UNL     1       1.274   1.614   0.940  0.00  0.00    +0.017 C 
ENDBRANCH  23  30
ENDBRANCH  20  28
ENDBRANCH  14  20
ENDBRANCH   1  17
BRANCH   3  31
ATOM     31  C   UNL     1      -4.561   6.499   2.473  0.00  0.00    +0.097 C 
BRANCH  31  32
ATOM     32  C   UNL     1      -4.111   7.008   3.844  0.00  0.00    -0.060 C 
BRANCH  32  33
ATOM     33  N   UNL     1      -4.763   6.218   4.897  0.00  0.00    +0.377 N 
ATOM     34  C   UNL     1      -4.282   4.831   4.838  0.00  0.00    -0.097 C 
ATOM     35  C   UNL     1      -4.440   6.792   6.210  0.00  0.00    -0.097 C 
ATOM     36  H   UNL     1      -5.762   6.234   4.760  0.00  0.00    -0.083 HD
ENDBRANCH  32  33
ENDBRANCH  31  32
ENDBRANCH   3  31
TORSDOF 7
