REMARK  Name = ZINC33812084
REMARK  7 active torsions:
REMARK  status: ('A' for Active; 'I' for Inactive)
REMARK    1  A    between atoms: C_1  and  C_2
REMARK    2  A    between atoms: C_3  and  C_20
REMARK    3  A    between atoms: C_4  and  N_12
REMARK    4  A    between atoms: N_5  and  C_11
REMARK    5  A    between atoms: C_8  and  C_9
REMARK    6  A    between atoms: C_16  and  C_19
REMARK    7  A    between atoms: N_24  and  C_28
REMARK                            x       y       z     vdW  Elec       q    Type
REMARK                         _______ _______ _______ _____ _____    ______ ____
ROOT
ATOM      1  C   UNL     1       4.986   5.551  -0.908  0.00  0.00    +0.046 C 
ATOM      2  C   UNL     1       4.793   4.077  -1.155  0.00  0.00    -0.017 A 
ATOM      3  C   UNL     1       3.502   3.540  -1.298  0.00  0.00    +0.019 A 
ATOM      4  C   UNL     1       3.349   2.162  -1.521  0.00  0.00    +0.111 A 
ATOM      5  N   UNL     1       4.435   1.352  -1.610  0.00  0.00    -0.298 N 
ATOM      6  C   UNL     1       5.681   1.842  -1.482  0.00  0.00    +0.270 A 
ATOM      7  O   UNL     1       6.637   1.092  -1.566  0.00  0.00    -0.266 OA
ATOM      8  C   UNL     1       5.890   3.226  -1.249  0.00  0.00    +0.120 A 
ATOM      9  C   UNL     1       4.246  -0.081  -1.849  0.00  0.00    +0.154 C 
ENDROOT
BRANCH   3  10
ATOM     10  C   UNL     1       2.328   4.409  -1.209  0.00  0.00    +0.032 C 
ATOM     11  C   UNL     1       2.101   5.347  -2.168  0.00  0.00    +0.077 C 
ATOM     12  C   UNL     1       2.800   5.584  -3.390  0.00  0.00    +0.259 C 
ATOM     13  O   UNL     1       3.755   4.898  -3.710  0.00  0.00    -0.269 OA
ATOM     14  N   UNL     1       2.381   6.570  -4.164  0.00  0.00    -0.252 N 
ATOM     15  C   UNL     1       1.322   7.331  -3.809  0.00  0.00    +0.121 C 
ATOM     16  S   UNL     1       0.615   8.645  -4.649  0.00  0.00    -0.027 S 
ATOM     17  S   UNL     1       0.842   6.614  -2.245  0.00  0.00    -0.061 S 
BRANCH  14  18
ATOM     18  C   UNL     1       3.074   6.842  -5.426  0.00  0.00    +0.083 C 
ATOM     19  C   UNL     1       3.574   8.301  -5.450  0.00  0.00    +0.023 C 
ATOM     20  C   UNL     1       3.376   8.746  -6.921  0.00  0.00    +0.002 C 
ATOM     21  C   UNL     1       2.040   8.065  -7.307  0.00  0.00    +0.002 C 
ATOM     22  C   UNL     1       2.099   6.692  -6.606  0.00  0.00    +0.023 C 
ENDBRANCH  14  18
ENDBRANCH   3  10
BRANCH   4  23
ATOM     23  N   UNL     1       2.098   1.634  -1.656  0.00  0.00    -0.316 N 
ATOM     24  C   UNL     1       1.380   2.261  -2.773  0.00  0.00    +0.106 C 
ATOM     25  C   UNL     1       0.043   1.547  -2.987  0.00  0.00    +0.019 C 
ATOM     26  C   UNL     1      -0.789   1.638  -1.705  0.00  0.00    +0.006 C 
ATOM     27  C   UNL     1       0.001   1.022  -0.547  0.00  0.00    +0.003 C 
ATOM     28  C   UNL     1       1.339   1.751  -0.405  0.00  0.00    +0.109 C 
ATOM     29  C   UNL     1      -0.798   1.162   0.750  0.00  0.00    +0.009 C 
ENDBRANCH   4  23
BRANCH   8  30
ATOM     30  C   UNL     1       7.219   3.742  -1.113  0.00  0.00    +0.105 C 
ATOM     31  N   UNL     1       8.273   4.152  -1.005  0.00  0.00    -0.191 NA
ENDBRANCH   8  30
TORSDOF 4
