REMARK  Name = ZINC12632239
REMARK  4 active torsions:
REMARK  status: ('A' for Active; 'I' for Inactive)
REMARK    1  A    between atoms: C_1  and  N_2
REMARK    2  A    between atoms: C_6  and  C_20
REMARK    3  A    between atoms: N_10  and  C_11
REMARK    4  A    between atoms: N_22  and  C_23
REMARK                            x       y       z     vdW  Elec       q    Type
REMARK                         _______ _______ _______ _____ _____    ______ ____
ROOT
ATOM      1  C   UNL     1      -2.550  12.620  -0.192  0.00  0.00    +0.140 C 
ATOM      2  N   UNL     1      -2.196  11.207  -0.042  0.00  0.00    -0.254 N 
ATOM      3  C   UNL     1      -2.656  10.351  -0.946  0.00  0.00    +0.223 C 
ATOM      4  O   UNL     1      -3.270  10.828  -1.876  0.00  0.00    -0.275 OA
ATOM      5  C   UNL     1      -2.501   8.867  -0.944  0.00  0.00    +0.120 C 
ATOM      6  C   UNL     1      -1.270   8.419  -0.156  0.00  0.00    +0.149 C 
ATOM      7  S   UNL     1      -1.347   9.146   1.506  0.00  0.00    -0.077 S 
ATOM      8  C   UNL     1      -1.405  10.849   1.032  0.00  0.00    +0.164 C 
ATOM      9  N   UNL     1      -0.709  11.750   1.684  0.00  0.00    -0.226 NA
ENDROOT
BRANCH   9  10
ATOM     10  C   UNL     1       0.071  11.376   2.748  0.00  0.00    +0.070 A 
ATOM     11  C   UNL     1      -0.435  10.504   3.714  0.00  0.00    +0.031 A 
ATOM     12  C   UNL     1       0.354  10.125   4.781  0.00  0.00    +0.051 A 
ATOM     13  C   UNL     1       1.645  10.615   4.903  0.00  0.00    +0.166 A 
ATOM     14  C   UNL     1       2.154  11.489   3.945  0.00  0.00    +0.168 A 
ATOM     15  C   UNL     1       1.370  11.869   2.870  0.00  0.00    +0.077 A 
ATOM     16  O   UNL     1       3.432  11.821   4.293  0.00  0.00    -0.453 OA
ATOM     17  C   UNL     1       3.557  11.467   5.683  0.00  0.00    +0.466 C 
ATOM     18  O   UNL     1       2.606  10.400   5.851  0.00  0.00    -0.453 OA
ENDBRANCH   9  10
BRANCH   6  19
ATOM     19  C   UNL     1      -1.256   6.915  -0.051  0.00  0.00    +0.231 C 
ATOM     20  O   UNL     1      -2.300   6.298  -0.044  0.00  0.00    -0.274 OA
ATOM     21  N   UNL     1      -0.083   6.257   0.036  0.00  0.00    -0.285 N 
ATOM     22  H   UNL     1       0.748   6.753   0.108  0.00  0.00    +0.155 HD
BRANCH  21  23
ATOM     23  C   UNL     1      -0.063   4.857   0.022  0.00  0.00    +0.033 A 
ATOM     24  C   UNL     1      -1.002   4.156  -0.722  0.00  0.00    +0.024 A 
ATOM     25  C   UNL     1      -0.980   2.775  -0.734  0.00  0.00    +0.016 A 
ATOM     26  C   UNL     1      -0.025   2.091  -0.004  0.00  0.00    +0.013 A 
ATOM     27  C   UNL     1       0.908   2.787   0.743  0.00  0.00    +0.016 A 
ATOM     28  C   UNL     1       0.895   4.168   0.753  0.00  0.00    +0.024 A 
ATOM     29  I   UNL     1       0.004  -0.004  -0.025  0.00  0.00    -0.044 I 
ENDBRANCH  21  23
ENDBRANCH   6  19
TORSDOF 3
