REMARK  Name = ZINC09237327
REMARK  5 active torsions:
REMARK  status: ('A' for Active; 'I' for Inactive)
REMARK    1  A    between atoms: C_1  and  C_2
REMARK    2  A    between atoms: C_5  and  C_8
REMARK    3  A    between atoms: C_10  and  C_20
REMARK    4  A    between atoms: C_16  and  C_19
REMARK    5  A    between atoms: N_22  and  C_23
REMARK                            x       y       z     vdW  Elec       q    Type
REMARK                         _______ _______ _______ _____ _____    ______ ____
ROOT
ATOM      1  C   UNL     1      -4.797  -0.080  -0.439  0.00  0.00    +0.140 C 
ATOM      2  C   UNL     1      -3.659  -0.848   0.246  0.00  0.00    +0.166 C 
ATOM      3  S   UNL     1      -4.096  -1.044   2.000  0.00  0.00    -0.069 S 
ATOM      4  C   UNL     1      -4.667   0.600   2.294  0.00  0.00    +0.209 A 
ATOM      5  N   UNL     1      -4.916   1.174   3.438  0.00  0.00    -0.121 NA
ATOM      6  N   UNL     1      -5.323   2.380   3.233  0.00  0.00    -0.132 NA
ATOM      7  C   UNL     1      -5.351   2.633   1.954  0.00  0.00    +0.148 A 
ATOM      8  N   UNL     1      -4.927   1.508   1.307  0.00  0.00    -0.225 N 
ATOM      9  N   UNL     1      -4.784   1.326  -0.031  0.00  0.00    -0.272 N 
ATOM     10  C   UNL     1      -5.773   3.929   1.309  0.00  0.00    +0.090 C 
ATOM     11  H   UNL     1      -5.471   1.857  -0.544  0.00  0.00    +0.167 HD
ENDROOT
BRANCH   1  16
ATOM     12  C   UNL     1      -4.147  -0.413  -6.171  0.00  0.00    +0.044 C 
ATOM     13  C   UNL     1      -4.316  -0.326  -4.676  0.00  0.00    -0.050 A 
ATOM     14  C   UNL     1      -5.218  -1.154  -4.034  0.00  0.00    +0.004 A 
ATOM     15  C   UNL     1      -5.373  -1.074  -2.662  0.00  0.00    +0.006 A 
ATOM     16  C   UNL     1      -4.627  -0.167  -1.934  0.00  0.00    -0.024 A 
ATOM     17  C   UNL     1      -3.730   0.665  -2.577  0.00  0.00    +0.006 A 
ATOM     18  C   UNL     1      -3.571   0.582  -3.948  0.00  0.00    +0.004 A 
ENDBRANCH   1  16
BRANCH   2  19
ATOM     19  C   UNL     1      -2.373  -0.070   0.125  0.00  0.00    +0.233 C 
ATOM     20  O   UNL     1      -2.395   1.143   0.132  0.00  0.00    -0.274 OA
ATOM     21  N   UNL     1      -1.200  -0.722   0.009  0.00  0.00    -0.283 N 
ATOM     22  H   UNL     1      -1.188  -1.688  -0.077  0.00  0.00    +0.155 HD
BRANCH  21  23
ATOM     23  C   UNL     1       0.003  -0.005   0.013  0.00  0.00    +0.052 A 
ATOM     24  C   UNL     1       0.069   1.238   0.627  0.00  0.00    +0.025 A 
ATOM     25  C   UNL     1       1.257   1.944   0.629  0.00  0.00    +0.002 A 
ATOM     26  C   UNL     1       2.379   1.413   0.020  0.00  0.00    +0.002 A 
ATOM     27  C   UNL     1       2.317   0.175  -0.593  0.00  0.00    +0.022 A 
ATOM     28  C   UNL     1       1.132  -0.536  -0.598  0.00  0.00    +0.062 A 
ATOM     29 CL   UNL     1       1.055  -2.091  -1.367  0.00  0.00    -0.082 Cl
ENDBRANCH  21  23
ENDBRANCH   2  19
TORSDOF 3
