REMARK  Name = ZINC31161533
REMARK  16 active torsions:
REMARK  status: ('A' for Active; 'I' for Inactive)
REMARK    1  A    between atoms: C_1  and  O_2
REMARK    2  A    between atoms: O_2  and  C_3
REMARK    3  A    between atoms: C_5  and  O_41
REMARK    4  A    between atoms: C_6  and  O_40
REMARK    5  A    between atoms: C_8  and  C_9
REMARK    6  A    between atoms: C_14  and  O_23
REMARK    7  A    between atoms: C_15  and  O_21
REMARK    8  A    between atoms: C_16  and  O_20
REMARK    9  A    between atoms: O_21  and  C_22
REMARK   10  A    between atoms: O_23  and  C_24
REMARK   11  A    between atoms: C_26  and  O_39
REMARK   12  A    between atoms: C_28  and  O_38
REMARK   13  A    between atoms: C_30  and  O_37
REMARK   14  A    between atoms: C_32  and  C_35
REMARK   15  A    between atoms: C_35  and  O_36
REMARK   16  A    between atoms: O_41  and  C_42
REMARK                            x       y       z     vdW  Elec       q    Type
REMARK                         _______ _______ _______ _____ _____    ______ ____
ROOT
ATOM      1  C   UNL     1       5.000   4.093  -2.337  0.00  0.00    +0.068 A 
ATOM      2  C   UNL     1       5.496   4.341  -1.098  0.00  0.00    +0.208 A 
ATOM      3  O   UNL     1       4.852   3.989   0.019  0.00  0.00    -0.462 OA
ATOM      4  C   UNL     1       3.659   3.361   0.018  0.00  0.00    +0.146 A 
ATOM      5  C   UNL     1       3.041   3.022   1.214  0.00  0.00    +0.096 A 
ATOM      6  C   UNL     1       1.812   2.383   1.205  0.00  0.00    +0.173 A 
ATOM      7  C   UNL     1       1.187   2.059   0.002  0.00  0.00    +0.204 A 
ATOM      8  C   UNL     1       1.788   2.388  -1.202  0.00  0.00    +0.177 A 
ATOM      9  C   UNL     1       3.028   3.041  -1.198  0.00  0.00    +0.110 A 
ATOM     10  C   UNL     1       3.700   3.409  -2.454  0.00  0.00    +0.204 A 
ATOM     11  O   UNL     1       3.205   3.160  -3.540  0.00  0.00    -0.286 OA
ENDROOT
BRANCH   1  17
ATOM     12  C   UNL     1       5.222   5.467  -4.408  0.00  0.00    +0.132 A 
ATOM     13  C   UNL     1       5.928   5.850  -5.536  0.00  0.00    +0.095 A 
ATOM     14  C   UNL     1       7.155   5.268  -5.817  0.00  0.00    +0.165 A 
ATOM     15  C   UNL     1       7.682   4.301  -4.966  0.00  0.00    +0.159 A 
ATOM     16  C   UNL     1       6.984   3.918  -3.835  0.00  0.00    +0.061 A 
ATOM     17  C   UNL     1       5.751   4.501  -3.548  0.00  0.00    +0.034 A 
BRANCH  12  19
ATOM     18  C   UNL     1       3.537   7.015  -5.058  0.00  0.00    +0.277 C 
ATOM     19  O   UNL     1       4.017   6.035  -4.135  0.00  0.00    -0.494 OA
ENDBRANCH  12  19
BRANCH  15  20
ATOM     20  O   UNL     1       8.886   3.733  -5.246  0.00  0.00    -0.503 OA
ATOM     21  H   UNL     1       9.304   2.969  -4.574  0.00  0.00    +0.292 HD
ENDBRANCH  15  20
BRANCH  14  22
ATOM     22  O   UNL     1       7.844   5.643  -6.928  0.00  0.00    -0.491 OA
ATOM     23  C   UNL     1       7.245   6.639  -7.758  0.00  0.00    +0.277 C 
ENDBRANCH  14  22
ENDBRANCH   1  17
BRANCH   8  24
ATOM     24  O   UNL     1       1.181   2.080  -2.377  0.00  0.00    -0.503 OA
ATOM     25  H   UNL     1       1.662   2.344  -3.331  0.00  0.00    +0.292 HD
ENDBRANCH   8  24
BRANCH   7  26
ATOM     26  O   UNL     1      -0.017   1.425   0.010  0.00  0.00    -0.488 OA
ATOM     27  C   UNL     1       0.002  -0.004   0.002  0.00  0.00    +0.277 C 
ENDBRANCH   7  26
BRANCH   6  28
ATOM     28  O   UNL     1       1.214   2.062   2.381  0.00  0.00    -0.457 OA
BRANCH  28  29
ATOM     29  C   UNL     1       1.905   2.419   3.580  0.00  0.00    +0.339 C 
ATOM     30  C   UNL     1       1.214   1.768   4.781  0.00  0.00    +0.214 C 
ATOM     31  C   UNL     1      -0.216   2.305   4.891  0.00  0.00    +0.180 C 
ATOM     32  C   UNL     1      -0.169   3.832   5.005  0.00  0.00    +0.177 C 
ATOM     33  C   UNL     1       0.575   4.404   3.795  0.00  0.00    +0.179 C 
ATOM     34  O   UNL     1       1.887   3.840   3.734  0.00  0.00    -0.331 OA
BRANCH  32  35
ATOM     35  O   UNL     1      -1.501   4.350   5.035  0.00  0.00    -0.386 OA
ATOM     36  H   UNL     1      -1.667   5.434   5.115  0.00  0.00    +0.210 HD
ENDBRANCH  32  35
BRANCH  31  37
ATOM     37  O   UNL     1      -0.956   1.935   3.726  0.00  0.00    -0.386 OA
ATOM     38  H   UNL     1      -2.010   2.235   3.626  0.00  0.00    +0.210 HD
ENDBRANCH  31  37
BRANCH  30  39
ATOM     39  O   UNL     1       1.935   2.082   5.974  0.00  0.00    -0.383 OA
ATOM     40  H   UNL     1       1.587   1.698   6.944  0.00  0.00    +0.210 HD
ENDBRANCH  30  39
BRANCH  33  41
ATOM     41  C   UNL     1       0.678   5.924   3.931  0.00  0.00    +0.190 C 
BRANCH  41  42
ATOM     42  O   UNL     1       1.270   6.469   2.750  0.00  0.00    -0.392 OA
ATOM     43  H   UNL     1       1.426   7.554   2.664  0.00  0.00    +0.210 HD
ENDBRANCH  41  42
ENDBRANCH  33  41
ENDBRANCH  28  29
ENDBRANCH   6  28
TORSDOF 13
