REMARK  Name = ZINC21604479
REMARK  8 active torsions:
REMARK  status: ('A' for Active; 'I' for Inactive)
REMARK    1  A    between atoms: C_1  and  C_2
REMARK    2  A    between atoms: C_2  and  C_4
REMARK    3  A    between atoms: C_2  and  S_17
REMARK    4  A    between atoms: N_6  and  C_7
REMARK    5  A    between atoms: C_11  and  S_13
REMARK    6  A    between atoms: S_13  and  N_16
REMARK    7  A    between atoms: S_17  and  C_18
REMARK    8  A    between atoms: C_20  and  C_27
REMARK                            x       y       z     vdW  Elec       q    Type
REMARK                         _______ _______ _______ _____ _____    ______ ____
ROOT
ATOM      1  C   UNL     1       0.385  -1.971  -5.031  0.00  0.00    +0.029 C 
ATOM      2  C   UNL     1       1.331  -2.338  -3.886  0.00  0.00    +0.136 C 
ENDROOT
BRANCH   2   3
ATOM      3  C   UNL     1       2.740  -1.952  -4.255  0.00  0.00    +0.230 C 
ATOM      4  O   UNL     1       3.221  -0.926  -3.823  0.00  0.00    -0.274 OA
ATOM      5  N   UNL     1       3.467  -2.748  -5.065  0.00  0.00    -0.285 N 
ATOM      6  H   UNL     1       3.004  -3.633  -5.526  0.00  0.00    +0.155 HD
BRANCH   5   7
ATOM      7  C   UNL     1       4.809  -2.447  -5.320  0.00  0.00    +0.035 A 
ATOM      8  C   UNL     1       5.596  -1.877  -4.327  0.00  0.00    +0.023 A 
ATOM      9  C   UNL     1       6.920  -1.582  -4.582  0.00  0.00    +0.004 A 
ATOM     10  C   UNL     1       7.464  -1.853  -5.824  0.00  0.00    +0.028 A 
ATOM     11  C   UNL     1       6.684  -2.421  -6.815  0.00  0.00    +0.107 A 
ATOM     12  C   UNL     1       5.360  -2.724  -6.564  0.00  0.00    +0.051 A 
BRANCH  11  13
ATOM     13  S   UNL     1       7.382  -2.765  -8.396  0.00  0.00    +0.056 S 
ATOM     14  O   UNL     1       6.303  -2.791  -9.319  0.00  0.00    -0.153 OA
ATOM     15  O   UNL     1       8.493  -1.892  -8.548  0.00  0.00    -0.153 OA
BRANCH  13  16
ATOM     16  N   UNL     1       7.993  -4.303  -8.337  0.00  0.00    -0.204 NA
ATOM     17  H   UNL     1       8.440  -4.557  -9.309  0.00  0.00    +0.144 HD
ATOM     18  H   UNL     1       7.182  -5.011  -8.110  0.00  0.00    +0.144 HD
ENDBRANCH  13  16
ENDBRANCH  11  13
ENDBRANCH   5   7
ENDBRANCH   2   3
BRANCH   2  19
ATOM     19  S   UNL     1       0.836  -1.453  -2.387  0.00  0.00    -0.093 S 
BRANCH  19  20
ATOM     20  C   UNL     1      -0.742  -2.185  -2.106  0.00  0.00    +0.110 A 
ATOM     21  C   UNL     1      -1.533  -1.786  -0.995  0.00  0.00    +0.047 A 
ATOM     22  C   UNL     1      -1.252  -0.797   0.040  0.00  0.00    +0.001 A 
ATOM     23  C   UNL     1      -2.171  -0.593   1.013  0.00  0.00    +0.056 A 
ATOM     24  S   UNL     1      -3.485  -1.718   0.586  0.00  0.00    -0.076 S 
ATOM     25  C   UNL     1      -2.776  -2.439  -0.871  0.00  0.00    +0.113 A 
ATOM     26  N   UNL     1      -3.160  -3.357  -1.737  0.00  0.00    -0.228 NA
ATOM     27  C   UNL     1      -2.382  -3.687  -2.750  0.00  0.00    +0.223 A 
ATOM     28  N   UNL     1      -1.205  -3.115  -2.928  0.00  0.00    -0.228 NA
BRANCH  22  29
ATOM     29  C   UNL     1       0.020  -0.035   0.031  0.00  0.00    -0.016 A 
ATOM     30  C   UNL     1       0.885  -0.104   1.122  0.00  0.00    +0.011 A 
ATOM     31  C   UNL     1       2.067   0.607   1.109  0.00  0.00    +0.039 A 
ATOM     32  C   UNL     1       2.396   1.388   0.013  0.00  0.00    +0.123 A 
ATOM     33  C   UNL     1       1.540   1.460  -1.074  0.00  0.00    +0.039 A 
ATOM     34  C   UNL     1       0.355   0.752  -1.070  0.00  0.00    +0.011 A 
ATOM     35  F   UNL     1       3.555   2.083   0.004  0.00  0.00    -0.205 F 
ENDBRANCH  22  29
ENDBRANCH  19  20
ENDBRANCH   2  19
TORSDOF 7
