REMARK  Name = ZINC32810108
REMARK  7 active torsions:
REMARK  status: ('A' for Active; 'I' for Inactive)
REMARK    1  A    between atoms: C_1  and  C_2
REMARK    2  A    between atoms: N_13  and  C_22
REMARK    3  A    between atoms: C_14  and  C_16
REMARK    4  A    between atoms: C_16  and  N_17
REMARK    5  A    between atoms: C_22  and  C_23
REMARK    6  A    between atoms: C_23  and  C_25
REMARK    7  A    between atoms: C_23  and  O_32
REMARK                            x       y       z     vdW  Elec       q    Type
REMARK                         _______ _______ _______ _____ _____    ______ ____
ROOT
ATOM      1  C   UNL     1      11.967   3.446  -2.098  0.00  0.00    +0.008 C 
ATOM      2  C   UNL     1      10.501   3.848  -2.276  0.00  0.00    -0.009 C 
ATOM      3  C   UNL     1       9.608   2.907  -1.462  0.00  0.00    +0.008 C 
ATOM      4  C   UNL     1       8.141   3.141  -1.825  0.00  0.00    +0.037 C 
ATOM      5  C   UNL     1       7.830   4.628  -1.686  0.00  0.00    -0.023 A 
ATOM      6  C   UNL     1       8.824   5.541  -1.666  0.00  0.00    -0.004 A 
ATOM      7  S   UNL     1       8.008   7.106  -1.495  0.00  0.00    -0.073 S 
ATOM      8  C   UNL     1       6.330   6.527  -1.452  0.00  0.00    +0.116 A 
ATOM      9  C   UNL     1       6.462   5.134  -1.571  0.00  0.00    +0.076 A 
ATOM     10  C   UNL     1       5.236   4.392  -1.564  0.00  0.00    +0.263 A 
ATOM     11  O   UNL     1       5.246   3.178  -1.662  0.00  0.00    -0.267 OA
ATOM     12  N   UNL     1       4.073   5.060  -1.447  0.00  0.00    -0.295 N 
ATOM     13  C   UNL     1       4.042   6.413  -1.343  0.00  0.00    +0.097 A 
ATOM     14  N   UNL     1       5.143   7.116  -1.340  0.00  0.00    -0.228 NA
ATOM     15  C   UNL     1      10.296   5.283  -1.768  0.00  0.00    +0.046 C 
ENDROOT
BRANCH  13  16
ATOM     16  C   UNL     1       2.715   7.116  -1.221  0.00  0.00    -0.003 C 
BRANCH  16  17
ATOM     17  N   UNL     1       2.935   8.565  -1.122  0.00  0.00    +0.384 N 
ATOM     18  C   UNL     1       3.791   9.051  -2.235  0.00  0.00    -0.078 C 
ATOM     19  C   UNL     1       3.483  10.569  -2.282  0.00  0.00    -0.020 C 
ATOM     20  C   UNL     1       1.970  10.625  -1.971  0.00  0.00    -0.020 C 
ATOM     21  C   UNL     1       1.660   9.305  -1.241  0.00  0.00    -0.078 C 
ATOM     22  H   UNL     1       3.407   8.730  -0.142  0.00  0.00    -0.081 HD
ENDBRANCH  16  17
ENDBRANCH  13  16
BRANCH  12  23
ATOM     23  C   UNL     1       2.814   4.311  -1.439  0.00  0.00    +0.162 C 
BRANCH  23  24
ATOM     24  C   UNL     1       2.453   3.935  -0.001  0.00  0.00    +0.167 C 
BRANCH  24  25
ATOM     25  C   UNL     1       1.158   3.165   0.007  0.00  0.00    +0.018 A 
ATOM     26  C   UNL     1       1.175   1.783   0.000  0.00  0.00    +0.009 A 
ATOM     27  C   UNL     1      -0.013   1.076   0.008  0.00  0.00    +0.001 A 
ATOM     28  C   UNL     1      -1.220   1.750   0.017  0.00  0.00    +0.003 A 
ATOM     29  C   UNL     1      -1.240   3.132   0.031  0.00  0.00    +0.039 A 
ATOM     30  C   UNL     1      -0.050   3.841   0.023  0.00  0.00    +0.129 A 
ATOM     31  F   UNL     1      -0.068   5.192   0.029  0.00  0.00    -0.205 F 
ENDBRANCH  24  25
BRANCH  24  32
ATOM     32  O   UNL     1       3.492   3.126   0.555  0.00  0.00    -0.385 OA
ATOM     33  H   UNL     1       3.409   2.757   1.588  0.00  0.00    +0.210 HD
ENDBRANCH  24  32
ENDBRANCH  23  24
ENDBRANCH  12  23
TORSDOF 6
