REMARK  Name = ZINC36612928
REMARK  8 active torsions:
REMARK  status: ('A' for Active; 'I' for Inactive)
REMARK    1  A    between atoms: C_1  and  C_2
REMARK    2  A    between atoms: C_2  and  C_4
REMARK    3  A    between atoms: C_2  and  N_10
REMARK    4  A    between atoms: N_10  and  C_11
REMARK    5  A    between atoms: C_11  and  C_12
REMARK    6  A    between atoms: C_15  and  O_19
REMARK    7  A    between atoms: O_19  and  C_20
REMARK    8  A    between atoms: C_20  and  C_21
REMARK                            x       y       z     vdW  Elec       q    Type
REMARK                         _______ _______ _______ _____ _____    ______ ____
ROOT
ATOM      1  C   UNL     1       0.689  -0.618   3.619  0.00  0.00    -0.062 A 
ATOM      2  C   UNL     1       0.421  -1.881   4.114  0.00  0.00    +0.020 A 
ATOM      3  C   UNL     1       1.087  -2.341   5.234  0.00  0.00    +0.061 A 
ATOM      4  C   UNL     1       2.027  -1.535   5.861  0.00  0.00    +0.149 A 
ATOM      5  C   UNL     1       2.295  -0.268   5.361  0.00  0.00    +0.061 A 
ATOM      6  C   UNL     1       1.629   0.185   4.238  0.00  0.00    +0.020 A 
ATOM      7 BR   UNL     1       3.575   0.834   6.212  0.00  0.00    -0.046 Br
ATOM      8 BR   UNL     1       0.719  -4.067   5.912  0.00  0.00    -0.046 Br
ENDROOT
BRANCH   1   9
ATOM      9  C   UNL     1      -0.040  -0.119   2.398  0.00  0.00    -0.046 C 
BRANCH   9  10
ATOM     10  N   UNL     1       0.713  -0.491   1.192  0.00  0.00    +0.386 N 
ATOM     11  H   UNL     1       0.798  -1.495   1.145  0.00  0.00    -0.085 HD
ATOM     12  H   UNL     1       1.632  -0.076   1.228  0.00  0.00    -0.085 HD
BRANCH  10  14
ATOM     13  C   UNL     1      -0.019   1.526   0.010  0.00  0.00    -0.009 C 
ATOM     14  C   UNL     1       0.002  -0.004   0.002  0.00  0.00    -0.044 C 
BRANCH  14  15
ATOM     15  C   UNL     1       0.707  -0.490  -1.238  0.00  0.00    -0.062 A 
ATOM     16  C   UNL     1       2.089  -0.511  -1.284  0.00  0.00    +0.002 A 
ATOM     17  C   UNL     1       2.736  -0.957  -2.421  0.00  0.00    +0.000 A 
ATOM     18  C   UNL     1       2.002  -1.382  -3.512  0.00  0.00    +0.000 A 
ATOM     19  C   UNL     1       0.620  -1.362  -3.466  0.00  0.00    +0.000 A 
ATOM     20  C   UNL     1      -0.027  -0.920  -2.327  0.00  0.00    +0.002 A 
ENDBRANCH  14  15
ENDBRANCH  10  14
ENDBRANCH   9  10
ENDBRANCH   1   9
BRANCH   4  21
ATOM     21  O   UNL     1       2.684  -1.985   6.963  0.00  0.00    -0.481 OA
BRANCH  21  22
ATOM     22  C   UNL     1       3.910  -2.686   6.746  0.00  0.00    +0.324 C 
BRANCH  22  23
ATOM     23  C   UNL     1       4.490  -3.105   8.072  0.00  0.00    +0.248 C 
ATOM     24  O   UNL     1       3.911  -2.830   9.102  0.00  0.00    -0.272 OA
ATOM     25  N   UNL     1       5.653  -3.785   8.114  0.00  0.00    -0.327 N 
ATOM     26  H   UNL     1       6.117  -4.005   7.291  0.00  0.00    +0.145 HD
ATOM     27  H   UNL     1       6.027  -4.055   8.968  0.00  0.00    +0.145 HD
ENDBRANCH  22  23
ENDBRANCH  21  22
ENDBRANCH   4  21
TORSDOF 7
