REMARK  Name = ZINC35369868
REMARK  2 active torsions:
REMARK  status: ('A' for Active; 'I' for Inactive)
REMARK    1  A    between atoms: C_5  and  N_7
REMARK    2  A    between atoms: C_20  and  C_22
REMARK                            x       y       z     vdW  Elec       q    Type
REMARK                         _______ _______ _______ _____ _____    ______ ____
ROOT
ATOM      1  N   UNL     1       0.699  -1.962  -0.474  0.00  0.00    -0.267 N 
ATOM      2  C   UNL     1      -0.256  -2.788  -0.003  0.00  0.00    +0.307 C 
ATOM      3  O   UNL     1      -1.342  -2.343   0.315  0.00  0.00    -0.252 OA
ATOM      4  N   UNL     1      -0.007  -4.107   0.116  0.00  0.00    -0.285 N 
ATOM      5  C   UNL     1       1.339  -4.640  -0.136  0.00  0.00    +0.112 C 
ATOM      6  C   UNL     1       1.787  -5.444   1.091  0.00  0.00    +0.056 C 
ATOM      7  C   UNL     1       0.731  -6.486   1.428  0.00  0.00    +0.087 C 
ATOM      8  C   UNL     1      -0.615  -5.840   1.723  0.00  0.00    +0.056 C 
ATOM      9  C   UNL     1      -1.075  -5.037   0.506  0.00  0.00    +0.112 C 
ATOM     10  N   UNL     1       0.616  -7.488   0.361  0.00  0.00    -0.282 N 
ATOM     11  C   UNL     1       0.810  -8.879   0.768  0.00  0.00    +0.120 C 
ATOM     12  C   UNL     1       1.813  -8.973   1.957  0.00  0.00    +0.090 C 
ATOM     13  S   UNL     1       1.276  -7.465   2.885  0.00  0.00    -0.133 S 
ATOM     14  C   UNL     1       0.347  -7.147  -0.915  0.00  0.00    +0.249 C 
ATOM     15  O   UNL     1      -0.037  -6.024  -1.176  0.00  0.00    -0.270 OA
ATOM     16  H   UNL     1       1.535  -2.326  -0.807  0.00  0.00    +0.156 HD
ENDROOT
BRANCH  14  17
ATOM     17  C   UNL     1       0.519  -8.139  -1.996  0.00  0.00    +0.055 A 
ATOM     18  C   UNL     1       0.409  -9.504  -1.720  0.00  0.00    +0.016 A 
ATOM     19  C   UNL     1       0.571 -10.424  -2.733  0.00  0.00    +0.021 A 
ATOM     20  C   UNL     1       0.842  -9.999  -4.024  0.00  0.00    +0.042 A 
ATOM     21  C   UNL     1       0.952  -8.648  -4.305  0.00  0.00    +0.040 A 
ATOM     22  C   UNL     1       0.786  -7.715  -3.300  0.00  0.00    +0.054 A 
ATOM     23 CL   UNL     1       0.917  -6.021  -3.656  0.00  0.00    -0.083 Cl
ATOM     24 CL   UNL     1       1.044 -11.165  -5.293  0.00  0.00    -0.083 Cl
ENDBRANCH  14  17
BRANCH   1  29
ATOM     25  C   UNL     1      -0.979   1.300  -0.203  0.00  0.00    +0.002 A 
ATOM     26  C   UNL     1       0.063   2.158  -0.503  0.00  0.00    +0.003 A 
ATOM     27  C   UNL     1       1.317   1.653  -0.793  0.00  0.00    +0.040 A 
ATOM     28  C   UNL     1       1.532   0.287  -0.785  0.00  0.00    +0.145 A 
ATOM     29  C   UNL     1       0.486  -0.577  -0.483  0.00  0.00    +0.070 A 
ATOM     30  C   UNL     1      -0.771  -0.066  -0.193  0.00  0.00    +0.026 A 
ATOM     31  F   UNL     1       2.757  -0.206  -1.069  0.00  0.00    -0.204 F 
ENDBRANCH   1  29
TORSDOF 2
