REMARK  Name = ZINC08972280
REMARK  11 active torsions:
REMARK  status: ('A' for Active; 'I' for Inactive)
REMARK    1  A    between atoms: C_1  and  C_2
REMARK    2  A    between atoms: C_9  and  C_18
REMARK    3  A    between atoms: C_12  and  C_14
REMARK    4  A    between atoms: C_14  and  C_15
REMARK    5  A    between atoms: C_15  and  S_16
REMARK    6  A    between atoms: S_16  and  C_17
REMARK    7  A    between atoms: N_20  and  C_21
REMARK    8  A    between atoms: C_23  and  O_29
REMARK    9  A    between atoms: C_26  and  O_27
REMARK   10  A    between atoms: O_27  and  C_28
REMARK   11  A    between atoms: O_29  and  C_30
REMARK                            x       y       z     vdW  Elec       q    Type
REMARK                         _______ _______ _______ _____ _____    ______ ____
ROOT
ATOM      1  C   UNL     1       0.232   0.666   0.186  0.00  0.00    +0.044 C 
ATOM      2  C   UNL     1      -0.519   1.160   1.395  0.00  0.00    -0.050 A 
ATOM      3  C   UNL     1      -1.900   1.240   1.368  0.00  0.00    +0.005 A 
ATOM      4  C   UNL     1      -2.594   1.687   2.473  0.00  0.00    +0.024 A 
ATOM      5  C   UNL     1      -1.907   2.071   3.623  0.00  0.00    +0.036 A 
ATOM      6  C   UNL     1      -0.518   1.993   3.636  0.00  0.00    -0.027 A 
ATOM      7  C   UNL     1       0.170   1.541   2.532  0.00  0.00    +0.008 A 
ATOM      8  C   UNL     1      -0.093   2.474   4.995  0.00  0.00    +0.049 C 
ATOM      9  C   UNL     1       0.831   3.694   4.895  0.00  0.00    +0.076 C 
ATOM     10  C   UNL     1       1.843   3.517   6.049  0.00  0.00    -0.004 C 
ATOM     11  C   UNL     1       1.423   2.209   6.754  0.00  0.00    -0.068 C 
ATOM     12  C   UNL     1      -1.373   2.811   5.709  0.00  0.00    +0.211 C 
ATOM     13  O   UNL     1      -1.481   3.235   6.840  0.00  0.00    -0.277 OA
ATOM     14  N   UNL     1      -2.376   2.551   4.848  0.00  0.00    -0.286 N 
ATOM     15  H   UNL     1      -3.315   2.683   5.055  0.00  0.00    +0.155 HD
ATOM     16  N   UNL     1       0.674   1.480   5.726  0.00  0.00    +0.394 N 
ATOM     17  H   UNL     1       1.321   0.995   5.093  0.00  0.00    -0.083 HD
ATOM     18  H   UNL     1       0.045   0.796   6.162  0.00  0.00    -0.083 HD
ENDROOT
BRANCH   9  19
ATOM     19  C   UNL     1       1.545   3.705   3.568  0.00  0.00    +0.220 C 
ATOM     20  O   UNL     1       2.572   3.074   3.427  0.00  0.00    -0.275 OA
ATOM     21  N   UNL     1       1.044   4.415   2.539  0.00  0.00    -0.282 N 
ATOM     22  H   UNL     1       0.258   4.969   2.669  0.00  0.00    +0.155 HD
BRANCH  21  23
ATOM     23  C   UNL     1       1.657   4.354   1.280  0.00  0.00    +0.079 A 
ATOM     24  C   UNL     1       3.013   4.083   1.181  0.00  0.00    +0.072 A 
ATOM     25  C   UNL     1       3.616   4.017  -0.065  0.00  0.00    +0.122 A 
ATOM     26  C   UNL     1       2.866   4.234  -1.212  0.00  0.00    +0.049 A 
ATOM     27  C   UNL     1       1.515   4.510  -1.115  0.00  0.00    +0.051 A 
ATOM     28  C   UNL     1       0.906   4.571   0.127  0.00  0.00    +0.141 A 
BRANCH  28  29
ATOM     29  O   UNL     1      -0.424   4.842   0.221  0.00  0.00    -0.493 OA
ATOM     30  C   UNL     1      -1.131   5.053  -1.002  0.00  0.00    +0.277 C 
ENDBRANCH  28  29
BRANCH  25  31
ATOM     31  O   UNL     1       4.945   3.746  -0.164  0.00  0.00    -0.495 OA
ATOM     32  C   UNL     1       5.502   3.699  -1.479  0.00  0.00    +0.277 C 
ENDBRANCH  25  31
ENDBRANCH  21  23
ENDBRANCH   9  19
BRANCH  11  33
ATOM     33  C   UNL     1       2.658   1.426   7.205  0.00  0.00    -0.005 C 
BRANCH  33  34
ATOM     34  C   UNL     1       2.219   0.200   8.008  0.00  0.00    +0.067 C 
BRANCH  34  35
ATOM     35  S   UNL     1       3.683  -0.728   8.543  0.00  0.00    -0.164 S 
ATOM     36  C   UNL     1       3.000  -2.131   9.469  0.00  0.00    +0.084 C 
ENDBRANCH  34  35
ENDBRANCH  33  34
ENDBRANCH  11  33
TORSDOF 7
