REMARK  Name = ZINC40378182
REMARK  5 active torsions:
REMARK  status: ('A' for Active; 'I' for Inactive)
REMARK    1  A    between atoms: C_4  and  C_7
REMARK    2  A    between atoms: C_8  and  C_9
REMARK    3  A    between atoms: N_11  and  C_12
REMARK    4  A    between atoms: C_15  and  S_18
REMARK    5  A    between atoms: S_18  and  N_21
REMARK                            x       y       z     vdW  Elec       q    Type
REMARK                         _______ _______ _______ _____ _____    ______ ____
ROOT
ATOM      1  C   UNL     1       5.934  -1.925  -0.066  0.00  0.00    +0.293 C 
ATOM      2  O   UNL     1       5.955  -3.142  -0.064  0.00  0.00    -0.260 OA
ATOM      3  N   UNL     1       7.090  -1.232  -0.076  0.00  0.00    -0.275 N 
ATOM      4  H   UNL     1       7.075  -0.265  -0.145  0.00  0.00    +0.156 HD
ENDROOT
BRANCH   3   5
ATOM      5  C   UNL     1       8.311  -1.908   0.013  0.00  0.00    +0.034 A 
ATOM      6  C   UNL     1       9.372  -1.339   0.707  0.00  0.00    +0.025 A 
ATOM      7  C   UNL     1      10.577  -2.009   0.793  0.00  0.00    +0.030 A 
ATOM      8  C   UNL     1      10.728  -3.244   0.190  0.00  0.00    +0.105 A 
ATOM      9  C   UNL     1       9.673  -3.813  -0.501  0.00  0.00    +0.030 A 
ATOM     10  C   UNL     1       8.464  -3.151  -0.586  0.00  0.00    +0.025 A 
BRANCH   8  11
ATOM     11  S   UNL     1      12.266  -4.095   0.302  0.00  0.00    +0.056 S 
ATOM     12  O   UNL     1      12.322  -4.982  -0.806  0.00  0.00    -0.153 OA
ATOM     13  O   UNL     1      13.260  -3.108   0.538  0.00  0.00    -0.153 OA
BRANCH  11  14
ATOM     14  N   UNL     1      12.206  -5.040   1.661  0.00  0.00    -0.204 NA
ATOM     15  H   UNL     1      11.411  -5.040   2.217  0.00  0.00    +0.144 HD
ATOM     16  H   UNL     1      12.966  -5.593   1.902  0.00  0.00    +0.144 HD
ENDBRANCH  11  14
ENDBRANCH   8  11
ENDBRANCH   3   5
BRANCH   1  18
ATOM     17  C   UNL     1       3.656  -0.660  -0.051  0.00  0.00    -0.057 C 
ATOM     18  C   UNL     1       4.683  -1.230  -0.058  0.00  0.00    -0.002 C 
BRANCH  17  22
ATOM     19  C   UNL     1      -0.017   1.381  -0.028  0.00  0.00    +0.000 A 
ATOM     20  C   UNL     1       1.168   2.096  -0.037  0.00  0.00    +0.001 A 
ATOM     21  C   UNL     1       2.377   1.434  -0.045  0.00  0.00    +0.017 A 
ATOM     22  C   UNL     1       2.405   0.035  -0.043  0.00  0.00    +0.025 A 
ATOM     23  C   UNL     1       1.203  -0.680  -0.032  0.00  0.00    +0.017 A 
ATOM     24  C   UNL     1       0.002  -0.003  -0.025  0.00  0.00    +0.001 A 
ENDBRANCH  17  22
ENDBRANCH   1  18
TORSDOF 5
