REMARK  Name = ZINC60378684
REMARK  3 active torsions:
REMARK  status: ('A' for Active; 'I' for Inactive)
REMARK    1  A    between atoms: C_1  and  N_2
REMARK    2  A    between atoms: C_5  and  O_9
REMARK    3  A    between atoms: O_9  and  C_10
REMARK                            x       y       z     vdW  Elec       q    Type
REMARK                         _______ _______ _______ _____ _____    ______ ____
ROOT
ATOM      1  C   UNL     1      -0.117   1.455   0.026  0.00  0.00    +0.174 C 
ATOM      2  N   UNL     1      -0.065  -0.009   0.014  0.00  0.00    -0.248 N 
ATOM      3  C   UNL     1      -0.070  -0.789  -1.103  0.00  0.00    +0.166 A 
ATOM      4  C   UNL     1      -0.009  -2.127  -0.663  0.00  0.00    +0.115 A 
ATOM      5  C   UNL     1      -0.001  -3.149  -1.626  0.00  0.00    +0.235 A 
ATOM      6  N   UNL     1      -0.052  -2.808  -2.907  0.00  0.00    -0.200 NA
ATOM      7  C   UNL     1      -0.108  -1.540  -3.276  0.00  0.00    +0.227 A 
ATOM      8  N   UNL     1      -0.117  -0.549  -2.412  0.00  0.00    -0.216 NA
ATOM      9  C   UNL     1       0.032  -2.081   0.792  0.00  0.00    +0.142 A 
ATOM     10  N   UNL     1       0.003  -0.826   1.147  0.00  0.00    -0.162 NA
ATOM     11 BR   UNL     1       0.119  -3.569   1.955  0.00  0.00    -0.026 Br
ENDROOT
BRANCH   5  12
ATOM     12  O   UNL     1       0.056  -4.450  -1.256  0.00  0.00    -0.437 OA
BRANCH  12  13
ATOM     13  C   UNL     1      -0.041  -5.394  -2.228  0.00  0.00    +0.131 A 
ATOM     14  C   UNL     1      -1.230  -6.085  -2.410  0.00  0.00    +0.046 A 
ATOM     15  C   UNL     1      -1.327  -7.045  -3.399  0.00  0.00    +0.005 A 
ATOM     16  C   UNL     1      -0.239  -7.318  -4.207  0.00  0.00    +0.014 A 
ATOM     17  C   UNL     1       0.949  -6.631  -4.028  0.00  0.00    +0.017 A 
ATOM     18  C   UNL     1       1.048  -5.666  -3.044  0.00  0.00    +0.060 A 
ATOM     19  I   UNL     1       2.595  -7.049  -5.255  0.00  0.00    -0.044 I 
ENDBRANCH  12  13
ENDBRANCH   5  12
TORSDOF 2
