REMARK  Name = ZINC66182312
REMARK  18 active torsions:
REMARK  status: ('A' for Active; 'I' for Inactive)
REMARK    1  A    between atoms: C_1  and  C_2
REMARK    2  A    between atoms: C_2  and  C_3
REMARK    3  A    between atoms: C_3  and  C_4
REMARK    4  A    between atoms: C_4  and  C_5
REMARK    5  A    between atoms: C_5  and  C_6
REMARK    6  A    between atoms: C_6  and  N_7
REMARK    7  A    between atoms: N_7  and  C_8
REMARK    8  A    between atoms: C_8  and  C_9
REMARK    9  A    between atoms: C_12  and  O_20
REMARK   10  A    between atoms: C_14  and  O_15
REMARK   11  A    between atoms: O_15  and  C_16
REMARK   12  A    between atoms: C_16  and  C_17
REMARK   13  A    between atoms: C_17  and  C_18
REMARK   14  A    between atoms: C_18  and  C_19
REMARK   15  A    between atoms: O_20  and  C_21
REMARK   16  A    between atoms: C_21  and  C_22
REMARK   17  A    between atoms: C_22  and  C_23
REMARK   18  A    between atoms: C_23  and  C_24
REMARK                            x       y       z     vdW  Elec       q    Type
REMARK                         _______ _______ _______ _____ _____    ______ ____
ROOT
ATOM      1  C   UNL     1       2.889  -6.479  -4.989  0.00  0.00    -0.022 A 
ATOM      2  C   UNL     1       2.154  -6.904  -6.080  0.00  0.00    +0.009 A 
ATOM      3  C   UNL     1       2.798  -7.350  -7.218  0.00  0.00    +0.046 A 
ATOM      4  C   UNL     1       4.184  -7.373  -7.268  0.00  0.00    +0.124 A 
ATOM      5  C   UNL     1       4.924  -6.947  -6.176  0.00  0.00    +0.091 A 
ATOM      6  C   UNL     1       4.275  -6.494  -5.037  0.00  0.00    +0.125 A 
ENDROOT
BRANCH   1   7
ATOM      7  C   UNL     1       2.183  -5.993  -3.749  0.00  0.00    -0.043 C 
BRANCH   7   8
ATOM      8  N   UNL     1       2.163  -4.524  -3.741  0.00  0.00    +0.382 N 
ATOM      9  H   UNL     1       1.675  -4.190  -4.559  0.00  0.00    -0.085 HD
ATOM     10  H   UNL     1       3.110  -4.175  -3.748  0.00  0.00    -0.085 HD
BRANCH   8  11
ATOM     11  C   UNL     1       1.476  -4.051  -2.532  0.00  0.00    -0.082 C 
BRANCH  11  12
ATOM     12  C   UNL     1       1.455  -2.521  -2.524  0.00  0.00    -0.019 C 
BRANCH  12  13
ATOM     13  C   UNL     1       0.739  -2.027  -1.265  0.00  0.00    -0.002 C 
BRANCH  13  14
ATOM     14  C   UNL     1       0.718  -0.497  -1.257  0.00  0.00    -0.000 C 
BRANCH  14  16
ATOM     15  C   UNL     1      -0.019   1.526   0.010  0.00  0.00    +0.004 C 
ATOM     16  C   UNL     1       0.002  -0.004   0.002  0.00  0.00    -0.003 C 
ENDBRANCH  14  16
ENDBRANCH  13  14
ENDBRANCH  12  13
ENDBRANCH  11  12
ENDBRANCH   8  11
ENDBRANCH   7   8
ENDBRANCH   1   7
BRANCH   6  17
ATOM     17  O   UNL     1       4.997  -6.071  -3.966  0.00  0.00    -0.492 OA
BRANCH  17  18
ATOM     18  C   UNL     1       6.421  -6.114  -4.085  0.00  0.00    +0.229 C 
BRANCH  18  19
ATOM     19  C   UNL     1       7.057  -5.603  -2.791  0.00  0.00    +0.041 C 
BRANCH  19  20
ATOM     20  C   UNL     1       8.581  -5.649  -2.919  0.00  0.00    -0.000 C 
ATOM     21  C   UNL     1       9.217  -5.138  -1.625  0.00  0.00    +0.004 C 
ENDBRANCH  19  20
ENDBRANCH  18  19
ENDBRANCH  17  18
ENDBRANCH   6  17
BRANCH   4  22
ATOM     22  O   UNL     1       4.817  -7.812  -8.388  0.00  0.00    -0.492 OA
BRANCH  22  23
ATOM     23  C   UNL     1       3.992  -8.236  -9.475  0.00  0.00    +0.229 C 
BRANCH  23  24
ATOM     24  C   UNL     1       4.876  -8.692 -10.638  0.00  0.00    +0.041 C 
BRANCH  24  25
ATOM     25  C   UNL     1       3.993  -9.146 -11.802  0.00  0.00    -0.000 C 
ATOM     26  C   UNL     1       4.876  -9.603 -12.964  0.00  0.00    +0.004 C 
ENDBRANCH  24  25
ENDBRANCH  23  24
ENDBRANCH  22  23
ENDBRANCH   4  22
TORSDOF 15
