REMARK  Name = ZINC22619434
REMARK  7 active torsions:
REMARK  status: ('A' for Active; 'I' for Inactive)
REMARK    1  A    between atoms: C_1  and  C_2
REMARK    2  A    between atoms: C_6  and  C_16
REMARK    3  A    between atoms: N_8  and  C_9
REMARK    4  A    between atoms: N_18  and  C_19
REMARK    5  A    between atoms: C_19  and  C_20
REMARK    6  A    between atoms: C_20  and  C_22
REMARK    7  A    between atoms: C_20  and  N_29
REMARK                            x       y       z     vdW  Elec       q    Type
REMARK                         _______ _______ _______ _____ _____    ______ ____
ROOT
ATOM      1  C   UNL     1      -0.397   0.414   1.798  0.00  0.00    +0.268 C 
ATOM      2  O   UNL     1      -1.083   1.280   1.292  0.00  0.00    -0.268 OA
ATOM      3  N   UNL     1      -0.046   0.503   3.096  0.00  0.00    -0.311 N 
ATOM      4  H   UNL     1       0.575  -0.281   3.553  0.00  0.00    +0.149 HD
ENDROOT
BRANCH   1  10
ATOM      5  C   UNL     1       1.429  -4.102  -1.174  0.00  0.00    +0.066 C 
ATOM      6  C   UNL     1       0.907  -2.881  -0.461  0.00  0.00    +0.044 A 
ATOM      7  C   UNL     1       0.150  -1.985  -1.137  0.00  0.00    +0.076 A 
ATOM      8  C   UNL     1      -0.327  -0.852  -0.427  0.00  0.00    +0.213 A 
ATOM      9  O   UNL     1      -1.019  -0.006  -0.971  0.00  0.00    -0.285 OA
ATOM     10  C   UNL     1       0.053  -0.737   0.989  0.00  0.00    +0.192 A 
ATOM     11  N   UNL     1       0.797  -1.683   1.524  0.00  0.00    -0.158 NA
ATOM     12  N   UNL     1       1.202  -2.694   0.849  0.00  0.00    -0.233 N 
BRANCH  12  13
ATOM     13  C   UNL     1       1.989  -3.653   1.497  0.00  0.00    +0.101 A 
ATOM     14  C   UNL     1       1.453  -4.894   1.816  0.00  0.00    +0.031 A 
ATOM     15  C   UNL     1       2.233  -5.840   2.451  0.00  0.00    +0.002 A 
ATOM     16  C   UNL     1       3.546  -5.550   2.779  0.00  0.00    +0.003 A 
ATOM     17  C   UNL     1       4.083  -4.315   2.468  0.00  0.00    +0.040 A 
ATOM     18  C   UNL     1       3.309  -3.364   1.827  0.00  0.00    +0.149 A 
ATOM     19  F   UNL     1       3.834  -2.157   1.523  0.00  0.00    -0.203 F 
ENDBRANCH  12  13
ENDBRANCH   1  10
BRANCH   3  20
ATOM     20  C   UNL     1      -0.492   1.645   3.898  0.00  0.00    +0.094 C 
BRANCH  20  21
ATOM     21  C   UNL     1       0.039   1.505   5.326  0.00  0.00    -0.019 C 
BRANCH  21  22
ATOM     22  C   UNL     1      -0.403   2.689   6.145  0.00  0.00    -0.041 A 
ATOM     23  C   UNL     1       0.495   3.695   6.448  0.00  0.00    +0.003 A 
ATOM     24  C   UNL     1       0.090   4.781   7.200  0.00  0.00    +0.000 A 
ATOM     25  C   UNL     1      -1.215   4.863   7.650  0.00  0.00    +0.001 A 
ATOM     26  C   UNL     1      -2.115   3.858   7.348  0.00  0.00    +0.020 A 
ATOM     27  C   UNL     1      -1.710   2.773   6.590  0.00  0.00    +0.043 A 
ATOM     28 CL   UNL     1      -2.842   1.514   6.204  0.00  0.00    -0.083 Cl
ENDBRANCH  21  22
BRANCH  21  29
ATOM     29  N   UNL     1       1.507   1.449   5.298  0.00  0.00    +0.385 N 
ATOM     30  C   UNL     1       2.065   2.523   4.437  0.00  0.00    -0.078 C 
ATOM     31  C   UNL     1       3.528   2.649   4.931  0.00  0.00    -0.020 C 
ATOM     32  C   UNL     1       3.397   2.439   6.457  0.00  0.00    -0.020 C 
ATOM     33  C   UNL     1       2.071   1.679   6.646  0.00  0.00    -0.078 C 
ATOM     34  H   UNL     1       1.762   0.448   4.920  0.00  0.00    -0.081 HD
ENDBRANCH  21  29
ENDBRANCH  20  21
ENDBRANCH   3  20
TORSDOF 6
