REMARK  Name = ZINC66348046
REMARK  6 active torsions:
REMARK  status: ('A' for Active; 'I' for Inactive)
REMARK    1  A    between atoms: C_1  and  C_2
REMARK    2  A    between atoms: C_5  and  N_8
REMARK    3  A    between atoms: C_11  and  C_15
REMARK    4  A    between atoms: N_17  and  C_18
REMARK    5  A    between atoms: C_20  and  N_26
REMARK    6  A    between atoms: C_27  and  C_29
REMARK                            x       y       z     vdW  Elec       q    Type
REMARK                         _______ _______ _______ _____ _____    ______ ____
ROOT
ATOM      1  C   UNL     1       0.996  -7.128  -1.663  0.00  0.00    +0.229 C 
ATOM      2  O   UNL     1       2.011  -7.638  -1.236  0.00  0.00    -0.275 OA
ATOM      3  N   UNL     1       0.698  -7.216  -2.974  0.00  0.00    -0.283 N 
ATOM      4  H   UNL     1      -0.072  -6.744  -3.329  0.00  0.00    +0.155 HD
ENDROOT
BRANCH   3   5
ATOM      5  C   UNL     1       1.500  -7.989  -3.825  0.00  0.00    +0.071 A 
ATOM      6  C   UNL     1       2.086  -9.156  -3.356  0.00  0.00    +0.052 A 
ATOM      7  C   UNL     1       2.878  -9.919  -4.200  0.00  0.00    +0.071 A 
ATOM      8  C   UNL     1       3.084  -9.513  -5.515  0.00  0.00    +0.147 A 
ATOM      9  C   UNL     1       2.499  -8.350  -5.980  0.00  0.00    +0.080 A 
ATOM     10  C   UNL     1       1.703  -7.590  -5.141  0.00  0.00    +0.147 A 
ATOM     11  F   UNL     1       1.129  -6.456  -5.599  0.00  0.00    -0.203 F 
ATOM     12  F   UNL     1       3.856 -10.257  -6.338  0.00  0.00    -0.203 F 
BRANCH   7  13
ATOM     13  N   UNL     1       3.472 -11.098  -3.729  0.00  0.00    -0.283 N 
ATOM     14  C   UNL     1       2.924 -11.760  -2.692  0.00  0.00    +0.214 C 
ATOM     15  O   UNL     1       1.862 -11.396  -2.232  0.00  0.00    -0.276 OA
ATOM     16  C   UNL     1       3.630 -12.954  -2.102  0.00  0.00    +0.109 C 
ATOM     17  H   UNL     1       4.277 -11.437  -4.150  0.00  0.00    +0.155 HD
ENDBRANCH   7  13
ENDBRANCH   3   5
BRANCH   1  21
ATOM     18  N   UNL     1       0.111  -4.185   0.050  0.00  0.00    -0.271 N 
ATOM     19  C   UNL     1       0.220  -5.034   1.242  0.00  0.00    +0.115 C 
ATOM     20  C   UNL     1       0.622  -6.431   0.718  0.00  0.00    +0.041 C 
ATOM     21  C   UNL     1       0.070  -6.397  -0.726  0.00  0.00    +0.163 C 
ATOM     22  C   UNL     1       0.014  -4.924  -1.069  0.00  0.00    +0.232 C 
ATOM     23  O   UNL     1      -0.099  -4.476  -2.190  0.00  0.00    -0.274 OA
BRANCH  18  28
ATOM     24  C   UNL     1       0.080   1.487   0.152  0.00  0.00    +0.044 C 
ATOM     25  C   UNL     1       0.088  -0.020   0.125  0.00  0.00    -0.050 A 
ATOM     26  C   UNL     1       0.094  -0.688  -1.086  0.00  0.00    +0.005 A 
ATOM     27  C   UNL     1       0.102  -2.069  -1.114  0.00  0.00    +0.024 A 
ATOM     28  C   UNL     1       0.104  -2.786   0.075  0.00  0.00    +0.036 A 
ATOM     29  C   UNL     1       0.099  -2.112   1.289  0.00  0.00    +0.024 A 
ATOM     30  C   UNL     1       0.096  -0.731   1.311  0.00  0.00    +0.005 A 
ENDBRANCH  18  28
ENDBRANCH   1  21
TORSDOF 4
