REMARK  Name = ZINC49568765
REMARK  4 active torsions:
REMARK  status: ('A' for Active; 'I' for Inactive)
REMARK    1  A    between atoms: C_1  and  C_2
REMARK    2  A    between atoms: N_6  and  C_9
REMARK    3  A    between atoms: C_14  and  O_15
REMARK    4  A    between atoms: O_15  and  C_16
REMARK                            x       y       z     vdW  Elec       q    Type
REMARK                         _______ _______ _______ _____ _____    ______ ____
ROOT
ATOM      1  C   UNL     1       0.053  -3.300   1.589  0.00  0.00    +0.087 A 
ATOM      2  C   UNL     1       1.262  -3.840   2.000  0.00  0.00    +0.043 A 
ATOM      3  C   UNL     1       1.278  -4.954   2.819  0.00  0.00    +0.020 A 
ATOM      4  C   UNL     1       0.090  -5.533   3.228  0.00  0.00    +0.019 A 
ATOM      5  C   UNL     1      -1.119  -4.999   2.821  0.00  0.00    +0.048 A 
ATOM      6  C   UNL     1      -1.142  -3.879   2.006  0.00  0.00    +0.142 A 
ATOM      7 BR   UNL     1       2.928  -5.690   3.379  0.00  0.00    -0.050 Br
ENDROOT
BRANCH   1  13
ATOM      8  C   UNL     1      -0.018   1.503   0.010  0.00  0.00    +0.049 C 
ATOM      9  C   UNL     1       0.002  -0.004   0.002  0.00  0.00    +0.017 C 
ATOM     10  C   UNL     1       0.009  -0.799  -1.081  0.00  0.00    +0.076 C 
ATOM     11  C   UNL     1       0.029  -2.194  -0.587  0.00  0.00    +0.251 C 
ATOM     12  O   UNL     1       0.040  -3.192  -1.278  0.00  0.00    -0.270 OA
ATOM     13  N   UNL     1       0.035  -2.168   0.758  0.00  0.00    -0.200 N 
ATOM     14  C   UNL     1       0.025  -0.893   1.185  0.00  0.00    +0.253 C 
ATOM     15  O   UNL     1       0.032  -0.532   2.344  0.00  0.00    -0.270 OA
ENDBRANCH   1  13
BRANCH   6  16
ATOM     16  O   UNL     1      -2.331  -3.349   1.610  0.00  0.00    -0.493 OA
ATOM     17  C   UNL     1      -3.517  -3.996   2.077  0.00  0.00    +0.277 C 
ENDBRANCH   6  16
TORSDOF 2
