REMARK  Name = ZINC20484307
REMARK  9 active torsions:
REMARK  status: ('A' for Active; 'I' for Inactive)
REMARK    1  A    between atoms: C_1  and  C_2
REMARK    2  A    between atoms: C_4  and  C_25
REMARK    3  A    between atoms: C_6  and  N_8
REMARK    4  A    between atoms: C_9  and  C_11
REMARK    5  A    between atoms: C_11  and  N_12
REMARK    6  A    between atoms: N_12  and  C_13
REMARK    7  A    between atoms: N_12  and  S_14
REMARK    8  A    between atoms: S_14  and  C_17
REMARK    9  A    between atoms: C_22  and  N_23
REMARK                            x       y       z     vdW  Elec       q    Type
REMARK                         _______ _______ _______ _____ _____    ______ ____
ROOT
ATOM      1  N   UNL     1       1.133   3.676   1.211  0.00  0.00    -0.171 NA
ATOM      2  C   UNL     1       2.200   2.679   1.097  0.00  0.00    +0.132 C 
ENDROOT
BRANCH   1   3
ATOM      3  S   UNL     1       0.213   4.059  -0.112  0.00  0.00    +0.064 S 
ATOM      4  O   UNL     1       0.951   3.643  -1.254  0.00  0.00    -0.153 OA
ATOM      5  O   UNL     1      -0.218   5.401   0.068  0.00  0.00    -0.153 OA
BRANCH   3   6
ATOM      6  C   UNL     1      -1.232   3.054  -0.052  0.00  0.00    +0.146 A 
ATOM      7  C   UNL     1      -1.401   2.015  -0.950  0.00  0.00    +0.048 A 
ATOM      8  C   UNL     1      -2.559   1.251  -0.869  0.00  0.00    +0.038 A 
ATOM      9  C   UNL     1      -3.498   1.546   0.101  0.00  0.00    +0.128 A 
ATOM     10  N   UNL     1      -3.306   2.540   0.947  0.00  0.00    -0.238 NA
ATOM     11  C   UNL     1      -2.216   3.290   0.902  0.00  0.00    +0.143 A 
ATOM     12 BR   UNL     1      -2.848  -0.176  -2.075  0.00  0.00    -0.049 Br
BRANCH  11  13
ATOM     13  N   UNL     1      -2.056   4.328   1.814  0.00  0.00    -0.342 N 
ATOM     14  H   UNL     1      -2.831   4.520   2.571  0.00  0.00    +0.144 HD
ATOM     15  H   UNL     1      -1.154   4.957   1.779  0.00  0.00    +0.144 HD
ENDBRANCH  11  13
ENDBRANCH   3   6
ENDBRANCH   1   3
BRANCH   1  16
ATOM     16  C   UNL     1       0.878   4.333   2.495  0.00  0.00    +0.205 C 
BRANCH  16  18
ATOM     17  N   UNL     1      -0.408   3.877   4.558  0.00  0.00    -0.284 N 
ATOM     18  C   UNL     1      -0.035   3.471   3.328  0.00  0.00    +0.233 C 
ATOM     19  O   UNL     1      -0.434   2.412   2.892  0.00  0.00    -0.274 OA
ATOM     20  H   UNL     1      -0.114   4.873   4.921  0.00  0.00    +0.155 HD
BRANCH  17  26
ATOM     21  C   UNL     1      -3.908   3.310   7.964  0.00  0.00    +0.044 C 
ATOM     22  C   UNL     1      -2.874   2.731   7.033  0.00  0.00    -0.048 A 
ATOM     23  C   UNL     1      -2.679   1.363   6.982  0.00  0.00    +0.006 A 
ATOM     24  C   UNL     1      -1.732   0.828   6.128  0.00  0.00    -0.048 A 
ATOM     25  C   UNL     1      -0.978   1.659   5.323  0.00  0.00    +0.026 A 
ATOM     26  C   UNL     1      -1.171   3.033   5.372  0.00  0.00    +0.034 A 
ATOM     27  C   UNL     1      -2.119   3.568   6.235  0.00  0.00    +0.026 A 
ATOM     28  C   UNL     1      -1.523  -0.664   6.076  0.00  0.00    +0.044 C 
ENDBRANCH  17  26
ENDBRANCH  16  18
ENDBRANCH   1  16
TORSDOF 6
