REMARK  Name = ZINC15864040
REMARK  5 active torsions:
REMARK  status: ('A' for Active; 'I' for Inactive)
REMARK    1  A    between atoms: C_1  and  N_2
REMARK    2  A    between atoms: C_6  and  S_12
REMARK    3  A    between atoms: S_12  and  N_15
REMARK    4  A    between atoms: N_15  and  C_16
REMARK    5  A    between atoms: C_19  and  C_22
REMARK                            x       y       z     vdW  Elec       q    Type
REMARK                         _______ _______ _______ _____ _____    ______ ____
ROOT
ATOM      1  C   UNL     1      -3.451  -2.487  -0.000  0.00  0.00    +0.048 A 
ATOM      2  C   UNL     1      -2.175  -3.032  -0.089  0.00  0.00    +0.025 A 
ATOM      3  C   UNL     1      -1.072  -2.206  -0.120  0.00  0.00    +0.012 A 
ATOM      4  C   UNL     1      -1.237  -0.821  -0.061  0.00  0.00    -0.002 A 
ATOM      5  C   UNL     1      -2.520  -0.278   0.034  0.00  0.00    +0.012 A 
ATOM      6  C   UNL     1      -3.619  -1.108   0.059  0.00  0.00    +0.025 A 
ENDROOT
BRANCH   4   7
ATOM      7  C   UNL     1      -0.056   0.067  -0.093  0.00  0.00    +0.047 A 
ATOM      8  C   UNL     1       1.233  -0.347  -0.178  0.00  0.00    +0.036 A 
ATOM      9  C   UNL     1       2.067   0.853  -0.179  0.00  0.00    +0.002 A 
ATOM     10  C   UNL     1       3.446   1.073  -0.246  0.00  0.00    +0.030 A 
ATOM     11  C   UNL     1       3.931   2.351  -0.227  0.00  0.00    +0.042 A 
ATOM     12  C   UNL     1       3.064   3.433  -0.141  0.00  0.00    +0.022 A 
ATOM     13  C   UNL     1       1.702   3.239  -0.074  0.00  0.00    +0.027 A 
ATOM     14  C   UNL     1       1.185   1.947  -0.093  0.00  0.00    +0.047 A 
ATOM     15  N   UNL     1      -0.096   1.442  -0.042  0.00  0.00    -0.354 N 
ATOM     16  H   UNL     1      -0.904   1.975   0.017  0.00  0.00    +0.166 HD
ATOM     17 CL   UNL     1       5.644   2.624  -0.311  0.00  0.00    -0.084 Cl
ENDBRANCH   4   7
BRANCH   1  18
ATOM     18  N   UNL     1      -4.566  -3.326   0.030  0.00  0.00    -0.216 N 
ATOM     19  H   UNL     1      -4.638  -4.060  -0.600  0.00  0.00    +0.174 HD
BRANCH  18  20
ATOM     20  S   UNL     1      -5.766  -3.069   1.142  0.00  0.00    +0.072 S 
ATOM     21  O   UNL     1      -6.145  -1.705   1.022  0.00  0.00    -0.150 OA
ATOM     22  O   UNL     1      -6.694  -4.134   0.991  0.00  0.00    -0.150 OA
BRANCH  20  28
ATOM     23  C   UNL     1      -2.990  -4.434   7.454  0.00  0.00    +0.156 C 
ATOM     24  N   UNL     1      -3.313  -3.377   6.493  0.00  0.00    -0.277 N 
ATOM     25  C   UNL     1      -3.913  -3.550   5.246  0.00  0.00    +0.090 A 
ATOM     26  C   UNL     1      -4.366  -4.663   4.555  0.00  0.00    +0.031 A 
ATOM     27  C   UNL     1      -4.935  -4.510   3.305  0.00  0.00    +0.031 A 
ATOM     28  C   UNL     1      -5.044  -3.252   2.739  0.00  0.00    +0.112 A 
ATOM     29  C   UNL     1      -4.595  -2.139   3.422  0.00  0.00    +0.077 A 
ATOM     30  C   UNL     1      -4.027  -2.281   4.678  0.00  0.00    +0.159 A 
ATOM     31  O   UNL     1      -3.510  -1.396   5.565  0.00  0.00    -0.407 OA
ATOM     32  C   UNL     1      -3.083  -2.058   6.652  0.00  0.00    +0.421 A 
ATOM     33  O   UNL     1      -2.568  -1.548   7.628  0.00  0.00    -0.223 OA
ENDBRANCH  20  28
ENDBRANCH  18  20
ENDBRANCH   1  18
TORSDOF 4
