REMARK  Name = ZINC44814037
REMARK  9 active torsions:
REMARK  status: ('A' for Active; 'I' for Inactive)
REMARK    1  A    between atoms: C_1  and  C_2
REMARK    2  A    between atoms: C_6  and  C_31
REMARK    3  A    between atoms: C_7  and  N_8
REMARK    4  A    between atoms: C_9  and  C_11
REMARK    5  A    between atoms: N_16  and  C_18
REMARK    6  A    between atoms: C_18  and  C_19
REMARK    7  A    between atoms: C_21  and  C_24
REMARK    8  A    between atoms: C_31  and  C_32
REMARK    9  A    between atoms: C_31  and  C_33
REMARK                            x       y       z     vdW  Elec       q    Type
REMARK                         _______ _______ _______ _____ _____    ______ ____
ROOT
ATOM      1  C   UNL     1      -0.016   2.188   3.628  0.00  0.00    +0.059 C 
ATOM      2  C   UNL     1      -0.745   1.532   4.804  0.00  0.00    +0.009 C 
ATOM      3  C   UNL     1      -0.600   2.422   6.042  0.00  0.00    -0.018 C 
ATOM      4  C   UNL     1      -1.144   3.818   5.727  0.00  0.00    -0.078 C 
ATOM      5  N   UNL     1      -0.389   4.401   4.612  0.00  0.00    +0.386 N 
ATOM      6  C   UNL     1      -0.581   3.592   3.402  0.00  0.00    -0.065 C 
ATOM      7  H   UNL     1       0.592   4.424   4.847  0.00  0.00    -0.081 HD
ENDROOT
BRANCH   1   9
ATOM      8  N   UNL     1       0.203   0.079   2.354  0.00  0.00    -0.285 N 
ATOM      9  C   UNL     1      -0.217   1.359   2.386  0.00  0.00    +0.219 C 
ATOM     10  O   UNL     1      -0.758   1.843   1.414  0.00  0.00    -0.275 OA
ATOM     11  H   UNL     1       0.566  -0.332   3.155  0.00  0.00    +0.155 HD
BRANCH   8  18
ATOM     12  C   UNL     1      -2.383  -0.569   1.361  0.00  0.00    +0.045 C 
ATOM     13  C   UNL     1      -1.126  -0.995   0.648  0.00  0.00    -0.029 A 
ATOM     14  C   UNL     1      -1.208  -1.717  -0.527  0.00  0.00    +0.005 A 
ATOM     15  C   UNL     1      -0.055  -2.108  -1.182  0.00  0.00    +0.001 A 
ATOM     16  C   UNL     1       1.184  -1.778  -0.664  0.00  0.00    +0.006 A 
ATOM     17  C   UNL     1       1.273  -1.056   0.510  0.00  0.00    -0.023 A 
ATOM     18  C   UNL     1       0.117  -0.657   1.168  0.00  0.00    +0.040 A 
BRANCH  17  19
ATOM     19  C   UNL     1       2.624  -0.697   1.074  0.00  0.00    +0.015 C 
ATOM     20  C   UNL     1       3.410  -1.976   1.367  0.00  0.00    +0.012 C 
ATOM     21  C   UNL     1       3.391   0.153   0.059  0.00  0.00    +0.012 C 
ENDBRANCH  17  19
ENDBRANCH   8  18
ENDBRANCH   1   9
BRANCH   5  22
ATOM     22  C   UNL     1      -0.863   5.769   4.364  0.00  0.00    +0.022 C 
BRANCH  22  23
ATOM     23  C   UNL     1      -0.546   6.634   5.557  0.00  0.00    +0.211 A 
ATOM     24  N   UNL     1       0.547   7.321   5.730  0.00  0.00    -0.193 NA
ATOM     25  C   UNL     1       0.497   7.979   6.903  0.00  0.00    +0.202 A 
ATOM     26  N   UNL     1      -0.643   7.707   7.487  0.00  0.00    -0.056 NA
ATOM     27  O   UNL     1      -1.342   6.830   6.616  0.00  0.00    -0.340 OA
BRANCH  25  28
ATOM     28  C   UNL     1       1.558   8.864   7.445  0.00  0.00    +0.023 A 
ATOM     29  C   UNL     1       2.729   9.076   6.720  0.00  0.00    +0.012 A 
ATOM     30  C   UNL     1       3.713   9.900   7.228  0.00  0.00    +0.002 A 
ATOM     31  C   UNL     1       3.539  10.514   8.455  0.00  0.00    +0.015 A 
ATOM     32  C   UNL     1       2.378  10.307   9.180  0.00  0.00    +0.019 A 
ATOM     33  C   UNL     1       1.385   9.489   8.677  0.00  0.00    +0.027 A 
ATOM     34 BR   UNL     1       2.148  11.150  10.857  0.00  0.00    -0.050 Br
ENDBRANCH  25  28
ENDBRANCH  22  23
ENDBRANCH   5  22
TORSDOF 6
