REMARK  Name = ZINC13235315
REMARK  9 active torsions:
REMARK  status: ('A' for Active; 'I' for Inactive)
REMARK    1  A    between atoms: C_1  and  C_2
REMARK    2  A    between atoms: C_5  and  C_8
REMARK    3  A    between atoms: C_11  and  S_16
REMARK    4  A    between atoms: N_12  and  C_13
REMARK    5  A    between atoms: C_13  and  C_14
REMARK    6  A    between atoms: S_16  and  C_17
REMARK    7  A    between atoms: C_17  and  C_18
REMARK    8  A    between atoms: N_20  and  C_21
REMARK    9  A    between atoms: C_24  and  C_27
REMARK                            x       y       z     vdW  Elec       q    Type
REMARK                         _______ _______ _______ _____ _____    ______ ____
ROOT
ATOM      1  C   UNL     1      -1.811   0.986   1.867  0.00  0.00    +0.165 A 
ATOM      2  N   UNL     1      -2.181   1.813   2.816  0.00  0.00    -0.128 NA
ATOM      3  N   UNL     1      -1.345   2.785   2.902  0.00  0.00    -0.122 NA
ATOM      4  C   UNL     1      -0.385   2.634   2.016  0.00  0.00    +0.193 A 
ATOM      5  N   UNL     1      -0.651   1.488   1.323  0.00  0.00    -0.291 N 
ENDROOT
BRANCH   1  10
ATOM      6  C   UNL     1      -4.526  -3.834   0.281  0.00  0.00    +0.044 C 
ATOM      7  C   UNL     1      -3.815  -2.572   0.697  0.00  0.00    -0.050 A 
ATOM      8  C   UNL     1      -4.080  -2.006   1.931  0.00  0.00    +0.004 A 
ATOM      9  C   UNL     1      -3.432  -0.851   2.317  0.00  0.00    +0.012 A 
ATOM     10  C   UNL     1      -2.508  -0.253   1.460  0.00  0.00    +0.019 A 
ATOM     11  C   UNL     1      -2.249  -0.826   0.213  0.00  0.00    +0.012 A 
ATOM     12  C   UNL     1      -2.900  -1.984  -0.158  0.00  0.00    +0.004 A 
ENDBRANCH   1  10
BRANCH   5  13
ATOM     13  C   UNL     1       0.138   0.910   0.232  0.00  0.00    +0.250 C 
BRANCH  13  14
ATOM     14  C   UNL     1      -0.338   1.470  -1.083  0.00  0.00    +0.375 C 
ATOM     15  O   UNL     1      -1.243   2.270  -1.107  0.00  0.00    -0.244 OA
ATOM     16  O   UNL     1       0.243   1.080  -2.229  0.00  0.00    -0.244 OA
ENDBRANCH  13  14
ENDBRANCH   5  13
BRANCH   4  17
ATOM     17  S   UNL     1       0.986   3.712   1.766  0.00  0.00    -0.077 S 
BRANCH  17  18
ATOM     18  C   UNL     1       0.639   4.960   3.031  0.00  0.00    +0.173 C 
BRANCH  18  19
ATOM     19  C   UNL     1       1.714   6.016   3.002  0.00  0.00    +0.227 C 
ATOM     20  O   UNL     1       2.625   5.933   2.206  0.00  0.00    -0.275 OA
ATOM     21  N   UNL     1       1.663   7.052   3.862  0.00  0.00    -0.285 N 
ATOM     22  H   UNL     1       0.973   7.084   4.544  0.00  0.00    +0.155 HD
BRANCH  21  23
ATOM     23  C   UNL     1       2.602   8.079   3.773  0.00  0.00    +0.033 A 
ATOM     24  C   UNL     1       3.916   7.789   3.419  0.00  0.00    +0.024 A 
ATOM     25  C   UNL     1       4.844   8.801   3.325  0.00  0.00    +0.017 A 
ATOM     26  C   UNL     1       4.468  10.120   3.595  0.00  0.00    +0.063 A 
ATOM     27  C   UNL     1       3.148  10.407   3.955  0.00  0.00    +0.017 A 
ATOM     28  C   UNL     1       2.224   9.391   4.043  0.00  0.00    +0.024 A 
BRANCH  26  29
ATOM     29  C   UNL     1       5.461  11.206   3.501  0.00  0.00    +0.387 C 
ATOM     30  O   UNL     1       5.132  12.352   3.736  0.00  0.00    -0.241 OA
ATOM     31  O   UNL     1       6.733  10.928   3.153  0.00  0.00    -0.241 OA
ENDBRANCH  26  29
ENDBRANCH  21  23
ENDBRANCH  18  19
ENDBRANCH  17  18
ENDBRANCH   4  17
TORSDOF 8
