REMARK  Name = ZINC55297539
REMARK  4 active torsions:
REMARK  status: ('A' for Active; 'I' for Inactive)
REMARK    1  A    between atoms: C_1  and  C_2
REMARK    2  A    between atoms: C_6  and  N_18
REMARK    3  A    between atoms: C_7  and  N_8
REMARK    4  A    between atoms: C_9  and  C_11
REMARK                            x       y       z     vdW  Elec       q    Type
REMARK                         _______ _______ _______ _____ _____    ______ ____
ROOT
ATOM      1  C   UNL     1       1.671  -2.165   2.196  0.00  0.00    +0.046 C 
ATOM      2  C   UNL     1       0.786  -1.758   1.046  0.00  0.00    -0.026 A 
ATOM      3  C   UNL     1       0.892  -2.407  -0.171  0.00  0.00    +0.020 A 
ATOM      4  C   UNL     1       0.081  -2.037  -1.229  0.00  0.00    +0.020 A 
ATOM      5  C   UNL     1      -0.840  -1.016  -1.075  0.00  0.00    +0.040 A 
ATOM      6  C   UNL     1      -0.952  -0.361   0.142  0.00  0.00    +0.047 A 
ATOM      7  C   UNL     1      -0.137  -0.738   1.210  0.00  0.00    +0.057 A 
ATOM      8 BR   UNL     1       0.233  -2.929  -2.889  0.00  0.00    -0.050 Br
ENDROOT
BRANCH   7   9
ATOM      9  N   UNL     1      -0.250  -0.083   2.444  0.00  0.00    -0.282 N 
ATOM     10  C   UNL     1      -0.468  -0.796   3.567  0.00  0.00    +0.248 C 
ATOM     11  O   UNL     1      -0.638  -1.995   3.502  0.00  0.00    -0.273 OA
ATOM     12  H   UNL     1      -0.170   0.882   2.490  0.00  0.00    +0.155 HD
BRANCH  10  13
ATOM     13  C   UNL     1      -0.502  -0.102   4.905  0.00  0.00    +0.229 C 
ATOM     14  C   UNL     1      -1.697   0.855   4.955  0.00  0.00    +0.201 C 
ATOM     15  O   UNL     1      -1.787   1.425   6.265  0.00  0.00    -0.374 OA
ATOM     16  C   UNL     1      -1.921   0.451   7.305  0.00  0.00    +0.188 C 
ATOM     17  C   UNL     1      -0.726  -0.506   7.254  0.00  0.00    +0.189 C 
ATOM     18  O   UNL     1      -0.634  -1.075   5.945  0.00  0.00    -0.363 OA
ENDBRANCH  10  13
ENDBRANCH   7   9
BRANCH   6  19
ATOM     19  N   UNL     1      -1.882   0.672   0.299  0.00  0.00    -0.356 N 
ATOM     20  H   UNL     1      -2.520   0.861  -0.406  0.00  0.00    +0.142 HD
ATOM     21  H   UNL     1      -1.888   1.199   1.114  0.00  0.00    +0.142 HD
ENDBRANCH   6  19
TORSDOF 3
