REMARK  Name = ZINC22700091
REMARK  6 active torsions:
REMARK  status: ('A' for Active; 'I' for Inactive)
REMARK    1  A    between atoms: C_4  and  N_19
REMARK    2  A    between atoms: C_5  and  C_7
REMARK    3  A    between atoms: C_12  and  C_15
REMARK    4  A    between atoms: C_15  and  C_16
REMARK    5  A    between atoms: N_19  and  S_20
REMARK    6  A    between atoms: S_20  and  C_23
REMARK                            x       y       z     vdW  Elec       q    Type
REMARK                         _______ _______ _______ _____ _____    ______ ____
ROOT
ATOM      1  C   UNL     1      -3.987  -3.525   0.523  0.00  0.00    +0.001 A 
ATOM      2  C   UNL     1      -5.320  -3.153   0.439  0.00  0.00    +0.002 A 
ATOM      3  C   UNL     1      -5.667  -1.827   0.283  0.00  0.00    +0.027 A 
ATOM      4  C   UNL     1      -4.679  -0.852   0.214  0.00  0.00    +0.086 A 
ATOM      5  C   UNL     1      -3.328  -1.226   0.294  0.00  0.00    +0.061 A 
ATOM      6  C   UNL     1      -2.993  -2.574   0.452  0.00  0.00    +0.015 A 
ENDROOT
BRANCH   5   7
ATOM      7  C   UNL     1      -2.270  -0.203   0.218  0.00  0.00    +0.252 C 
ATOM      8  O   UNL     1      -2.566   0.969   0.080  0.00  0.00    -0.270 OA
ATOM      9  N   UNL     1      -0.975  -0.566   0.300  0.00  0.00    -0.261 N 
ATOM     10  C   UNL     1       0.023   0.398   0.229  0.00  0.00    +0.165 A 
ATOM     11  N   UNL     1       1.331   0.243   0.289  0.00  0.00    -0.229 NA
ATOM     12  C   UNL     1       2.146   1.276   0.203  0.00  0.00    +0.059 A 
ATOM     13  C   UNL     1       1.609   2.512   0.050  0.00  0.00    +0.072 A 
ATOM     14  S   UNL     1      -0.133   2.117   0.036  0.00  0.00    -0.060 S 
ATOM     15  H   UNL     1      -0.707  -1.626   0.425  0.00  0.00    +0.157 HD
BRANCH  12  16
ATOM     16  C   UNL     1       3.640   1.088   0.273  0.00  0.00    +0.151 C 
BRANCH  16  17
ATOM     17  C   UNL     1       3.994   0.348   1.537  0.00  0.00    +0.216 C 
ATOM     18  O   UNL     1       3.119   0.006   2.305  0.00  0.00    -0.276 OA
ATOM     19  N   UNL     1       5.282   0.065   1.814  0.00  0.00    -0.329 N 
ATOM     20  H   UNL     1       5.540  -0.476   2.737  0.00  0.00    +0.145 HD
ATOM     21  H   UNL     1       6.075   0.374   1.118  0.00  0.00    +0.145 HD
ENDBRANCH  16  17
ENDBRANCH  12  16
ENDBRANCH   5   7
BRANCH   4  22
ATOM     22  N   UNL     1      -5.026   0.484   0.063  0.00  0.00    -0.097 NA
BRANCH  22  23
ATOM     23  S   UNL     1      -6.387   1.074   0.798  0.00  0.00    +0.092 S 
ATOM     24  O   UNL     1      -6.397   2.477   0.569  0.00  0.00    -0.148 OA
ATOM     25  O   UNL     1      -7.460   0.231   0.404  0.00  0.00    -0.148 OA
BRANCH  23  26
ATOM     26  C   UNL     1      -6.181   0.849   2.534  0.00  0.00    +0.111 A 
ATOM     27  C   UNL     1      -6.617  -0.317   3.135  0.00  0.00    +0.031 A 
ATOM     28  C   UNL     1      -6.451  -0.497   4.495  0.00  0.00    +0.040 A 
ATOM     29  C   UNL     1      -5.859   0.495   5.257  0.00  0.00    +0.124 A 
ATOM     30  C   UNL     1      -5.427   1.665   4.655  0.00  0.00    +0.040 A 
ATOM     31  C   UNL     1      -5.589   1.841   3.293  0.00  0.00    +0.031 A 
ATOM     32  F   UNL     1      -5.700   0.323   6.588  0.00  0.00    -0.205 F 
ENDBRANCH  23  26
ENDBRANCH  22  23
ENDBRANCH   4  22
TORSDOF 6
