REMARK  Name = ZINC35982034
REMARK  5 active torsions:
REMARK  status: ('A' for Active; 'I' for Inactive)
REMARK    1  A    between atoms: C_1  and  C_2
REMARK    2  A    between atoms: C_2  and  C_3
REMARK    3  A    between atoms: C_6  and  C_9
REMARK    4  A    between atoms: C_18  and  C_22
REMARK    5  A    between atoms: C_30  and  C_32
REMARK                            x       y       z     vdW  Elec       q    Type
REMARK                         _______ _______ _______ _____ _____    ______ ____
ROOT
ATOM      1  C   UNL     1       3.852  -2.211   5.596  0.00  0.00    +0.247 C 
ATOM      2  O   UNL     1       3.745  -1.862   4.437  0.00  0.00    -0.270 OA
ATOM      3  N   UNL     1       2.749  -2.433   6.338  0.00  0.00    -0.297 N 
ATOM      4  C   UNL     1       1.414  -2.379   5.728  0.00  0.00    +0.112 C 
ATOM      5  C   UNL     1       0.547  -1.400   6.526  0.00  0.00    +0.074 C 
ATOM      6  C   UNL     1       0.553  -1.803   8.001  0.00  0.00    +0.142 C 
ATOM      7  C   UNL     1       1.979  -1.753   8.551  0.00  0.00    +0.074 C 
ATOM      8  C   UNL     1       2.859  -2.741   7.770  0.00  0.00    +0.112 C 
ATOM      9  N   UNL     1       0.015  -3.165   8.143  0.00  0.00    -0.255 N 
ATOM     10  C   UNL     1      -1.196  -3.042   8.984  0.00  0.00    +0.191 C 
ATOM     11  C   UNL     1      -1.576  -1.549   8.819  0.00  0.00    +0.194 C 
ATOM     12  O   UNL     1      -0.283  -0.905   8.748  0.00  0.00    -0.353 OA
ATOM     13  C   UNL     1       0.523  -4.296   7.614  0.00  0.00    +0.249 C 
ATOM     14  O   UNL     1       1.512  -4.247   6.910  0.00  0.00    -0.270 OA
ENDROOT
BRANCH  10  15
ATOM     15  C   UNL     1      -2.295  -3.937   8.473  0.00  0.00    +0.239 C 
ATOM     16  O   UNL     1      -2.311  -4.272   7.307  0.00  0.00    -0.273 OA
ATOM     17  N   UNL     1      -3.260  -4.364   9.310  0.00  0.00    -0.296 N 
ATOM     18  C   UNL     1      -3.327  -3.883  10.699  0.00  0.00    +0.136 C 
ATOM     19  C   UNL     1      -4.755  -3.399  10.975  0.00  0.00    +0.179 C 
ATOM     20  O   UNL     1      -5.679  -4.429  10.616  0.00  0.00    -0.377 OA
ATOM     21  C   UNL     1      -5.662  -4.772   9.228  0.00  0.00    +0.179 C 
ATOM     22  C   UNL     1      -4.283  -5.322   8.861  0.00  0.00    +0.136 C 
ENDBRANCH  10  15
BRANCH  13  23
ATOM     23  C   UNL     1      -0.124  -5.595   7.890  0.00  0.00    +0.037 A 
ATOM     24  C   UNL     1      -1.019  -5.720   8.954  0.00  0.00    +0.016 A 
ATOM     25  C   UNL     1      -1.620  -6.935   9.207  0.00  0.00    +0.039 A 
ATOM     26  C   UNL     1      -1.335  -8.031   8.408  0.00  0.00    +0.123 A 
ATOM     27  C   UNL     1      -0.447  -7.913   7.350  0.00  0.00    +0.039 A 
ATOM     28  C   UNL     1       0.154  -6.701   7.084  0.00  0.00    +0.016 A 
ATOM     29  F   UNL     1      -1.926  -9.220   8.661  0.00  0.00    -0.205 F 
ENDBRANCH  13  23
BRANCH   1  33
ATOM     30  C   UNL     1       7.704  -2.727   7.312  0.00  0.00    -0.048 A 
ATOM     31  C   UNL     1       7.483  -1.700   6.412  0.00  0.00    +0.004 A 
ATOM     32  C   UNL     1       6.234  -1.527   5.851  0.00  0.00    +0.013 A 
ATOM     33  C   UNL     1       5.193  -2.391   6.193  0.00  0.00    +0.037 A 
ATOM     34  C   UNL     1       5.423  -3.425   7.102  0.00  0.00    +0.013 A 
ATOM     35  C   UNL     1       6.677  -3.591   7.651  0.00  0.00    +0.004 A 
BRANCH  30  37
ATOM     36  C   UNL     1       9.902  -3.841   7.036  0.00  0.00    +0.009 C 
ATOM     37  C   UNL     1       9.070  -2.911   7.921  0.00  0.00    +0.032 C 
ENDBRANCH  30  37
ENDBRANCH   1  33
TORSDOF 4
