REMARK  Name = ZINC01502186
REMARK  6 active torsions:
REMARK  status: ('A' for Active; 'I' for Inactive)
REMARK    1  A    between atoms: C_1  and  C_2
REMARK    2  A    between atoms: C_4  and  C_25
REMARK    3  A    between atoms: C_9  and  C_11
REMARK    4  A    between atoms: N_13  and  N_14
REMARK    5  A    between atoms: C_15  and  C_16
REMARK    6  A    between atoms: C_21  and  O_22
REMARK                            x       y       z     vdW  Elec       q    Type
REMARK                         _______ _______ _______ _____ _____    ______ ____
ROOT
ATOM      1  C   UNL     1       2.553  -5.318  -0.041  0.00  0.00    +0.302 C 
ATOM      2  O   UNL     1       2.019  -6.410  -0.044  0.00  0.00    -0.265 OA
ATOM      3  N   UNL     1       3.898  -5.226  -0.046  0.00  0.00    -0.200 N 
ATOM      4  H   UNL     1       4.324  -4.354  -0.043  0.00  0.00    +0.178 HD
ENDROOT
BRANCH   1  13
ATOM      5  C   UNL     1      -0.018   1.503   0.010  0.00  0.00    +0.066 C 
ATOM      6  C   UNL     1       0.002  -0.004   0.002  0.00  0.00    +0.044 A 
ATOM      7  C   UNL     1      -1.204  -0.718   0.004  0.00  0.00    +0.046 A 
ATOM      8  C   UNL     1      -1.173  -2.074  -0.004  0.00  0.00    +0.045 A 
ATOM      9  N   UNL     1       0.033  -2.707  -0.014  0.00  0.00    -0.200 N 
ATOM     10  C   UNL     1       1.193  -1.980  -0.015  0.00  0.00    +0.254 A 
ATOM     11  N   UNL     1       1.150  -0.641  -0.012  0.00  0.00    -0.216 NA
ATOM     12  N   UNL     1       2.200  -2.841  -0.025  0.00  0.00    -0.185 NA
ATOM     13  C   UNL     1       1.727  -4.089  -0.029  0.00  0.00    +0.240 A 
ATOM     14  N   UNL     1       0.407  -4.057  -0.023  0.00  0.00    -0.139 NA
ATOM     15  C   UNL     1      -2.454  -2.869  -0.002  0.00  0.00    +0.066 C 
ENDBRANCH   1  13
BRANCH   3  16
ATOM     16  N   UNL     1       4.680  -6.388  -0.057  0.00  0.00    -0.187 NA
ATOM     17  C   UNL     1       5.975  -6.299  -0.062  0.00  0.00    +0.142 C 
BRANCH  17  18
ATOM     18  C   UNL     1       6.797  -7.522  -0.073  0.00  0.00    +0.038 A 
ATOM     19  C   UNL     1       8.191  -7.431  -0.074  0.00  0.00    +0.033 A 
ATOM     20  C   UNL     1       8.956  -8.580  -0.084  0.00  0.00    +0.043 A 
ATOM     21  C   UNL     1       8.346  -9.824  -0.094  0.00  0.00    +0.039 A 
ATOM     22  C   UNL     1       6.968  -9.927  -0.094  0.00  0.00    +0.061 A 
ATOM     23  C   UNL     1       6.185  -8.783  -0.078  0.00  0.00    +0.139 A 
ATOM     24 BR   UNL     1       6.148 -11.631  -0.109  0.00  0.00    -0.046 Br
ATOM     25 CL   UNL     1      10.688  -8.465  -0.084  0.00  0.00    -0.083 Cl
BRANCH  23  26
ATOM     26  O   UNL     1       4.830  -8.883  -0.073  0.00  0.00    -0.505 OA
ATOM     27  H   UNL     1       4.434  -8.907  -0.955  0.00  0.00    +0.292 HD
ENDBRANCH  23  26
ENDBRANCH  17  18
ENDBRANCH   3  16
TORSDOF 4
