REMARK  Name = ZINC13281576
REMARK  11 active torsions:
REMARK  status: ('A' for Active; 'I' for Inactive)
REMARK    1  A    between atoms: C_1  and  C_2
REMARK    2  A    between atoms: C_2  and  C_3
REMARK    3  A    between atoms: C_2  and  C_8
REMARK    4  A    between atoms: C_2  and  N_11
REMARK    5  A    between atoms: C_3  and  C_4
REMARK    6  A    between atoms: C_4  and  C_5
REMARK    7  A    between atoms: C_12  and  C_14
REMARK    8  A    between atoms: C_17  and  N_20
REMARK    9  A    between atoms: N_20  and  C_21
REMARK   10  A    between atoms: C_21  and  C_22
REMARK   11  A    between atoms: C_28  and  N_33
REMARK                            x       y       z     vdW  Elec       q    Type
REMARK                         _______ _______ _______ _____ _____    ______ ____
ROOT
ATOM      1  C   UNL     1      -3.600  -0.702  -0.978  0.00  0.00    +0.037 A 
ATOM      2  C   UNL     1      -4.040  -1.513   0.072  0.00  0.00    +0.015 A 
ATOM      3  C   UNL     1      -5.331  -1.987   0.080  0.00  0.00    +0.023 A 
ATOM      4  C   UNL     1      -6.200  -1.661  -0.958  0.00  0.00    +0.027 A 
ATOM      5  C   UNL     1      -5.765  -0.854  -2.006  0.00  0.00    +0.023 A 
ATOM      6  C   UNL     1      -4.477  -0.371  -2.016  0.00  0.00    +0.015 A 
ENDROOT
BRANCH   1   8
ATOM      7  N   UNL     1      -1.372  -0.511   0.012  0.00  0.00    -0.296 N 
ATOM      8  C   UNL     1      -2.216  -0.192  -0.989  0.00  0.00    +0.245 C 
ATOM      9  O   UNL     1      -1.837   0.518  -1.901  0.00  0.00    -0.270 OA
ATOM     10  H   UNL     1      -1.675  -1.077   0.740  0.00  0.00    +0.150 HD
BRANCH   7  12
ATOM     11  C   UNL     1      -0.019   1.526   0.010  0.00  0.00    +0.044 C 
ATOM     12  C   UNL     1       0.002  -0.004   0.002  0.00  0.00    +0.134 C 
BRANCH  12  13
ATOM     13  C   UNL     1       0.707  -0.490  -1.238  0.00  0.00    +0.379 C 
ATOM     14  O   UNL     1       1.869  -0.179  -1.440  0.00  0.00    -0.244 OA
ATOM     15  O   UNL     1       0.117  -1.195  -2.039  0.00  0.00    -0.244 OA
ENDBRANCH  12  13
BRANCH  12  16
ATOM     16  C   UNL     1       0.742  -0.511   1.242  0.00  0.00    +0.048 C 
BRANCH  16  17
ATOM     17  C   UNL     1       2.178   0.019   1.231  0.00  0.00    +0.128 C 
BRANCH  17  18
ATOM     18  C   UNL     1       2.906  -0.480   2.452  0.00  0.00    +0.356 C 
ATOM     19  O   UNL     1       2.331  -1.194   3.256  0.00  0.00    -0.246 OA
ATOM     20  O   UNL     1       4.071  -0.171   2.635  0.00  0.00    -0.246 OA
ENDBRANCH  17  18
ENDBRANCH  16  17
ENDBRANCH  12  16
ENDBRANCH   7  12
ENDBRANCH   1   8
BRANCH   4  21
ATOM     21  N   UNL     1      -7.505  -2.142  -0.948  0.00  0.00    -0.340 N 
ATOM     22  H   UNL     1      -7.808  -2.705  -0.219  0.00  0.00    +0.146 HD
BRANCH  21  23
ATOM     23  C   UNL     1      -8.420  -1.800  -2.040  0.00  0.00    +0.137 C 
BRANCH  23  24
ATOM     24  C   UNL     1      -9.760  -2.442  -1.791  0.00  0.00    -0.030 A 
ATOM     25  C   UNL     1     -10.011  -3.720  -2.282  0.00  0.00    +0.007 A 
ATOM     26  C   UNL     1     -11.213  -4.329  -2.075  0.00  0.00    +0.027 A 
ATOM     27  C   UNL     1     -12.213  -3.659  -1.357  0.00  0.00    +0.052 A 
ATOM     28  C   UNL     1     -11.956  -2.359  -0.858  0.00  0.00    +0.038 A 
ATOM     29  C   UNL     1     -10.710  -1.765  -1.083  0.00  0.00    +0.018 A 
ATOM     30  C   UNL     1     -12.982  -1.702  -0.134  0.00  0.00    +0.129 A 
ATOM     31  N   UNL     1     -14.132  -2.336   0.041  0.00  0.00    -0.201 NA
ATOM     32  C   UNL     1     -14.332  -3.558  -0.445  0.00  0.00    +0.192 A 
ATOM     33  N   UNL     1     -13.412  -4.215  -1.125  0.00  0.00    -0.327 N 
ATOM     34  N   UNL     1     -15.555  -4.165  -0.228  0.00  0.00    -0.329 N 
ATOM     35  H   UNL     1     -16.246  -3.701   0.270  0.00  0.00    +0.145 HD
ATOM     36  H   UNL     1     -15.723  -5.056  -0.573  0.00  0.00    +0.145 HD
ATOM     37  H   UNL     1     -13.604  -5.104  -1.461  0.00  0.00    +0.169 HD
BRANCH  30  38
ATOM     38  N   UNL     1     -12.788  -0.436   0.376  0.00  0.00    -0.343 N 
ATOM     39  H   UNL     1     -11.941   0.016   0.241  0.00  0.00    +0.144 HD
ATOM     40  H   UNL     1     -13.499   0.002   0.869  0.00  0.00    +0.144 HD
ENDBRANCH  30  38
ENDBRANCH  23  24
ENDBRANCH  21  23
ENDBRANCH   4  21
TORSDOF 10
