REMARK  Name = ZINC40044408
REMARK  4 active torsions:
REMARK  status: ('A' for Active; 'I' for Inactive)
REMARK    1  A    between atoms: C_1  and  C_2
REMARK    2  A    between atoms: C_4  and  C_34
REMARK    3  A    between atoms: C_16  and  C_18
REMARK    4  A    between atoms: C_21  and  N_24
REMARK                            x       y       z     vdW  Elec       q    Type
REMARK                         _______ _______ _______ _____ _____    ______ ____
ROOT
ATOM      1  C   UNL     1      -0.018   1.503   0.010  0.00  0.00    +0.044 C 
ATOM      2  C   UNL     1       0.002  -0.004   0.002  0.00  0.00    -0.049 A 
ATOM      3  C   UNL     1       0.006  -0.689  -1.205  0.00  0.00    +0.010 A 
ATOM      4  C   UNL     1       0.022  -2.065  -1.235  0.00  0.00    -0.007 A 
ATOM      5  C   UNL     1       0.035  -2.790  -0.043  0.00  0.00    +0.142 A 
ATOM      6  C   UNL     1       0.037  -2.086   1.172  0.00  0.00    +0.065 A 
ATOM      7  C   UNL     1       0.023  -0.692   1.183  0.00  0.00    +0.018 A 
ATOM      8  C   UNL     1       0.067  -2.849   2.446  0.00  0.00    +0.199 A 
ATOM      9  O   UNL     1      -0.097  -2.332   3.537  0.00  0.00    -0.287 OA
ATOM     10  C   UNL     1       0.313  -4.283   2.265  0.00  0.00    +0.072 A 
ATOM     11  C   UNL     1       0.294  -4.850   1.023  0.00  0.00    +0.199 A 
ATOM     12  O   UNL     1       0.043  -4.142  -0.096  0.00  0.00    -0.449 OA
ATOM     13  C   UNL     1       0.582  -6.287   1.166  0.00  0.00    +0.288 C 
ATOM     14  O   UNL     1       0.643  -7.080   0.247  0.00  0.00    -0.266 OA
ATOM     15  N   UNL     1       0.769  -6.596   2.465  0.00  0.00    -0.238 N 
ATOM     16  C   UNL     1       0.613  -5.362   3.253  0.00  0.00    +0.151 C 
ATOM     17  C   UNL     1       1.060  -7.860   2.973  0.00  0.00    +0.129 A 
ATOM     18  C   UNL     1       1.288  -8.917   2.099  0.00  0.00    +0.045 A 
ATOM     19  C   UNL     1       1.575 -10.168   2.616  0.00  0.00    +0.025 A 
ATOM     20  C   UNL     1       1.625 -10.319   3.996  0.00  0.00    +0.059 A 
ATOM     21  C   UNL     1       1.388  -9.224   4.805  0.00  0.00    +0.132 A 
ATOM     22  N   UNL     1       1.121  -8.042   4.283  0.00  0.00    -0.238 NA
ATOM     23 CL   UNL     1       1.982 -11.867   4.697  0.00  0.00    -0.082 Cl
ATOM     24  C   UNL     1       0.024  -2.790  -2.557  0.00  0.00    +0.047 C 
ENDROOT
BRANCH  16  25
ATOM     25  C   UNL     1       1.890  -5.051   3.991  0.00  0.00    -0.022 A 
ATOM     26  C   UNL     1       3.111  -5.308   3.398  0.00  0.00    +0.008 A 
ATOM     27  C   UNL     1       4.282  -5.023   4.075  0.00  0.00    +0.033 A 
ATOM     28  C   UNL     1       4.232  -4.480   5.345  0.00  0.00    +0.126 A 
ATOM     29  C   UNL     1       3.010  -4.223   5.938  0.00  0.00    +0.033 A 
ATOM     30  C   UNL     1       1.839  -4.504   5.260  0.00  0.00    +0.008 A 
BRANCH  28  31
ATOM     31  N   UNL     1       5.486  -4.176   6.070  0.00  0.00    +0.056 N 
ATOM     32  O   UNL     1       6.554  -4.402   5.551  0.00  0.00    -0.126 OA
ATOM     33  O   UNL     1       5.441  -3.701   7.181  0.00  0.00    -0.126 OA
ENDBRANCH  28  31
ENDBRANCH  16  25
TORSDOF 2
