REMARK  Name = ZINC09915617
REMARK  12 active torsions:
REMARK  status: ('A' for Active; 'I' for Inactive)
REMARK    1  A    between atoms: C_1  and  C_2
REMARK    2  A    between atoms: C_2  and  C_28
REMARK    3  A    between atoms: C_3  and  C_26
REMARK    4  A    between atoms: C_3  and  O_27
REMARK    5  A    between atoms: C_4  and  C_24
REMARK    6  A    between atoms: C_4  and  O_25
REMARK    7  A    between atoms: C_5  and  C_22
REMARK    8  A    between atoms: C_5  and  O_23
REMARK    9  A    between atoms: C_6  and  C_8
REMARK   10  A    between atoms: C_6  and  O_9
REMARK   11  A    between atoms: O_9  and  C_10
REMARK   12  A    between atoms: C_28  and  O_29
REMARK                            x       y       z     vdW  Elec       q    Type
REMARK                         _______ _______ _______ _____ _____    ______ ____
ROOT
ATOM      1  C   UNL     1       3.579   1.153  -0.922  0.00  0.00    +0.047 C 
ATOM      2  C   UNL     1       2.075   1.048  -1.203  0.00  0.00    +0.125 C 
ATOM      3  C   UNL     1       1.290   1.563  -0.002  0.00  0.00    +0.125 C 
ATOM      4  C   UNL     1       1.169   3.081   0.007  0.00  0.00    +0.129 C 
ATOM      5  C   UNL     1       0.708   3.640  -1.331  0.00  0.00    +0.159 C 
ATOM      6  C   UNL     1       1.497   3.072  -2.505  0.00  0.00    +0.242 C 
ATOM      7  O   UNL     1       1.734   1.691  -2.406  0.00  0.00    -0.326 OA
ATOM      8  C   UNL     1       2.805   3.854  -2.678  0.00  0.00    +0.092 C 
ATOM      9  C   UNL     1      -0.786   3.366  -1.537  0.00  0.00    +0.051 C 
ATOM     10  C   UNL     1       0.136   3.479   1.081  0.00  0.00    +0.047 C 
ATOM     11  C   UNL     1       2.020   1.122   1.281  0.00  0.00    +0.047 C 
ENDROOT
BRANCH   5  12
ATOM     12  O   UNL     1       0.893   5.069  -1.313  0.00  0.00    -0.379 OA
ATOM     13  H   UNL     1       0.624   5.510  -2.131  0.00  0.00    +0.211 HD
ENDBRANCH   5  12
BRANCH   4  14
ATOM     14  O   UNL     1       2.423   3.669   0.376  0.00  0.00    -0.383 OA
ATOM     15  H   UNL     1       2.412   4.636   0.401  0.00  0.00    +0.210 HD
ENDBRANCH   4  14
BRANCH   3  16
ATOM     16  O   UNL     1      -0.011   0.963   0.007  0.00  0.00    -0.383 OA
ATOM     17  H   UNL     1       0.002  -0.004   0.002  0.00  0.00    +0.210 HD
ENDBRANCH   3  16
BRANCH   6  18
ATOM     18  O   UNL     1       0.713   3.302  -3.700  0.00  0.00    -0.456 OA
BRANCH  18  19
ATOM     19  C   UNL     1       1.189   2.776  -4.863  0.00  0.00    +0.151 A 
ATOM     20  C   UNL     1       2.317   2.061  -5.014  0.00  0.00    +0.130 A 
ATOM     21  N   UNL     1       2.467   1.700  -6.332  0.00  0.00    -0.358 N 
ATOM     22  H   UNL     1       3.204   1.180  -6.688  0.00  0.00    +0.165 HD
ATOM     23  C   UNL     1       1.412   2.188  -7.072  0.00  0.00    +0.052 A 
ATOM     24  C   UNL     1       0.564   2.876  -6.186  0.00  0.00    +0.061 A 
ATOM     25  C   UNL     1      -0.604   3.476  -6.663  0.00  0.00    +0.068 A 
ATOM     26  C   UNL     1      -0.918   3.386  -8.002  0.00  0.00    +0.037 A 
ATOM     27  C   UNL     1      -0.081   2.703  -8.875  0.00  0.00    +0.019 A 
ATOM     28  C   UNL     1       1.078   2.114  -8.421  0.00  0.00    +0.027 A 
ATOM     29 BR   UNL     1      -2.498   4.196  -8.653  0.00  0.00    -0.049 Br
ATOM     30 CL   UNL     1      -1.653   4.331  -5.576  0.00  0.00    -0.082 Cl
ENDBRANCH  18  19
ENDBRANCH   6  18
BRANCH   2  31
ATOM     31  C   UNL     1       1.749  -0.457  -1.358  0.00  0.00    +0.193 C 
BRANCH  31  32
ATOM     32  O   UNL     1       2.552  -1.013  -2.401  0.00  0.00    -0.392 OA
ATOM     33  H   UNL     1       2.400  -1.956  -2.553  0.00  0.00    +0.210 HD
ENDBRANCH  31  32
ENDBRANCH   2  31
TORSDOF 7
