REMARK  Name = ZINC66200643
REMARK  12 active torsions:
REMARK  status: ('A' for Active; 'I' for Inactive)
REMARK    1  A    between atoms: C_1  and  O_2
REMARK    2  A    between atoms: O_2  and  C_3
REMARK    3  A    between atoms: C_6  and  C_9
REMARK    4  A    between atoms: C_9  and  C_10
REMARK    5  A    between atoms: N_12  and  C_13
REMARK    6  A    between atoms: C_13  and  N_15
REMARK    7  A    between atoms: N_15  and  C_16
REMARK    8  A    between atoms: C_19  and  S_22
REMARK    9  A    between atoms: S_22  and  N_25
REMARK   10  A    between atoms: N_25  and  C_26
REMARK   11  A    between atoms: C_28  and  O_32
REMARK   12  A    between atoms: O_32  and  C_33
REMARK                            x       y       z     vdW  Elec       q    Type
REMARK                         _______ _______ _______ _____ _____    ______ ____
ROOT
ATOM      1  C   UNL     1       8.247  -4.280  -5.428  0.00  0.00    +0.033 A 
ATOM      2  C   UNL     1       8.842  -3.935  -4.222  0.00  0.00    +0.025 A 
ATOM      3  C   UNL     1      10.198  -4.127  -4.043  0.00  0.00    +0.031 A 
ATOM      4  C   UNL     1      10.963  -4.662  -5.064  0.00  0.00    +0.111 A 
ATOM      5  C   UNL     1      10.373  -5.006  -6.266  0.00  0.00    +0.031 A 
ATOM      6  C   UNL     1       9.017  -4.822  -6.449  0.00  0.00    +0.025 A 
ENDROOT
BRANCH   4   7
ATOM      7  S   UNL     1      12.692  -4.905  -4.832  0.00  0.00    +0.093 S 
ATOM      8  O   UNL     1      13.279  -4.911  -6.126  0.00  0.00    -0.148 OA
ATOM      9  O   UNL     1      13.097  -3.998  -3.816  0.00  0.00    -0.148 OA
BRANCH   7  10
ATOM     10  N   UNL     1      12.894  -6.428  -4.213  0.00  0.00    -0.078 NA
BRANCH  10  11
ATOM     11  C   UNL     1      14.167  -6.897  -3.928  0.00  0.00    +0.169 A 
ATOM     12  C   UNL     1      14.349  -8.178  -3.413  0.00  0.00    +0.114 A 
ATOM     13  C   UNL     1      15.644  -8.601  -3.144  0.00  0.00    +0.219 A 
ATOM     14  N   UNL     1      16.658  -7.774  -3.385  0.00  0.00    -0.201 NA
ATOM     15  C   UNL     1      16.446  -6.569  -3.873  0.00  0.00    +0.227 A 
ATOM     16  N   UNL     1      15.234  -6.131  -4.147  0.00  0.00    -0.217 NA
BRANCH  13  17
ATOM     17  O   UNL     1      15.872  -9.840  -2.642  0.00  0.00    -0.480 OA
ATOM     18  C   UNL     1      17.233 -10.198  -2.392  0.00  0.00    +0.279 C 
ENDBRANCH  13  17
ENDBRANCH  10  11
ENDBRANCH   7  10
ENDBRANCH   4   7
BRANCH   1  19
ATOM     19  N   UNL     1       6.874  -4.086  -5.613  0.00  0.00    -0.297 N 
ATOM     20  H   UNL     1       6.335  -4.787  -6.013  0.00  0.00    +0.154 HD
BRANCH  19  21
ATOM     21  C   UNL     1       6.300  -2.927  -5.235  0.00  0.00    +0.141 C 
ATOM     22  S   UNL     1       7.228  -1.734  -4.432  0.00  0.00    -0.018 S 
BRANCH  21  25
ATOM     23  C   UNL     1       4.421  -1.547  -5.112  0.00  0.00    +0.223 C 
ATOM     24  O   UNL     1       5.078  -0.702  -4.543  0.00  0.00    -0.275 OA
ATOM     25  N   UNL     1       4.995  -2.706  -5.490  0.00  0.00    -0.267 N 
ATOM     26  H   UNL     1       4.469  -3.382  -5.946  0.00  0.00    +0.157 HD
BRANCH  23  27
ATOM     27  C   UNL     1       2.962  -1.300  -5.398  0.00  0.00    +0.131 C 
BRANCH  27  31
ATOM     28  C   UNL     1       1.853   2.554  -3.924  0.00  0.00    +0.120 A 
ATOM     29  C   UNL     1       2.322   2.416  -5.222  0.00  0.00    +0.046 A 
ATOM     30  C   UNL     1       2.680   1.168  -5.696  0.00  0.00    +0.007 A 
ATOM     31  C   UNL     1       2.571   0.059  -4.878  0.00  0.00    -0.038 A 
ATOM     32  C   UNL     1       2.103   0.195  -3.584  0.00  0.00    +0.007 A 
ATOM     33  C   UNL     1       1.749   1.440  -3.103  0.00  0.00    +0.046 A 
BRANCH  28  35
ATOM     34  C   UNL     1       1.633   4.882  -4.355  0.00  0.00    +0.277 C 
ATOM     35  O   UNL     1       1.501   3.780  -3.455  0.00  0.00    -0.495 OA
ENDBRANCH  28  35
ENDBRANCH  27  31
ENDBRANCH  23  27
ENDBRANCH  21  25
ENDBRANCH  19  21
ENDBRANCH   1  19
TORSDOF 10
