REMARK  Name = ZINC13278706
REMARK  6 active torsions:
REMARK  status: ('A' for Active; 'I' for Inactive)
REMARK    1  A    between atoms: C_1  and  C_2
REMARK    2  A    between atoms: N_4  and  C_5
REMARK    3  A    between atoms: C_8  and  C_12
REMARK    4  A    between atoms: N_17  and  S_18
REMARK    5  A    between atoms: S_18  and  C_21
REMARK    6  A    between atoms: C_25  and  C_27
REMARK                            x       y       z     vdW  Elec       q    Type
REMARK                         _______ _______ _______ _____ _____    ______ ____
ROOT
ATOM      1  C   UNL     1      -4.852   3.882   0.204  0.00  0.00    +0.083 A 
ATOM      2  C   UNL     1      -4.840   5.245   0.127  0.00  0.00    +0.077 A 
ATOM      3  S   UNL     1      -6.589   5.601   0.238  0.00  0.00    -0.059 S 
ATOM      4  C   UNL     1      -7.155   3.911   0.374  0.00  0.00    +0.178 A 
ATOM      5  N   UNL     1      -6.015   3.246   0.321  0.00  0.00    -0.224 NA
ATOM      6  N   UNL     1      -8.447   3.427   0.497  0.00  0.00    -0.194 N 
ATOM      7  H   UNL     1      -8.603   2.472   0.562  0.00  0.00    +0.176 HD
ENDROOT
BRANCH   1  11
ATOM      8  C   UNL     1      -1.208   1.688   0.056  0.00  0.00    +0.036 A 
ATOM      9  C   UNL     1      -2.419   1.017   0.183  0.00  0.00    +0.024 A 
ATOM     10  C   UNL     1      -3.601   1.726   0.231  0.00  0.00    +0.015 A 
ATOM     11  C   UNL     1      -3.582   3.117   0.152  0.00  0.00    +0.036 A 
ATOM     12  C   UNL     1      -2.365   3.790   0.025  0.00  0.00    +0.134 A 
ATOM     13  C   UNL     1      -1.184   3.075  -0.017  0.00  0.00    +0.062 A 
ATOM     14  F   UNL     1      -2.343   5.139  -0.052  0.00  0.00    -0.205 F 
BRANCH   8  18
ATOM     15  C   UNL     1       1.336  -0.969  -0.741  0.00  0.00    +0.109 C 
ATOM     16  C   UNL     1       0.027  -0.235  -0.603  0.00  0.00    +0.214 C 
ATOM     17  O   UNL     1      -0.993  -0.726  -1.041  0.00  0.00    -0.276 OA
ATOM     18  N   UNL     1      -0.011   0.966   0.007  0.00  0.00    -0.286 N 
ATOM     19  H   UNL     1       0.791   1.328   0.416  0.00  0.00    +0.155 HD
ENDBRANCH   8  18
ENDBRANCH   1  11
BRANCH   6  20
ATOM     20  S   UNL     1      -9.725   4.479   0.534  0.00  0.00    +0.074 S 
ATOM     21  O   UNL     1     -10.900   3.688   0.639  0.00  0.00    -0.150 OA
ATOM     22  O   UNL     1      -9.397   5.484   1.484  0.00  0.00    -0.150 OA
BRANCH  20  23
ATOM     23  C   UNL     1      -9.791   5.275  -1.037  0.00  0.00    +0.110 A 
ATOM     24  C   UNL     1      -9.097   6.455  -1.242  0.00  0.00    +0.031 A 
ATOM     25  C   UNL     1      -9.138   7.083  -2.473  0.00  0.00    +0.041 A 
ATOM     26  C   UNL     1      -9.883   6.542  -3.504  0.00  0.00    +0.138 A 
ATOM     27  C   UNL     1     -10.591   5.353  -3.300  0.00  0.00    +0.100 A 
ATOM     28  C   UNL     1     -10.539   4.723  -2.055  0.00  0.00    +0.046 A 
ATOM     29  F   UNL     1      -9.927   7.160  -4.705  0.00  0.00    -0.205 F 
BRANCH  27  30
ATOM     30  C   UNL     1     -11.389   4.768  -4.395  0.00  0.00    +0.389 C 
ATOM     31  O   UNL     1     -11.432   5.319  -5.477  0.00  0.00    -0.240 OA
ATOM     32  O   UNL     1     -12.069   3.622  -4.195  0.00  0.00    -0.240 OA
ENDBRANCH  27  30
ENDBRANCH  20  23
ENDBRANCH   6  20
TORSDOF 5
