REMARK  Name = ZINC13244720
REMARK  12 active torsions:
REMARK  status: ('A' for Active; 'I' for Inactive)
REMARK    1  A    between atoms: C_1  and  C_2
REMARK    2  A    between atoms: C_2  and  C_4
REMARK    3  A    between atoms: C_2  and  N_13
REMARK    4  A    between atoms: C_7  and  C_10
REMARK    5  A    between atoms: C_10  and  C_11
REMARK    6  A    between atoms: C_10  and  C_12
REMARK    7  A    between atoms: C_14  and  C_16
REMARK    8  A    between atoms: C_16  and  N_17
REMARK    9  A    between atoms: N_20  and  CA_21
REMARK   10  A    between atoms: CA_21  and  C_23
REMARK   11  A    between atoms: CA_21  and  C_31
REMARK   12  A    between atoms: C_23  and  C_24
REMARK                            x       y       z     vdW  Elec       q    Type
REMARK                         _______ _______ _______ _____ _____    ______ ____
ROOT
ATOM      1  N   UNL     1       4.223  -1.127   2.126  0.00  0.00    -0.291 N 
ATOM      2  C   UNL     1       5.078  -1.542   3.081  0.00  0.00    +0.301 C 
ATOM      3  O   UNL     1       4.655  -1.893   4.166  0.00  0.00    -0.253 OA
ATOM      4  N   UNL     1       6.403  -1.569   2.834  0.00  0.00    -0.286 N 
ATOM      5  H   UNL     1       4.560  -0.847   1.261  0.00  0.00    +0.151 HD
ATOM      6  H   UNL     1       6.740  -1.288   1.969  0.00  0.00    +0.151 HD
ENDROOT
BRANCH   1   7
ATOM      7  C   UNL     1       2.783  -1.099   2.395  0.00  0.00    +0.201 C 
BRANCH   7   9
ATOM      8  N   UNL     1       0.711  -0.489   1.189  0.00  0.00    -0.307 N 
ATOM      9  C   UNL     1       2.054  -0.600   1.174  0.00  0.00    +0.231 C 
ATOM     10  O   UNL     1       2.676  -0.297   0.177  0.00  0.00    -0.274 OA
ATOM     11  H   UNL     1       0.213  -0.731   1.986  0.00  0.00    +0.149 HD
BRANCH   8  13
ATOM     12  C   UNL     1      -0.019   1.526   0.010  0.00  0.00    +0.033 C 
ATOM     13  C   UNL     1       0.002  -0.004   0.002  0.00  0.00    +0.100 C 
BRANCH  13  14
ATOM     14  C   UNL     1      -1.412  -0.526   0.013  0.00  0.00    -0.027 A 
ATOM     15  C   UNL     1      -2.123  -0.571   1.197  0.00  0.00    +0.006 A 
ATOM     16  C   UNL     1      -3.420  -1.049   1.207  0.00  0.00    +0.004 A 
ATOM     17  C   UNL     1      -4.006  -1.482   0.032  0.00  0.00    -0.045 A 
ATOM     18  C   UNL     1      -3.295  -1.436  -1.153  0.00  0.00    +0.004 A 
ATOM     19  C   UNL     1      -2.000  -0.954  -1.163  0.00  0.00    +0.006 A 
BRANCH  17  20
ATOM     20  C   UNL     1      -5.419  -2.005   0.043  0.00  0.00    +0.013 C 
ATOM     21  C   UNL     1      -6.288  -1.144  -0.876  0.00  0.00    +0.012 C 
ATOM     22  C   UNL     1      -5.431  -3.452  -0.452  0.00  0.00    +0.012 C 
ENDBRANCH  17  20
ENDBRANCH  13  14
ENDBRANCH   8  13
ENDBRANCH   7   9
ENDBRANCH   1   7
BRANCH   4  23
ATOM     23  CA  UNL     1       7.333  -2.020   3.873  0.00  0.00    +0.196 C 
BRANCH  23  24
ATOM     24  C   UNL     1       7.671  -0.865   4.780  0.00  0.00    +0.376 C 
ATOM     25  O   UNL     1       7.943  -1.070   5.951  0.00  0.00    -0.244 OA
ATOM     26  OXT UNL     1       7.673   0.273   4.344  0.00  0.00    -0.244 OA
ENDBRANCH  23  24
BRANCH  23  27
ATOM     27  C   UNL     1       8.612  -2.546   3.218  0.00  0.00    +0.130 C 
BRANCH  27  28
ATOM     28  C   UNL     1       8.292  -3.775   2.407  0.00  0.00    +0.218 C 
ATOM     29  O   UNL     1       7.154  -4.190   2.358  0.00  0.00    -0.276 OA
ATOM     30  N   UNL     1       9.272  -4.414   1.737  0.00  0.00    -0.301 N 
ATOM     31  C   UNL     1      10.689  -4.025   1.715  0.00  0.00    +0.108 C 
ATOM     32  C   UNL     1      11.425  -5.027   0.801  0.00  0.00    +0.020 C 
ATOM     33  C   UNL     1      10.286  -5.586  -0.090  0.00  0.00    +0.020 C 
ATOM     34  C   UNL     1       9.100  -5.622   0.909  0.00  0.00    +0.108 C 
ENDBRANCH  27  28
ENDBRANCH  23  27
ENDBRANCH   4  23
TORSDOF 9
