REMARK  Name = ZINC49070893
REMARK  10 active torsions:
REMARK  status: ('A' for Active; 'I' for Inactive)
REMARK    1  A    between atoms: C_6  and  C_7
REMARK    2  A    between atoms: C_8  and  C_32
REMARK    3  A    between atoms: C_9  and  N_31
REMARK    4  A    between atoms: C_11  and  S_15
REMARK    5  A    between atoms: C_12  and  C_13
REMARK    6  A    between atoms: S_15  and  C_16
REMARK    7  A    between atoms: C_18  and  O_30
REMARK    8  A    between atoms: C_20  and  O_29
REMARK    9  A    between atoms: C_22  and  O_28
REMARK   10  A    between atoms: C_24  and  O_27
REMARK                            x       y       z     vdW  Elec       q    Type
REMARK                         _______ _______ _______ _____ _____    ______ ____
ROOT
ATOM      1  C   UNL     1      -1.267  -0.764   0.011  0.00  0.00    +0.023 A 
ATOM      2  C   UNL     1      -2.144  -0.700   1.112  0.00  0.00    +0.100 A 
ATOM      3  C   UNL     1      -3.340  -1.439   1.076  0.00  0.00    +0.136 A 
ATOM      4  N   UNL     1      -3.646  -2.187   0.027  0.00  0.00    -0.223 NA
ATOM      5  C   UNL     1      -2.853  -2.277  -1.030  0.00  0.00    +0.119 A 
ATOM      6  C   UNL     1      -1.638  -1.568  -1.085  0.00  0.00    +0.093 A 
ENDROOT
BRANCH   1  12
ATOM      7  C   UNL     1      -0.017   1.391   0.010  0.00  0.00    +0.009 A 
ATOM      8  C   UNL     1       1.170   2.095   0.002  0.00  0.00    +0.016 A 
ATOM      9  C   UNL     1       2.378   1.419  -0.013  0.00  0.00    +0.018 A 
ATOM     10  C   UNL     1       2.403   0.034  -0.021  0.00  0.00    +0.016 A 
ATOM     11  C   UNL     1       1.223  -0.680  -0.014  0.00  0.00    +0.009 A 
ATOM     12  C   UNL     1       0.002  -0.004   0.002  0.00  0.00    -0.015 A 
ATOM     13 BR   UNL     1       4.000   2.390  -0.024  0.00  0.00    -0.050 Br
ENDBRANCH   1  12
BRANCH   3  14
ATOM     14  N   UNL     1      -4.207  -1.385   2.149  0.00  0.00    -0.342 N 
ATOM     15  H   UNL     1      -3.989  -0.840   2.921  0.00  0.00    +0.144 HD
ATOM     16  H   UNL     1      -5.033  -1.892   2.131  0.00  0.00    +0.144 HD
ENDBRANCH   3  14
BRANCH   6  17
ATOM     17  C   UNL     1      -0.789  -1.667  -2.234  0.00  0.00    +0.102 C 
ATOM     18  N   UNL     1      -0.117  -1.746  -3.146  0.00  0.00    -0.191 NA
ENDBRANCH   6  17
BRANCH   2  19
ATOM     19  C   UNL     1      -1.821   0.106   2.252  0.00  0.00    +0.103 C 
ATOM     20  N   UNL     1      -1.566   0.745   3.155  0.00  0.00    -0.191 NA
ENDBRANCH   2  19
BRANCH   5  21
ATOM     21  S   UNL     1      -3.328  -3.294  -2.388  0.00  0.00    -0.070 S 
BRANCH  21  22
ATOM     22  C   UNL     1      -4.927  -3.984  -1.881  0.00  0.00    +0.216 C 
ATOM     23  C   UNL     1      -5.520  -4.800  -3.033  0.00  0.00    +0.185 C 
ATOM     24  C   UNL     1      -6.840  -5.429  -2.577  0.00  0.00    +0.180 C 
ATOM     25  C   UNL     1      -6.583  -6.283  -1.333  0.00  0.00    +0.201 C 
ATOM     26  C   UNL     1      -5.949  -5.411  -0.246  0.00  0.00    +0.280 C 
ATOM     27  O   UNL     1      -4.742  -4.832  -0.745  0.00  0.00    -0.332 OA
BRANCH  26  28
ATOM     28  O   UNL     1      -5.655  -6.214   0.899  0.00  0.00    -0.365 OA
ATOM     29  H   UNL     1      -5.250  -5.725   1.629  0.00  0.00    +0.213 HD
ENDBRANCH  26  28
BRANCH  25  30
ATOM     30  O   UNL     1      -7.819  -6.818  -0.857  0.00  0.00    -0.384 OA
ATOM     31  H   UNL     1      -7.731  -7.371  -0.068  0.00  0.00    +0.210 HD
ENDBRANCH  25  30
BRANCH  24  32
ATOM     32  O   UNL     1      -7.365  -6.250  -3.623  0.00  0.00    -0.386 OA
ATOM     33  H   UNL     1      -8.202  -6.680  -3.402  0.00  0.00    +0.210 HD
ENDBRANCH  24  32
BRANCH  23  34
ATOM     34  O   UNL     1      -5.759  -3.942  -4.151  0.00  0.00    -0.386 OA
ATOM     35  H   UNL     1      -4.965  -3.507  -4.490  0.00  0.00    +0.210 HD
ENDBRANCH  23  34
ENDBRANCH  21  22
ENDBRANCH   5  21
TORSDOF 10
