REMARK  Name = ZINC54189229
REMARK  4 active torsions:
REMARK  status: ('A' for Active; 'I' for Inactive)
REMARK    1  A    between atoms: C_6  and  S_7
REMARK    2  A    between atoms: S_7  and  N_10
REMARK    3  A    between atoms: C_18  and  S_20
REMARK    4  A    between atoms: S_20  and  N_23
REMARK                            x       y       z     vdW  Elec       q    Type
REMARK                         _______ _______ _______ _____ _____    ______ ____
ROOT
ATOM      1  N   UNL     1      -1.948  -1.147  -1.567  0.00  0.00    -0.203 N 
ATOM      2  C   UNL     1      -2.875  -0.224  -2.235  0.00  0.00    +0.132 C 
ATOM      3  C   UNL     1      -3.896  -1.065  -3.013  0.00  0.00    +0.025 C 
ATOM      4  C   UNL     1      -3.161  -1.857  -4.094  0.00  0.00    +0.039 C 
ATOM      5  C   UNL     1      -1.998  -2.606  -3.500  0.00  0.00    -0.023 A 
ATOM      6  C   UNL     1      -1.436  -2.231  -2.288  0.00  0.00    +0.055 A 
ATOM      7  C   UNL     1      -0.355  -2.938  -1.772  0.00  0.00    +0.027 A 
ATOM      8  C   UNL     1       0.163  -4.012  -2.467  0.00  0.00    +0.030 A 
ATOM      9  C   UNL     1      -0.394  -4.385  -3.676  0.00  0.00    +0.105 A 
ATOM     10  C   UNL     1      -1.477  -3.689  -4.188  0.00  0.00    +0.034 A 
ENDROOT
BRANCH   1  11
ATOM     11  S   UNL     1      -1.512  -0.905   0.012  0.00  0.00    +0.075 S 
ATOM     12  O   UNL     1      -1.220  -2.186   0.554  0.00  0.00    -0.150 OA
ATOM     13  O   UNL     1      -2.492  -0.045   0.577  0.00  0.00    -0.150 OA
BRANCH  11  19
ATOM     14  C   UNL     1      -0.015   1.377   0.009  0.00  0.00    +0.030 A 
ATOM     15  C   UNL     1       1.173   2.083   0.002  0.00  0.00    +0.022 A 
ATOM     16  C   UNL     1       2.380   1.407  -0.013  0.00  0.00    +0.041 A 
ATOM     17  C   UNL     1       2.397   0.023  -0.020  0.00  0.00    +0.022 A 
ATOM     18  C   UNL     1       1.208  -0.682  -0.013  0.00  0.00    +0.030 A 
ATOM     19  C   UNL     1       0.003  -0.005   0.002  0.00  0.00    +0.109 A 
ATOM     20 CL   UNL     1       3.873   2.293  -0.023  0.00  0.00    -0.084 Cl
ENDBRANCH  11  19
ENDBRANCH   1  11
BRANCH   9  21
ATOM     21  S   UNL     1       0.266  -5.758  -4.562  0.00  0.00    +0.056 S 
ATOM     22  O   UNL     1      -0.082  -5.566  -5.926  0.00  0.00    -0.153 OA
ATOM     23  O   UNL     1       1.613  -5.908  -4.133  0.00  0.00    -0.153 OA
BRANCH  21  24
ATOM     24  N   UNL     1      -0.546  -7.107  -4.051  0.00  0.00    -0.204 NA
ATOM     25  H   UNL     1      -1.242  -7.029  -3.379  0.00  0.00    +0.144 HD
ATOM     26  H   UNL     1      -0.327  -7.975  -4.423  0.00  0.00    +0.144 HD
ENDBRANCH  21  24
ENDBRANCH   9  21
TORSDOF 4
