REMARK  Name = ZINC11821092
REMARK  6 active torsions:
REMARK  status: ('A' for Active; 'I' for Inactive)
REMARK    1  A    between atoms: C_1  and  C_2
REMARK    2  A    between atoms: C_7  and  N_8
REMARK    3  A    between atoms: N_11  and  C_14
REMARK    4  A    between atoms: C_21  and  C_23
REMARK    5  A    between atoms: C_26  and  S_28
REMARK    6  A    between atoms: S_28  and  C_29
REMARK                            x       y       z     vdW  Elec       q    Type
REMARK                         _______ _______ _______ _____ _____    ______ ____
ROOT
ATOM      1  C   UNL     1      -0.128   3.696   4.189  0.00  0.00    -0.051 C 
ATOM      2  C   UNL     1       1.253   4.156   4.662  0.00  0.00    -0.012 C 
ATOM      3  C   UNL     1       1.196   5.636   5.048  0.00  0.00    +0.017 C 
ATOM      4  C   UNL     1       0.204   5.821   6.200  0.00  0.00    +0.108 C 
ATOM      5  N   UNL     1      -1.091   5.250   5.806  0.00  0.00    -0.298 N 
ATOM      6  C   UNL     1      -1.135   3.860   5.331  0.00  0.00    +0.093 C 
ATOM      7  C   UNL     1      -2.217   5.986   5.878  0.00  0.00    +0.265 C 
ATOM      8  O   UNL     1      -3.258   5.552   5.422  0.00  0.00    -0.268 OA
ENDROOT
BRANCH   1  12
ATOM      9  N   UNL     1      -0.270   0.093   2.067  0.00  0.00    -0.333 N 
ATOM     10  C   UNL     1      -1.353   0.344   3.030  0.00  0.00    +0.086 C 
ATOM     11  C   UNL     1      -1.391   1.845   3.338  0.00  0.00    -0.059 C 
ATOM     12  N   UNL     1      -0.064   2.284   3.790  0.00  0.00    +0.385 N 
ATOM     13  C   UNL     1       0.911   2.128   2.703  0.00  0.00    -0.059 C 
ATOM     14  C   UNL     1       1.064   0.637   2.366  0.00  0.00    +0.086 C 
ATOM     15  H   UNL     1       0.222   1.726   4.580  0.00  0.00    -0.081 HD
BRANCH   9  22
ATOM     16  C   UNL     1      -1.075   1.492  -0.275  0.00  0.00    +0.045 C 
ATOM     17  C   UNL     1      -0.894  -0.004  -0.262  0.00  0.00    -0.029 A 
ATOM     18  C   UNL     1      -1.115  -0.738  -1.411  0.00  0.00    +0.005 A 
ATOM     19  C   UNL     1      -0.949  -2.110  -1.400  0.00  0.00    +0.000 A 
ATOM     20  C   UNL     1      -0.562  -2.754  -0.239  0.00  0.00    +0.002 A 
ATOM     21  C   UNL     1      -0.339  -2.026   0.914  0.00  0.00    +0.023 A 
ATOM     22  C   UNL     1      -0.499  -0.646   0.904  0.00  0.00    +0.033 A 
ENDBRANCH   9  22
ENDBRANCH   1  12
BRANCH   7  23
ATOM     23  C   UNL     1      -2.188   7.315   6.509  0.00  0.00    +0.134 A 
ATOM     24  C   UNL     1      -3.274   8.150   6.424  0.00  0.00    +0.080 A 
ATOM     25  S   UNL     1      -2.680   9.565   7.341  0.00  0.00    -0.069 S 
ATOM     26  C   UNL     1      -1.065   8.914   7.743  0.00  0.00    +0.135 A 
ATOM     27  N   UNL     1      -1.107   7.724   7.177  0.00  0.00    -0.228 NA
BRANCH  26  28
ATOM     28  S   UNL     1       0.240   9.664   8.660  0.00  0.00    -0.102 S 
ATOM     29  C   UNL     1      -0.426  11.285   9.126  0.00  0.00    +0.092 C 
ENDBRANCH  26  28
ENDBRANCH   7  23
TORSDOF 4
