REMARK  Name = ZINC13735014
REMARK  1 active torsions:
REMARK  status: ('A' for Active; 'I' for Inactive)
REMARK    1  A    between atoms: N_31  and  C_34
REMARK                            x       y       z     vdW  Elec       q    Type
REMARK                         _______ _______ _______ _____ _____    ______ ____
ROOT
ATOM      1  C   UNL     1      -0.214   1.151  -1.502  0.00  0.00    +0.001 A 
ATOM      2  C   UNL     1       0.925   1.920  -1.303  0.00  0.00    +0.002 A 
ATOM      3  C   UNL     1       2.139   1.325  -1.043  0.00  0.00    +0.028 A 
ATOM      4  C   UNL     1       2.228  -0.067  -0.978  0.00  0.00    +0.078 A 
ATOM      5  C   UNL     1       1.067  -0.845  -1.181  0.00  0.00    +0.065 A 
ATOM      6  C   UNL     1      -0.152  -0.223  -1.443  0.00  0.00    +0.015 A 
ATOM      7  C   UNL     1       1.197  -2.305  -1.108  0.00  0.00    +0.266 A 
ATOM      8  O   UNL     1       0.233  -3.030  -1.275  0.00  0.00    -0.267 OA
ATOM      9  N   UNL     1       2.426  -2.824  -0.847  0.00  0.00    -0.262 N 
ATOM     10  C   UNL     1       3.491  -1.993  -0.661  0.00  0.00    +0.143 A 
ATOM     11  N   UNL     1       3.400  -0.696  -0.723  0.00  0.00    -0.231 NA
ATOM     12  C   UNL     1       4.684  -2.877  -0.390  0.00  0.00    +0.120 C 
ATOM     13  C   UNL     1       4.157  -4.281  -0.454  0.00  0.00    +0.005 A 
ATOM     14  C   UNL     1       2.800  -4.172  -0.731  0.00  0.00    +0.057 A 
ATOM     15  C   UNL     1       2.038  -5.332  -0.850  0.00  0.00    +0.026 A 
ATOM     16  C   UNL     1       2.629  -6.569  -0.694  0.00  0.00    +0.002 A 
ATOM     17  C   UNL     1       3.980  -6.666  -0.418  0.00  0.00    +0.000 A 
ATOM     18  C   UNL     1       4.744  -5.518  -0.298  0.00  0.00    +0.008 A 
ATOM     19  C   UNL     1       5.791  -2.641  -1.424  0.00  0.00    +0.121 C 
ATOM     20  C   UNL     1       7.114  -2.774  -0.621  0.00  0.00    +0.107 C 
ATOM     21  C   UNL     1       6.681  -3.092   0.822  0.00  0.00    +0.071 C 
ATOM     22  N   UNL     1       5.276  -2.577   0.925  0.00  0.00    -0.282 NA
ATOM     23  C   UNL     1       5.410  -1.111   1.093  0.00  0.00    +0.086 C 
ATOM     24  C   UNL     1       6.652  -0.918   1.987  0.00  0.00    +0.017 C 
ATOM     25  C   UNL     1       7.502  -2.235   1.801  0.00  0.00    +0.021 C 
ATOM     26  C   UNL     1       7.704  -1.384  -0.688  0.00  0.00    +0.232 C 
ATOM     27  O   UNL     1       8.752  -1.042  -0.182  0.00  0.00    -0.274 OA
ATOM     28  N   UNL     1       6.890  -0.589  -1.392  0.00  0.00    -0.210 N 
ATOM     29  C   UNL     1       5.777  -1.194  -1.865  0.00  0.00    +0.233 C 
ATOM     30  O   UNL     1       4.909  -0.673  -2.530  0.00  0.00    -0.274 OA
ENDROOT
BRANCH  28  31
ATOM     31  C   UNL     1       7.170   0.765  -1.627  0.00  0.00    +0.044 A 
ATOM     32  C   UNL     1       8.241   1.124  -2.435  0.00  0.00    +0.025 A 
ATOM     33  C   UNL     1       8.514   2.458  -2.665  0.00  0.00    +0.022 A 
ATOM     34  C   UNL     1       7.721   3.437  -2.091  0.00  0.00    +0.041 A 
ATOM     35  C   UNL     1       6.653   3.082  -1.286  0.00  0.00    +0.022 A 
ATOM     36  C   UNL     1       6.372   1.749  -1.058  0.00  0.00    +0.025 A 
ATOM     37 CL   UNL     1       8.067   5.113  -2.383  0.00  0.00    -0.084 Cl
ENDBRANCH  28  31
TORSDOF 1
