REMARK  Name = ZINC39324965
REMARK  9 active torsions:
REMARK  status: ('A' for Active; 'I' for Inactive)
REMARK    1  A    between atoms: C_1  and  C_2
REMARK    2  A    between atoms: C_4  and  C_36
REMARK    3  A    between atoms: C_5  and  S_9
REMARK    4  A    between atoms: C_6  and  C_8
REMARK    5  A    between atoms: S_9  and  N_12
REMARK    6  A    between atoms: N_12  and  C_13
REMARK    7  A    between atoms: N_12  and  C_19
REMARK    8  A    between atoms: C_13  and  C_14
REMARK    9  A    between atoms: C_19  and  C_20
REMARK                            x       y       z     vdW  Elec       q    Type
REMARK                         _______ _______ _______ _____ _____    ______ ____
ROOT
ATOM      1  N   UNL     1       0.508  -5.460   0.333  0.00  0.00    -0.171 NA
ENDROOT
BRANCH   1   2
ATOM      2  S   UNL     1      -0.818  -4.512   0.038  0.00  0.00    +0.062 S 
ATOM      3  O   UNL     1      -1.750  -4.785   1.075  0.00  0.00    -0.153 OA
ATOM      4  O   UNL     1      -1.138  -4.677  -1.336  0.00  0.00    -0.153 OA
BRANCH   2   9
ATOM      5  C   UNL     1       0.907   1.228   0.733  0.00  0.00    +0.044 C 
ATOM      6  C   UNL     1       0.476  -0.206   0.560  0.00  0.00    -0.050 A 
ATOM      7  C   UNL     1      -0.053  -0.903   1.630  0.00  0.00    +0.008 A 
ATOM      8  C   UNL     1      -0.449  -2.218   1.470  0.00  0.00    -0.024 A 
ATOM      9  C   UNL     1      -0.315  -2.836   0.241  0.00  0.00    +0.111 A 
ATOM     10  C   UNL     1       0.213  -2.139  -0.829  0.00  0.00    -0.024 A 
ATOM     11  C   UNL     1       0.605  -0.822  -0.671  0.00  0.00    +0.008 A 
ATOM     12  C   UNL     1       0.359  -2.812  -2.169  0.00  0.00    +0.046 C 
ATOM     13  C   UNL     1      -1.025  -2.978   2.637  0.00  0.00    +0.046 C 
ENDBRANCH   2   9
ENDBRANCH   1   2
BRANCH   1  14
ATOM     14  C   UNL     1       0.796  -5.914   1.695  0.00  0.00    +0.151 C 
BRANCH  14  15
ATOM     15  C   UNL     1       0.216  -7.290   1.900  0.00  0.00    +0.005 A 
ATOM     16  C   UNL     1       0.792  -8.498   1.688  0.00  0.00    +0.012 A 
ATOM     17  C   UNL     1       0.062  -9.643   1.948  0.00  0.00    +0.008 A 
ATOM     18  C   UNL     1      -1.207  -9.523   2.409  0.00  0.00    +0.045 A 
ATOM     19  S   UNL     1      -1.403  -7.750   2.493  0.00  0.00    -0.100 S 
ENDBRANCH  14  15
ENDBRANCH   1  14
BRANCH   1  20
ATOM     20  C   UNL     1       1.392  -5.845  -0.770  0.00  0.00    +0.126 C 
BRANCH  20  21
ATOM     21  C   UNL     1       2.808  -5.338  -0.489  0.00  0.00    +0.114 C 
ATOM     22  C   UNL     1       3.709  -5.836  -1.601  0.00  0.00    -0.003 C 
ATOM     23  C   UNL     1       4.384  -4.902  -2.325  0.00  0.00    -0.003 A 
ATOM     24  C   UNL     1       5.276  -5.299  -3.415  0.00  0.00    +0.059 A 
ATOM     25  C   UNL     1       5.936  -4.341  -4.120  0.00  0.00    +0.163 A 
ATOM     26  C   UNL     1       5.773  -2.974  -3.821  0.00  0.00    +0.164 A 
ATOM     27  C   UNL     1       4.946  -2.548  -2.800  0.00  0.00    +0.073 A 
ATOM     28  C   UNL     1       4.229  -3.467  -2.023  0.00  0.00    +0.044 A 
ATOM     29  N   UNL     1       3.435  -3.033  -1.042  0.00  0.00    -0.284 N 
ATOM     30  C   UNL     1       2.731  -3.843  -0.273  0.00  0.00    +0.225 C 
ATOM     31  O   UNL     1       2.023  -3.389   0.606  0.00  0.00    -0.275 OA
ATOM     32  O   UNL     1       6.434  -2.031  -4.545  0.00  0.00    -0.485 OA
ATOM     33  C   UNL     1       7.553  -2.475  -5.316  0.00  0.00    +0.270 C 
ATOM     34  C   UNL     1       7.139  -3.739  -6.083  0.00  0.00    +0.270 C 
ATOM     35  O   UNL     1       6.764  -4.737  -5.129  0.00  0.00    -0.485 OA
ATOM     36  H   UNL     1       3.372  -2.077  -0.887  0.00  0.00    +0.155 HD
ENDBRANCH  20  21
ENDBRANCH   1  20
TORSDOF 6
