REMARK  Name = ZINC09670099
REMARK  10 active torsions:
REMARK  status: ('A' for Active; 'I' for Inactive)
REMARK    1  A    between atoms: C_1  and  C_2
REMARK    2  A    between atoms: C_2  and  C_3
REMARK    3  A    between atoms: C_8  and  N_9
REMARK    4  A    between atoms: C_12  and  C_17
REMARK    5  A    between atoms: C_17  and  S_18
REMARK    6  A    between atoms: S_18  and  C_19
REMARK    7  A    between atoms: C_23  and  S_30
REMARK    8  A    between atoms: N_27  and  C_28
REMARK    9  A    between atoms: C_28  and  C_29
REMARK   10  A    between atoms: S_30  and  N_33
REMARK                            x       y       z     vdW  Elec       q    Type
REMARK                         _______ _______ _______ _____ _____    ______ ____
ROOT
ATOM      1  N   UNL     1      -8.683   4.126  -0.493  0.00  0.00    -0.283 N 
ATOM      2  C   UNL     1      -7.504   4.259  -1.202  0.00  0.00    +0.224 A 
ATOM      3  N   UNL     1      -6.363   4.498  -0.559  0.00  0.00    -0.198 NA
ATOM      4  C   UNL     1      -5.236   4.624  -1.236  0.00  0.00    +0.146 A 
ATOM      5  N   UNL     1      -5.236   4.519  -2.553  0.00  0.00    -0.199 NA
ATOM      6  C   UNL     1      -6.372   4.275  -3.202  0.00  0.00    +0.217 A 
ATOM      7  N   UNL     1      -7.508   4.147  -2.525  0.00  0.00    -0.181 NA
ATOM      8  N   UNL     1      -6.371   4.160  -4.578  0.00  0.00    -0.327 N 
ATOM      9  H   UNL     1      -8.668   4.122   0.477  0.00  0.00    +0.155 HD
ATOM     10  H   UNL     1      -7.200   3.986  -5.051  0.00  0.00    +0.145 HD
ATOM     11  H   UNL     1      -5.541   4.253  -5.071  0.00  0.00    +0.145 HD
ENDROOT
BRANCH   1  17
ATOM     12  C   UNL     1     -10.976   3.374  -0.561  0.00  0.00    -0.026 A 
ATOM     13  C   UNL     1     -12.175   3.249  -1.236  0.00  0.00    +0.005 A 
ATOM     14  C   UNL     1     -12.301   3.744  -2.521  0.00  0.00    +0.000 A 
ATOM     15  C   UNL     1     -11.228   4.366  -3.135  0.00  0.00    +0.002 A 
ATOM     16  C   UNL     1     -10.029   4.499  -2.463  0.00  0.00    +0.023 A 
ATOM     17  C   UNL     1      -9.897   3.998  -1.174  0.00  0.00    +0.037 A 
BRANCH  12  19
ATOM     18  C   UNL     1     -11.104   3.955   1.846  0.00  0.00    +0.009 C 
ATOM     19  C   UNL     1     -10.840   2.834   0.839  0.00  0.00    +0.033 C 
ENDBRANCH  12  19
ENDBRANCH   1  17
BRANCH   4  20
ATOM     20  C   UNL     1      -3.946   4.895  -0.504  0.00  0.00    +0.153 C 
BRANCH  20  21
ATOM     21  S   UNL     1      -3.158   3.325  -0.070  0.00  0.00    -0.080 S 
BRANCH  21  22
ATOM     22  C   UNL     1      -1.717   3.922   0.750  0.00  0.00    +0.170 A 
ATOM     23  N   UNL     1      -1.421   5.186   0.927  0.00  0.00    -0.222 NA
ATOM     24  C   UNL     1      -0.242   5.290   1.595  0.00  0.00    +0.092 A 
ATOM     25  C   UNL     1       0.519   6.375   2.035  0.00  0.00    +0.058 A 
ATOM     26  C   UNL     1       1.695   6.154   2.716  0.00  0.00    +0.107 A 
ATOM     27  C   UNL     1       2.136   4.862   2.958  0.00  0.00    +0.030 A 
ATOM     28  C   UNL     1       1.398   3.779   2.526  0.00  0.00    +0.030 A 
ATOM     29  C   UNL     1       0.207   3.983   1.845  0.00  0.00    +0.070 A 
ATOM     30  N   UNL     1      -0.741   3.136   1.295  0.00  0.00    -0.319 N 
BRANCH  26  31
ATOM     31  S   UNL     1       2.653   7.524   3.275  0.00  0.00    +0.056 S 
ATOM     32  O   UNL     1       1.757   8.619   3.406  0.00  0.00    -0.153 OA
ATOM     33  O   UNL     1       3.443   7.052   4.358  0.00  0.00    -0.153 OA
BRANCH  31  34
ATOM     34  N   UNL     1       3.704   7.916   2.058  0.00  0.00    -0.204 NA
ATOM     35  H   UNL     1       3.999   8.834   1.948  0.00  0.00    +0.144 HD
ATOM     36  H   UNL     1       4.026   7.228   1.454  0.00  0.00    +0.144 HD
ENDBRANCH  31  34
ENDBRANCH  26  31
BRANCH  30  37
ATOM     37  C   UNL     1      -0.708   1.672   1.303  0.00  0.00    +0.121 C 
ATOM     38  C   UNL     1       0.015   1.172   0.050  0.00  0.00    +0.027 C 
ENDBRANCH  30  37
ENDBRANCH  21  22
ENDBRANCH  20  21
ENDBRANCH   4  20
TORSDOF 8
