REMARK  Name = ZINC46312291
REMARK  9 active torsions:
REMARK  status: ('A' for Active; 'I' for Inactive)
REMARK    1  A    between atoms: C_1  and  C_2
REMARK    2  A    between atoms: C_2  and  C_3
REMARK    3  A    between atoms: C_3  and  C_5
REMARK    4  A    between atoms: C_3  and  N_19
REMARK    5  A    between atoms: C_5  and  N_6
REMARK    6  A    between atoms: N_9  and  N_10
REMARK    7  A    between atoms: N_10  and  C_11
REMARK    8  A    between atoms: C_11  and  N_13
REMARK    9  A    between atoms: N_13  and  C_14
REMARK                            x       y       z     vdW  Elec       q    Type
REMARK                         _______ _______ _______ _____ _____    ______ ____
ROOT
ATOM      1  N   UNL     1       1.576  -2.609   2.258  0.00  0.00    -0.300 N 
ATOM      2  C   UNL     1       1.744  -3.942   2.367  0.00  0.00    +0.316 C 
ATOM      3  O   UNL     1       1.246  -4.686   1.545  0.00  0.00    -0.251 OA
ATOM      4  N   UNL     1       2.463  -4.449   3.388  0.00  0.00    -0.219 N 
ATOM      5  H   UNL     1       1.974  -2.015   2.913  0.00  0.00    +0.150 HD
ATOM      6  H   UNL     1       2.584  -5.408   3.466  0.00  0.00    +0.174 HD
ENDROOT
BRANCH   4   7
ATOM      7  N   UNL     1       3.037  -3.591   4.335  0.00  0.00    -0.245 N 
ATOM      8  H   UNL     1       2.917  -2.631   4.256  0.00  0.00    +0.172 HD
BRANCH   7   9
ATOM      9  C   UNL     1       3.757  -4.098   5.355  0.00  0.00    +0.147 C 
ATOM     10  S   UNL     1       4.458  -3.049   6.513  0.00  0.00    -0.017 S 
BRANCH   9  11
ATOM     11  N   UNL     1       3.924  -5.431   5.465  0.00  0.00    -0.323 N 
ATOM     12  H   UNL     1       3.527  -6.025   4.809  0.00  0.00    +0.148 HD
BRANCH  11  13
ATOM     13  C   UNL     1       4.706  -5.982   6.574  0.00  0.00    +0.072 C 
ATOM     14  C   UNL     1       6.199  -6.045   6.188  0.00  0.00    +0.022 C 
ATOM     15  C   UNL     1       6.704  -7.357   6.838  0.00  0.00    +0.002 C 
ATOM     16  C   UNL     1       5.505  -8.319   6.642  0.00  0.00    +0.002 C 
ATOM     17  C   UNL     1       4.265  -7.428   6.862  0.00  0.00    +0.022 C 
ENDBRANCH  11  13
ENDBRANCH   9  11
ENDBRANCH   7   9
ENDBRANCH   4   7
BRANCH   1  18
ATOM     18  C   UNL     1       0.794  -2.058   1.148  0.00  0.00    +0.090 C 
BRANCH  18  19
ATOM     19  C   UNL     1       0.883  -0.530   1.171  0.00  0.00    -0.051 C 
BRANCH  19  20
ATOM     20  N   UNL     1       2.210  -0.110   0.699  0.00  0.00    +0.385 N 
ATOM     21  C   UNL     1       2.487  -0.730  -0.606  0.00  0.00    -0.073 C 
ATOM     22  C   UNL     1       3.714  -0.052  -1.217  0.00  0.00    +0.017 C 
ATOM     23  C   UNL     1       4.839  -0.034  -0.214  0.00  0.00    -0.048 A 
ATOM     24  C   UNL     1       6.127   0.214  -0.664  0.00  0.00    +0.004 A 
ATOM     25  C   UNL     1       7.182   0.242   0.226  0.00  0.00    +0.000 A 
ATOM     26  C   UNL     1       6.954   0.021   1.571  0.00  0.00    +0.000 A 
ATOM     27  C   UNL     1       5.672  -0.227   2.020  0.00  0.00    +0.002 A 
ATOM     28  C   UNL     1       4.611  -0.257   1.127  0.00  0.00    -0.061 A 
ATOM     29  C   UNL     1       3.231  -0.541   1.659  0.00  0.00    -0.042 C 
ATOM     30  H   UNL     1       2.233   0.894   0.609  0.00  0.00    -0.081 HD
ENDBRANCH  19  20
BRANCH  19  32
ATOM     31  C   UNL     1      -0.154   1.584   0.338  0.00  0.00    +0.002 C 
ATOM     32  C   UNL     1      -0.193   0.057   0.256  0.00  0.00    -0.017 C 
ENDBRANCH  19  32
ENDBRANCH  18  19
ENDBRANCH   1  18
TORSDOF 8
