REMARK  Name = ZINC09442933
REMARK  10 active torsions:
REMARK  status: ('A' for Active; 'I' for Inactive)
REMARK    1  A    between atoms: C_1  and  C_2
REMARK    2  A    between atoms: C_2  and  C_3
REMARK    3  A    between atoms: C_4  and  C_31
REMARK    4  A    between atoms: C_6  and  C_8
REMARK    5  A    between atoms: N_10  and  N_11
REMARK    6  A    between atoms: C_12  and  C_14
REMARK    7  A    between atoms: C_14  and  N_15
REMARK    8  A    between atoms: C_20  and  C_27
REMARK    9  A    between atoms: C_23  and  C_25
REMARK   10  A    between atoms: C_23  and  C_26
REMARK                            x       y       z     vdW  Elec       q    Type
REMARK                         _______ _______ _______ _____ _____    ______ ____
ROOT
ATOM      1  C   UNL     1       1.459   3.094   0.755  0.00  0.00    +0.215 C 
ENDROOT
BRANCH   1   2
ATOM      2  N   UNL     1       1.180   1.670   0.558  0.00  0.00    -0.215 N 
ATOM      3  C   UNL     1       2.131   0.719   0.447  0.00  0.00    +0.247 C 
ATOM      4  O   UNL     1       3.332   0.874   0.489  0.00  0.00    -0.273 OA
ATOM      5  C   UNL     1       1.382  -0.580   0.258  0.00  0.00    +0.113 C 
ATOM      6  C   UNL     1       1.690  -1.543   1.400  0.00  0.00    +0.038 C 
ATOM      7  C   UNL     1       0.894  -2.837   1.206  0.00  0.00    -0.011 C 
ATOM      8  C   UNL     1       1.272  -3.470  -0.134  0.00  0.00    +0.009 C 
ATOM      9  C   UNL     1       0.938  -2.502  -1.271  0.00  0.00    -0.032 C 
ATOM     10  C   UNL     1       1.734  -1.207  -1.086  0.00  0.00    +0.041 C 
ATOM     11  C   UNL     1      -0.559  -2.188  -1.250  0.00  0.00    +0.011 C 
ATOM     12  C   UNL     1       1.307  -3.142  -2.611  0.00  0.00    +0.011 C 
ATOM     13  C   UNL     1       1.220  -3.810   2.341  0.00  0.00    +0.007 C 
ATOM     14  N   UNL     1      -0.032  -0.185   0.287  0.00  0.00    -0.285 N 
ATOM     15  C   UNL     1      -0.050   1.150   0.466  0.00  0.00    +0.310 C 
ATOM     16  O   UNL     1      -1.069   1.809   0.532  0.00  0.00    -0.252 OA
ATOM     17  H   UNL     1      -0.801  -0.769   0.194  0.00  0.00    +0.151 HD
ENDBRANCH   1   2
BRANCH   1  19
ATOM     18  N   UNL     1       1.779   4.648   2.653  0.00  0.00    -0.233 N 
ATOM     19  C   UNL     1       1.530   3.393   2.231  0.00  0.00    +0.247 C 
ATOM     20  O   UNL     1       1.365   2.503   3.038  0.00  0.00    -0.273 OA
ATOM     21  H   UNL     1       1.911   5.360   2.007  0.00  0.00    +0.173 HD
BRANCH  18  24
ATOM     22  C   UNL     1       2.094   6.181   4.447  0.00  0.00    +0.267 C 
ATOM     23  O   UNL     1       2.260   7.074   3.637  0.00  0.00    -0.268 OA
ATOM     24  N   UNL     1       1.845   4.926   4.025  0.00  0.00    -0.230 N 
ATOM     25  H   UNL     1       1.712   4.214   4.670  0.00  0.00    +0.173 HD
BRANCH  22  29
ATOM     26  C   UNL     1       2.195   6.503   8.550  0.00  0.00    -0.007 A 
ATOM     27  C   UNL     1       2.416   7.671   7.891  0.00  0.00    -0.040 A 
ATOM     28  C   UNL     1       2.410   7.678   6.519  0.00  0.00    +0.024 A 
ATOM     29  C   UNL     1       2.163   6.471   5.882  0.00  0.00    +0.076 A 
ATOM     30  S   UNL     1       1.960   5.362   7.265  0.00  0.00    -0.088 S 
ATOM     31  C   UNL     1       2.671   8.942   8.659  0.00  0.00    +0.044 C 
BRANCH  26  33
ATOM     32  C   UNL     1       0.735   6.451  10.553  0.00  0.00    +0.009 C 
ATOM     33  C   UNL     1       2.162   6.258  10.036  0.00  0.00    +0.039 C 
ENDBRANCH  26  33
ENDBRANCH  22  29
ENDBRANCH  18  24
ENDBRANCH   1  19
TORSDOF 5
