REMARK  Name = ZINC09123800
REMARK  4 active torsions:
REMARK  status: ('A' for Active; 'I' for Inactive)
REMARK    1  A    between atoms: C_1  and  C_2
REMARK    2  A    between atoms: N_5  and  C_7
REMARK    3  A    between atoms: C_18  and  C_23
REMARK    4  A    between atoms: C_24  and  C_26
REMARK                            x       y       z     vdW  Elec       q    Type
REMARK                         _______ _______ _______ _____ _____    ______ ____
ROOT
ATOM      1  C   UNL     1      -0.013   1.086   0.008  0.00  0.00    +0.068 C 
ATOM      2  C   UNL     1      -0.718   1.572   1.248  0.00  0.00    +0.068 A 
ATOM      3  C   UNL     1      -0.120   1.845   2.470  0.00  0.00    +0.049 A 
ATOM      4  C   UNL     1      -1.091   2.261   3.337  0.00  0.00    +0.230 A 
ATOM      5  N   UNL     1      -2.265   2.246   2.667  0.00  0.00    -0.200 N 
ATOM      6  N   UNL     1      -2.003   1.816   1.356  0.00  0.00    -0.168 NA
ATOM      7  O   UNL     1      -0.831   2.606   4.620  0.00  0.00    -0.419 OA
ATOM      8  C   UNL     1       0.369   2.252   5.153  0.00  0.00    +0.231 A 
ATOM      9  C   UNL     1       1.412   1.834   4.372  0.00  0.00    +0.071 A 
ATOM     10  C   UNL     1       2.601   1.489   5.038  0.00  0.00    +0.167 A 
ATOM     11  N   UNL     1       3.767   1.058   4.617  0.00  0.00    -0.211 NA
ATOM     12  C   UNL     1       4.576   0.874   5.659  0.00  0.00    +0.149 A 
ATOM     13  N   UNL     1       3.945   1.183   6.772  0.00  0.00    -0.149 NA
ATOM     14  N   UNL     1       2.666   1.586   6.416  0.00  0.00    -0.201 N 
ATOM     15  C   UNL     1       1.597   2.011   7.134  0.00  0.00    +0.229 A 
ATOM     16  N   UNL     1       0.501   2.325   6.489  0.00  0.00    -0.201 NA
ATOM     17  C   UNL     1       5.999   0.385   5.576  0.00  0.00    +0.090 C 
ATOM     18  C   UNL     1       1.327   1.735   2.874  0.00  0.00    +0.095 C 
ENDROOT
BRANCH  18  19
ATOM     19  C   UNL     1       2.115   2.856   2.247  0.00  0.00    -0.035 A 
ATOM     20  C   UNL     1       1.787   4.170   2.524  0.00  0.00    +0.006 A 
ATOM     21  C   UNL     1       2.513   5.199   1.953  0.00  0.00    +0.020 A 
ATOM     22  C   UNL     1       3.559   4.913   1.095  0.00  0.00    +0.041 A 
ATOM     23  C   UNL     1       3.883   3.598   0.813  0.00  0.00    +0.020 A 
ATOM     24  C   UNL     1       3.161   2.570   1.389  0.00  0.00    +0.006 A 
ATOM     25 CL   UNL     1       4.466   6.205   0.372  0.00  0.00    -0.084 Cl
ENDBRANCH  18  19
BRANCH   5  26
ATOM     26  C   UNL     1      -3.518   2.602   3.185  0.00  0.00    +0.069 A 
ATOM     27  C   UNL     1      -3.830   2.317   4.507  0.00  0.00    +0.028 A 
ATOM     28  C   UNL     1      -5.063   2.673   5.016  0.00  0.00    +0.002 A 
ATOM     29  C   UNL     1      -5.990   3.304   4.208  0.00  0.00    +0.000 A 
ATOM     30  C   UNL     1      -5.684   3.584   2.889  0.00  0.00    +0.002 A 
ATOM     31  C   UNL     1      -4.451   3.235   2.375  0.00  0.00    +0.028 A 
ENDBRANCH   5  26
TORSDOF 2
