REMARK  Name = ZINC18258237
REMARK  8 active torsions:
REMARK  status: ('A' for Active; 'I' for Inactive)
REMARK    1  A    between atoms: C_1  and  C_2
REMARK    2  A    between atoms: C_2  and  N_3
REMARK    3  A    between atoms: N_12  and  C_13
REMARK    4  A    between atoms: C_13  and  C_15
REMARK    5  A    between atoms: C_18  and  S_21
REMARK    6  A    between atoms: S_21  and  N_24
REMARK    7  A    between atoms: C_26  and  C_33
REMARK    8  A    between atoms: C_29  and  C_32
REMARK                            x       y       z     vdW  Elec       q    Type
REMARK                         _______ _______ _______ _____ _____    ______ ____
ROOT
ATOM      1  C   UNL     1      -1.804   0.907  -5.683  0.00  0.00    +0.039 A 
ATOM      2  C   UNL     1      -0.466   0.555  -5.860  0.00  0.00    +0.015 A 
ATOM      3  C   UNL     1       0.195  -0.152  -4.877  0.00  0.00    +0.029 A 
ATOM      4  C   UNL     1      -0.466  -0.511  -3.716  0.00  0.00    +0.106 A 
ATOM      5  C   UNL     1      -1.795  -0.169  -3.536  0.00  0.00    +0.029 A 
ATOM      6  C   UNL     1      -2.465   0.542  -4.510  0.00  0.00    +0.015 A 
ENDROOT
BRANCH   4   7
ATOM      7  S   UNL     1       0.384  -1.414  -2.465  0.00  0.00    +0.061 S 
ATOM      8  O   UNL     1       1.456  -2.089  -3.109  0.00  0.00    -0.153 OA
ATOM      9  O   UNL     1      -0.608  -2.102  -1.715  0.00  0.00    -0.153 OA
BRANCH   7  10
ATOM     10  N   UNL     1       1.069  -0.307  -1.441  0.00  0.00    -0.176 NA
ATOM     11  C   UNL     1       0.330   0.187  -0.271  0.00  0.00    +0.112 C 
ATOM     12  C   UNL     1       0.310   1.718  -0.310  0.00  0.00    +0.002 C 
ATOM     13  C   UNL     1       1.745   2.240  -0.414  0.00  0.00    +0.009 C 
ATOM     14  C   UNL     1       2.382   1.732  -1.710  0.00  0.00    +0.002 C 
ATOM     15  C   UNL     1       2.425   0.201  -1.686  0.00  0.00    +0.112 C 
ATOM     16  C   UNL     1       3.805   2.281  -1.829  0.00  0.00    +0.009 C 
ATOM     17  C   UNL     1      -0.336   2.254   0.969  0.00  0.00    +0.009 C 
ENDBRANCH   7  10
ENDBRANCH   4   7
BRANCH   1  18
ATOM     18  C   UNL     1      -2.519   1.665  -6.735  0.00  0.00    +0.269 C 
ATOM     19  O   UNL     1      -1.939   1.982  -7.759  0.00  0.00    -0.268 OA
BRANCH  18  29
ATOM     20  N   UNL     1      -5.735   3.108  -7.508  0.00  0.00    -0.321 N 
ATOM     21  C   UNL     1      -6.231   3.810  -8.591  0.00  0.00    +0.058 A 
ATOM     22  C   UNL     1      -7.523   4.328  -8.775  0.00  0.00    +0.027 A 
ATOM     23  C   UNL     1      -7.850   5.007  -9.924  0.00  0.00    +0.002 A 
ATOM     24  C   UNL     1      -6.921   5.203 -10.932  0.00  0.00    +0.001 A 
ATOM     25  C   UNL     1      -5.640   4.703 -10.777  0.00  0.00    +0.017 A 
ATOM     26  C   UNL     1      -5.312   4.023  -9.628  0.00  0.00    +0.039 A 
ATOM     27  S   UNL     1      -3.833   3.245  -9.028  0.00  0.00    -0.052 S 
ATOM     28  C   UNL     1      -4.443   2.681  -7.506  0.00  0.00    +0.167 A 
ATOM     29  N   UNL     1      -3.801   2.001  -6.562  0.00  0.00    -0.152 NA
BRANCH  20  31
ATOM     30  C   UNL     1      -6.273   1.436  -5.806  0.00  0.00    +0.027 C 
ATOM     31  C   UNL     1      -6.601   2.823  -6.361  0.00  0.00    +0.121 C 
ENDBRANCH  20  31
ENDBRANCH  18  29
ENDBRANCH   1  18
TORSDOF 5
