REMARK  Name = ZINC63137288
REMARK  5 active torsions:
REMARK  status: ('A' for Active; 'I' for Inactive)
REMARK    1  A    between atoms: C_1  and  O_2
REMARK    2  A    between atoms: O_2  and  C_3
REMARK    3  A    between atoms: C_6  and  C_9
REMARK    4  A    between atoms: C_9  and  N_10
REMARK    5  A    between atoms: C_30  and  C_32
REMARK                            x       y       z     vdW  Elec       q    Type
REMARK                         _______ _______ _______ _____ _____    ______ ____
ROOT
ATOM      1  N   UNL     1      -5.423  -2.855  -1.343  0.00  0.00    -0.287 N 
ATOM      2  C   UNL     1      -6.237  -1.861  -2.068  0.00  0.00    +0.204 C 
ATOM      3  C   UNL     1      -7.375  -2.583  -2.757  0.00  0.00    +0.234 C 
ATOM      4  O   UNL     1      -8.507  -2.148  -2.737  0.00  0.00    -0.274 OA
ATOM      5  N   UNL     1      -7.066  -3.753  -3.407  0.00  0.00    -0.279 N 
ATOM      6  C   UNL     1      -5.663  -4.106  -3.417  0.00  0.00    +0.167 C 
ATOM      7  C   UNL     1      -5.098  -3.995  -2.023  0.00  0.00    +0.237 C 
ATOM      8  O   UNL     1      -4.402  -4.861  -1.536  0.00  0.00    -0.274 OA
ATOM      9  C   UNL     1      -5.252  -5.384  -4.101  0.00  0.00    +0.065 C 
ATOM     10  C   UNL     1      -6.472  -6.184  -4.466  0.00  0.00    -0.034 C 
ATOM     11  C   UNL     1      -6.736  -7.482  -4.404  0.00  0.00    -0.001 A 
ATOM     12  C   UNL     1      -5.912  -8.631  -3.996  0.00  0.00    +0.010 A 
ATOM     13  C   UNL     1      -6.513  -9.849  -4.048  0.00  0.00    +0.001 A 
ATOM     14  C   UNL     1      -7.835 -10.037  -4.462  0.00  0.00    +0.002 A 
ATOM     15  C   UNL     1      -8.664  -9.039  -4.857  0.00  0.00    +0.026 A 
ATOM     16  C   UNL     1      -8.144  -7.711  -4.848  0.00  0.00    +0.043 A 
ATOM     17  N   UNL     1      -8.704  -6.588  -5.182  0.00  0.00    -0.375 N 
ATOM     18  C   UNL     1      -7.724  -5.507  -5.020  0.00  0.00    +0.131 C 
ATOM     19  C   UNL     1      -8.177  -4.516  -3.959  0.00  0.00    +0.133 C 
ATOM     20  H   UNL     1      -9.619  -6.481  -5.487  0.00  0.00    +0.160 HD
ENDROOT
BRANCH  19  21
ATOM     21  C   UNL     1      -9.188  -3.560  -4.539  0.00  0.00    -0.025 A 
ATOM     22  C   UNL     1      -8.763  -2.449  -5.244  0.00  0.00    +0.007 A 
ATOM     23  C   UNL     1      -9.690  -1.573  -5.776  0.00  0.00    +0.020 A 
ATOM     24  C   UNL     1     -11.042  -1.808  -5.604  0.00  0.00    +0.041 A 
ATOM     25  C   UNL     1     -11.466  -2.920  -4.900  0.00  0.00    +0.020 A 
ATOM     26  C   UNL     1     -10.539  -3.799  -4.372  0.00  0.00    +0.007 A 
ATOM     27 CL   UNL     1     -12.207  -0.707  -6.272  0.00  0.00    -0.084 Cl
ENDBRANCH  19  21
BRANCH   1  28
ATOM     28  C   UNL     1      -4.981  -2.629   0.035  0.00  0.00    +0.143 C 
BRANCH  28  32
ATOM     29  C   UNL     1      -1.200  -0.637   0.010  0.00  0.00    +0.120 A 
ATOM     30  C   UNL     1      -2.375   0.101   0.019  0.00  0.00    +0.046 A 
ATOM     31  C   UNL     1      -3.596  -0.545   0.027  0.00  0.00    +0.009 A 
ATOM     32  C   UNL     1      -3.648  -1.927   0.026  0.00  0.00    -0.030 A 
ATOM     33  C   UNL     1      -2.479  -2.665   0.017  0.00  0.00    +0.009 A 
ATOM     34  C   UNL     1      -1.255  -2.024   0.003  0.00  0.00    +0.046 A 
BRANCH  29  36
ATOM     35  C   UNL     1      -0.017   1.425   0.010  0.00  0.00    +0.277 C 
ATOM     36  O   UNL     1       0.002  -0.004   0.002  0.00  0.00    -0.495 OA
ENDBRANCH  29  36
ENDBRANCH  28  32
ENDBRANCH   1  28
TORSDOF 4
