REMARK  Name = ZINC18418444
REMARK  19 active torsions:
REMARK  status: ('A' for Active; 'I' for Inactive)
REMARK    1  A    between atoms: C_1  and  C_2
REMARK    2  A    between atoms: C_2  and  C_4
REMARK    3  A    between atoms: C_2  and  N_10
REMARK    4  A    between atoms: C_4  and  C_5
REMARK    5  A    between atoms: C_5  and  C_6
REMARK    6  A    between atoms: C_6  and  C_7
REMARK    7  A    between atoms: C_7  and  C_8
REMARK    8  A    between atoms: C_7  and  C_9
REMARK    9  A    between atoms: C_11  and  C_13
REMARK   10  A    between atoms: C_13  and  O_14
REMARK   11  A    between atoms: O_14  and  C_15
REMARK   12  A    between atoms: C_15  and  C_17
REMARK   13  A    between atoms: C_17  and  C_19
REMARK   14  A    between atoms: C_17  and  N_22
REMARK   15  A    between atoms: C_19  and  C_20
REMARK   16  A    between atoms: C_19  and  C_21
REMARK   17  A    between atoms: C_23  and  C_25
REMARK   18  A    between atoms: C_28  and  O_31
REMARK   19  A    between atoms: O_31  and  C_32
REMARK                            x       y       z     vdW  Elec       q    Type
REMARK                         _______ _______ _______ _____ _____    ______ ____
ROOT
ATOM      1  C   UNL     1      -5.220  -1.657  -2.637  0.00  0.00    +0.328 C 
ATOM      2  O   UNL     1      -5.873  -1.995  -1.678  0.00  0.00    -0.249 OA
ENDROOT
BRANCH   1   3
ATOM      3  O   UNL     1      -3.965  -1.212  -2.472  0.00  0.00    -0.454 OA
BRANCH   3   4
ATOM      4  C   UNL     1      -3.465  -1.164  -1.134  0.00  0.00    +0.327 C 
BRANCH   4   6
ATOM      5  N   UNL     1      -1.372  -0.511   0.012  0.00  0.00    -0.310 N 
ATOM      6  C   UNL     1      -2.051  -0.643  -1.145  0.00  0.00    +0.251 C 
ATOM      7  O   UNL     1      -1.524  -0.341  -2.194  0.00  0.00    -0.272 OA
ATOM      8  H   UNL     1      -1.794  -0.752   0.852  0.00  0.00    +0.149 HD
BRANCH   5  10
ATOM      9  C   UNL     1      -0.019   1.526   0.010  0.00  0.00    +0.028 C 
ATOM     10  C   UNL     1       0.002  -0.004   0.002  0.00  0.00    +0.070 C 
BRANCH  10  11
ATOM     11  C   UNL     1       0.742  -0.511   1.242  0.00  0.00    +0.022 C 
BRANCH  11  12
ATOM     12  C   UNL     1       0.872  -2.034   1.171  0.00  0.00    +0.002 C 
BRANCH  12  13
ATOM     13  C   UNL     1       1.612  -2.541   2.410  0.00  0.00    +0.003 C 
BRANCH  13  14
ATOM     14  C   UNL     1       1.742  -4.063   2.340  0.00  0.00    -0.017 C 
ATOM     15  C   UNL     1       2.589  -4.558   3.514  0.00  0.00    +0.007 C 
ATOM     16  C   UNL     1       0.351  -4.698   2.411  0.00  0.00    +0.007 C 
ENDBRANCH  13  14
ENDBRANCH  12  13
ENDBRANCH  11  12
ENDBRANCH  10  11
ENDBRANCH   5  10
ENDBRANCH   4   6
ENDBRANCH   3   4
ENDBRANCH   1   3
BRANCH   1  17
ATOM     17  C   UNL     1      -5.816  -1.735  -4.019  0.00  0.00    +0.185 C 
BRANCH  17  18
ATOM     18  N   UNL     1      -7.186  -2.248  -3.933  0.00  0.00    -0.298 N 
ATOM     19  C   UNL     1      -7.740  -2.872  -4.991  0.00  0.00    +0.245 C 
ATOM     20  O   UNL     1      -7.103  -3.009  -6.018  0.00  0.00    -0.270 OA
ATOM     21  H   UNL     1      -7.693  -2.139  -3.114  0.00  0.00    +0.150 HD
BRANCH  19  22
ATOM     22  C   UNL     1      -9.119  -3.389  -4.904  0.00  0.00    +0.037 A 
ATOM     23  C   UNL     1      -9.855  -3.228  -3.727  0.00  0.00    +0.016 A 
ATOM     24  C   UNL     1     -11.142  -3.711  -3.649  0.00  0.00    +0.046 A 
ATOM     25  C   UNL     1     -11.710  -4.359  -4.740  0.00  0.00    +0.120 A 
ATOM     26  C   UNL     1     -10.981  -4.522  -5.912  0.00  0.00    +0.046 A 
ATOM     27  C   UNL     1      -9.696  -4.036  -6.000  0.00  0.00    +0.016 A 
BRANCH  25  28
ATOM     28  O   UNL     1     -12.978  -4.835  -4.659  0.00  0.00    -0.495 OA
ATOM     29  C   UNL     1     -13.500  -5.490  -5.817  0.00  0.00    +0.277 C 
ENDBRANCH  25  28
ENDBRANCH  19  22
ENDBRANCH  17  18
BRANCH  17  30
ATOM     30  C   UNL     1      -5.833  -0.340  -4.647  0.00  0.00    +0.014 C 
ATOM     31  C   UNL     1      -4.403   0.196  -4.737  0.00  0.00    +0.009 C 
ATOM     32  C   UNL     1      -6.438  -0.419  -6.050  0.00  0.00    +0.009 C 
ENDBRANCH  17  30
ENDBRANCH   1  17
TORSDOF 13
