REMARK  Name = ZINC13132547
REMARK  10 active torsions:
REMARK  status: ('A' for Active; 'I' for Inactive)
REMARK    1  A    between atoms: C_3  and  O_36
REMARK    2  A    between atoms: C_6  and  C_7
REMARK    3  A    between atoms: C_12  and  O_19
REMARK    4  A    between atoms: C_14  and  O_18
REMARK    5  A    between atoms: O_19  and  C_20
REMARK    6  A    between atoms: C_22  and  O_35
REMARK    7  A    between atoms: C_24  and  O_34
REMARK    8  A    between atoms: C_26  and  O_33
REMARK    9  A    between atoms: C_28  and  C_31
REMARK   10  A    between atoms: C_31  and  O_32
REMARK                            x       y       z     vdW  Elec       q    Type
REMARK                         _______ _______ _______ _____ _____    ______ ____
ROOT
ATOM      1  C   UNL     1       5.718  10.263  -1.444  0.00  0.00    +0.064 A 
ATOM      2  C   UNL     1       6.828   9.486  -1.367  0.00  0.00    +0.208 A 
ATOM      3  O   UNL     1       6.769   8.152  -1.312  0.00  0.00    -0.462 OA
ATOM      4  C   UNL     1       5.612   7.461  -1.329  0.00  0.00    +0.145 A 
ATOM      5  C   UNL     1       5.618   6.075  -1.269  0.00  0.00    +0.093 A 
ATOM      6  C   UNL     1       4.424   5.373  -1.286  0.00  0.00    +0.131 A 
ATOM      7  C   UNL     1       3.208   6.042  -1.369  0.00  0.00    +0.092 A 
ATOM      8  C   UNL     1       3.179   7.423  -1.423  0.00  0.00    +0.135 A 
ATOM      9  C   UNL     1       4.383   8.139  -1.407  0.00  0.00    +0.106 A 
ATOM     10  C   UNL     1       4.397   9.610  -1.469  0.00  0.00    +0.204 A 
ATOM     11  O   UNL     1       3.366  10.256  -1.538  0.00  0.00    -0.286 OA
ENDROOT
BRANCH   1  17
ATOM     12  C   UNL     1       5.154  12.455  -2.489  0.00  0.00    +0.012 A 
ATOM     13  C   UNL     1       5.259  13.829  -2.538  0.00  0.00    +0.046 A 
ATOM     14  C   UNL     1       6.045  14.500  -1.612  0.00  0.00    +0.117 A 
ATOM     15  C   UNL     1       6.726  13.791  -0.632  0.00  0.00    +0.046 A 
ATOM     16  C   UNL     1       6.621  12.417  -0.575  0.00  0.00    +0.012 A 
ATOM     17  C   UNL     1       5.832  11.740  -1.503  0.00  0.00    -0.011 A 
BRANCH  14  18
ATOM     18  O   UNL     1       6.150  15.854  -1.666  0.00  0.00    -0.507 OA
ATOM     19  H   UNL     1       6.877  16.171  -2.219  0.00  0.00    +0.292 HD
ENDBRANCH  14  18
ENDBRANCH   1  17
BRANCH   8  20
ATOM     20  O   UNL     1       1.994   8.080  -1.499  0.00  0.00    -0.506 OA
ATOM     21  H   UNL     1       1.685   8.232  -2.403  0.00  0.00    +0.292 HD
ENDBRANCH   8  20
BRANCH   6  22
ATOM     22  O   UNL     1       4.441   4.017  -1.226  0.00  0.00    -0.461 OA
BRANCH  22  23
ATOM     23  C   UNL     1       3.177   3.350  -1.248  0.00  0.00    +0.339 C 
ATOM     24  C   UNL     1       3.399   1.836  -1.300  0.00  0.00    +0.214 C 
ATOM     25  C   UNL     1       2.042   1.128  -1.262  0.00  0.00    +0.180 C 
ATOM     26  C   UNL     1       1.286   1.562  -0.002  0.00  0.00    +0.177 C 
ATOM     27  C   UNL     1       1.146   3.086  -0.000  0.00  0.00    +0.179 C 
ATOM     28  O   UNL     1       2.443   3.683  -0.068  0.00  0.00    -0.331 OA
BRANCH  26  29
ATOM     29  O   UNL     1      -0.011   0.963   0.007  0.00  0.00    -0.386 OA
ATOM     30  H   UNL     1       0.002  -0.004   0.002  0.00  0.00    +0.210 HD
ENDBRANCH  26  29
BRANCH  25  31
ATOM     31  O   UNL     1       2.242  -0.287  -1.236  0.00  0.00    -0.386 OA
ATOM     32  H   UNL     1       2.715  -0.632  -2.005  0.00  0.00    +0.210 HD
ENDBRANCH  25  31
BRANCH  24  33
ATOM     33  O   UNL     1       4.182   1.429  -0.176  0.00  0.00    -0.383 OA
ATOM     34  H   UNL     1       5.057   1.839  -0.136  0.00  0.00    +0.210 HD
ENDBRANCH  24  33
BRANCH  27  35
ATOM     35  C   UNL     1       0.446   3.533   1.284  0.00  0.00    +0.190 C 
BRANCH  35  36
ATOM     36  O   UNL     1       0.210   4.941   1.234  0.00  0.00    -0.392 OA
ATOM     37  H   UNL     1      -0.232   5.295   2.018  0.00  0.00    +0.210 HD
ENDBRANCH  35  36
ENDBRANCH  27  35
ENDBRANCH  22  23
ENDBRANCH   6  22
TORSDOF 10
