REMARK  Name = ZINC63374132
REMARK  10 active torsions:
REMARK  status: ('A' for Active; 'I' for Inactive)
REMARK    1  A    between atoms: C_1  and  C_2
REMARK    2  A    between atoms: C_2  and  C_3
REMARK    3  A    between atoms: C_3  and  O_4
REMARK    4  A    between atoms: O_4  and  C_5
REMARK    5  A    between atoms: C_8  and  C_14
REMARK    6  A    between atoms: C_10  and  O_11
REMARK    7  A    between atoms: O_11  and  C_12
REMARK    8  A    between atoms: C_12  and  C_13
REMARK    9  A    between atoms: N_20  and  C_35
REMARK   10  A    between atoms: C_23  and  C_34
REMARK                            x       y       z     vdW  Elec       q    Type
REMARK                         _______ _______ _______ _____ _____    ______ ____
ROOT
ATOM      1  C   UNL     1       3.376  -4.467   5.524  0.00  0.00    +0.065 C 
ATOM      2  C   UNL     1       4.842  -3.999   5.618  0.00  0.00    +0.123 C 
ATOM      3  N   UNL     1       5.345  -4.325   6.955  0.00  0.00    -0.268 N 
ATOM      4  C   UNL     1       6.428  -5.042   7.282  0.00  0.00    +0.317 C 
ATOM      5  O   UNL     1       7.244  -5.442   6.476  0.00  0.00    -0.252 OA
ATOM      6  N   UNL     1       6.509  -5.266   8.601  0.00  0.00    -0.192 N 
ATOM      7  C   UNL     1       5.509  -4.659   9.272  0.00  0.00    +0.253 C 
ATOM      8  O   UNL     1       5.300  -4.698  10.465  0.00  0.00    -0.272 OA
ATOM      9  C   UNL     1       4.702  -3.920   8.227  0.00  0.00    +0.137 C 
ATOM     10  C   UNL     1       3.268  -4.460   8.189  0.00  0.00    +0.139 C 
ATOM     11  C   UNL     1       2.704  -4.090   6.821  0.00  0.00    -0.027 C 
ATOM     12  C   UNL     1       1.589  -3.405   7.051  0.00  0.00    -0.000 A 
ATOM     13  C   UNL     1       0.573  -2.856   6.139  0.00  0.00    +0.010 A 
ATOM     14  C   UNL     1      -0.452  -2.179   6.721  0.00  0.00    +0.001 A 
ATOM     15  C   UNL     1      -0.565  -1.994   8.102  0.00  0.00    +0.002 A 
ATOM     16  C   UNL     1       0.318  -2.470   9.015  0.00  0.00    +0.026 A 
ATOM     17  C   UNL     1       1.435  -3.207   8.524  0.00  0.00    +0.043 A 
ATOM     18  N   UNL     1       2.415  -3.792   9.174  0.00  0.00    -0.375 N 
ATOM     19  C   UNL     1       4.747  -2.405   8.436  0.00  0.00    +0.044 C 
ATOM     20  H   UNL     1       2.554  -3.787  10.134  0.00  0.00    +0.160 HD
ENDROOT
BRANCH   1  24
ATOM     21  C   UNL     1       1.432  -2.508   2.257  0.00  0.00    +0.162 A 
ATOM     22  C   UNL     1       1.990  -1.762   3.283  0.00  0.00    +0.050 A 
ATOM     23  C   UNL     1       2.617  -2.398   4.337  0.00  0.00    +0.008 A 
ATOM     24  C   UNL     1       2.690  -3.778   4.372  0.00  0.00    -0.035 A 
ATOM     25  C   UNL     1       2.136  -4.529   3.351  0.00  0.00    +0.053 A 
ATOM     26  C   UNL     1       1.500  -3.897   2.294  0.00  0.00    +0.162 A 
BRANCH  21  27
ATOM     27  O   UNL     1       0.814  -1.884   1.219  0.00  0.00    -0.488 OA
BRANCH  27  28
ATOM     28  C   UNL     1       0.782  -0.455   1.247  0.00  0.00    +0.229 C 
BRANCH  28  30
ATOM     29  C   UNL     1       0.017   1.592   0.036  0.00  0.00    +0.007 C 
ATOM     30  C   UNL     1       0.051   0.063   0.006  0.00  0.00    +0.038 C 
ENDBRANCH  28  30
ENDBRANCH  27  28
ENDBRANCH  21  27
BRANCH  26  31
ATOM     31  O   UNL     1       0.949  -4.634   1.293  0.00  0.00    -0.489 OA
BRANCH  31  32
ATOM     32  C   UNL     1       1.057  -6.055   1.397  0.00  0.00    +0.226 C 
ATOM     33  C   UNL     1       0.384  -6.708   0.189  0.00  0.00    +0.048 C 
ENDBRANCH  31  32
ENDBRANCH  26  31
ENDBRANCH   1  24
BRANCH   6  34
ATOM     34  C   UNL     1       7.511  -6.037   9.208  0.00  0.00    +0.045 A 
ATOM     35  C   UNL     1       7.586  -6.114  10.592  0.00  0.00    +0.024 A 
ATOM     36  C   UNL     1       8.573  -6.875  11.187  0.00  0.00    +0.002 A 
ATOM     37  C   UNL     1       9.487  -7.558  10.405  0.00  0.00    +0.000 A 
ATOM     38  C   UNL     1       9.415  -7.482   9.027  0.00  0.00    +0.002 A 
ATOM     39  C   UNL     1       8.426  -6.729   8.426  0.00  0.00    +0.024 A 
ENDBRANCH   6  34
TORSDOF 7
