REMARK  Name = ZINC12912040
REMARK  11 active torsions:
REMARK  status: ('A' for Active; 'I' for Inactive)
REMARK    1  A    between atoms: C_1  and  C_2
REMARK    2  A    between atoms: C_2  and  C_3
REMARK    3  A    between atoms: C_3  and  C_31
REMARK    4  A    between atoms: N_6  and  C_10
REMARK    5  A    between atoms: C_10  and  C_11
REMARK    6  A    between atoms: N_13  and  C_14
REMARK    7  A    between atoms: C_19  and  C_20
REMARK    8  A    between atoms: N_22  and  C_23
REMARK    9  A    between atoms: C_23  and  C_24
REMARK   10  A    between atoms: C_24  and  C_25
REMARK   11  A    between atoms: C_34  and  C_37
REMARK                            x       y       z     vdW  Elec       q    Type
REMARK                         _______ _______ _______ _____ _____    ______ ____
ROOT
ATOM      1  C   UNL     1      -1.539   2.604   7.654  0.00  0.00    +0.235 C 
ATOM      2  O   UNL     1      -0.808   2.328   8.581  0.00  0.00    -0.274 OA
ATOM      3  N   UNL     1      -1.248   2.167   6.413  0.00  0.00    -0.284 N 
ATOM      4  H   UNL     1      -1.790   2.451   5.660  0.00  0.00    +0.155 HD
ENDROOT
BRANCH   3   5
ATOM      5  C   UNL     1      -0.171   1.307   6.212  0.00  0.00    +0.046 A 
ATOM      6  C   UNL     1       0.149   0.354   7.170  0.00  0.00    +0.024 A 
ATOM      7  C   UNL     1       1.217  -0.497   6.969  0.00  0.00    +0.002 A 
ATOM      8  C   UNL     1       1.976  -0.408   5.813  0.00  0.00    +0.001 A 
ATOM      9  C   UNL     1       1.670   0.528   4.849  0.00  0.00    +0.015 A 
ATOM     10  C   UNL     1       0.596   1.400   5.041  0.00  0.00    +0.058 A 
BRANCH  10  11
ATOM     11  C   UNL     1       0.266   2.408   4.016  0.00  0.00    +0.246 C 
ATOM     12  O   UNL     1      -0.725   3.101   4.141  0.00  0.00    -0.270 OA
ATOM     13  N   UNL     1       1.063   2.561   2.940  0.00  0.00    -0.311 N 
ATOM     14  H   UNL     1       1.854   2.008   2.840  0.00  0.00    +0.149 HD
BRANCH  13  15
ATOM     15  C   UNL     1       0.735   3.562   1.922  0.00  0.00    +0.109 C 
BRANCH  15  16
ATOM     16  C   UNL     1       1.793   3.530   0.817  0.00  0.00    +0.054 C 
BRANCH  16  17
ATOM     17  C   UNL     1       1.456   4.560  -0.231  0.00  0.00    -0.046 A 
ATOM     18  C   UNL     1       0.661   4.215  -1.308  0.00  0.00    +0.004 A 
ATOM     19  C   UNL     1       0.348   5.161  -2.266  0.00  0.00    +0.000 A 
ATOM     20  C   UNL     1       0.838   6.449  -2.153  0.00  0.00    +0.000 A 
ATOM     21  C   UNL     1       1.637   6.792  -1.078  0.00  0.00    +0.000 A 
ATOM     22  C   UNL     1       1.946   5.847  -0.117  0.00  0.00    +0.004 A 
ENDBRANCH  16  17
ENDBRANCH  15  16
ENDBRANCH  13  15
ENDBRANCH  10  11
ENDBRANCH   3   5
BRANCH   1  23
ATOM     23  C   UNL     1      -2.773   3.437   7.890  0.00  0.00    +0.214 C 
BRANCH  23  27
ATOM     24  C   UNL     1      -2.666   4.832  11.330  0.00  0.00    +0.138 C 
ATOM     25  C   UNL     1      -2.321   4.891   9.855  0.00  0.00    +0.251 C 
ATOM     26  O   UNL     1      -1.689   5.754   9.285  0.00  0.00    -0.272 OA
ATOM     27  N   UNL     1      -2.864   3.784   9.310  0.00  0.00    -0.215 N 
ATOM     28  C   UNL     1      -3.501   3.045  10.225  0.00  0.00    +0.310 C 
ATOM     29  O   UNL     1      -4.073   2.003   9.973  0.00  0.00    -0.252 OA
ATOM     30  N   UNL     1      -3.434   3.582  11.457  0.00  0.00    -0.281 N 
ATOM     31  H   UNL     1      -3.820   3.218  12.269  0.00  0.00    +0.152 HD
BRANCH  24  32
ATOM     32  C   UNL     1      -1.412   4.774  12.166  0.00  0.00    -0.015 A 
ATOM     33  C   UNL     1      -0.823   5.943  12.608  0.00  0.00    +0.006 A 
ATOM     34  C   UNL     1       0.325   5.890  13.378  0.00  0.00    +0.004 A 
ATOM     35  C   UNL     1       0.887   4.668  13.697  0.00  0.00    -0.050 A 
ATOM     36  C   UNL     1       0.300   3.499  13.250  0.00  0.00    +0.004 A 
ATOM     37  C   UNL     1      -0.850   3.552  12.484  0.00  0.00    +0.006 A 
ATOM     38  C   UNL     1       2.140   4.610  14.532  0.00  0.00    +0.044 C 
ENDBRANCH  24  32
BRANCH  24  40
ATOM     39  C   UNL     1      -4.864   5.971  10.998  0.00  0.00    +0.007 C 
ATOM     40  C   UNL     1      -3.523   6.034  11.731  0.00  0.00    +0.037 C 
ENDBRANCH  24  40
ENDBRANCH  23  27
ENDBRANCH   1  23
TORSDOF 9
