REMARK  Name = ZINC39612657
REMARK  6 active torsions:
REMARK  status: ('A' for Active; 'I' for Inactive)
REMARK    1  A    between atoms: C_9  and  C_12
REMARK    2  A    between atoms: C_12  and  O_14
REMARK    3  A    between atoms: O_14  and  C_15
REMARK    4  A    between atoms: C_15  and  C_16
REMARK    5  A    between atoms: N_18  and  C_19
REMARK    6  A    between atoms: C_21  and  C_29
REMARK                            x       y       z     vdW  Elec       q    Type
REMARK                         _______ _______ _______ _____ _____    ______ ____
ROOT
ATOM      1  C   UNL     1      -0.662  -6.459  -0.246  0.00  0.00    +0.252 C 
ATOM      2  O   UNL     1       0.488  -6.831  -0.343  0.00  0.00    -0.272 OA
ATOM      3  N   UNL     1      -1.665  -7.359  -0.256  0.00  0.00    -0.299 N 
ATOM      4  H   UNL     1      -2.585  -7.062  -0.179  0.00  0.00    +0.150 HD
ENDROOT
BRANCH   3   5
ATOM      5  C   UNL     1      -1.365  -8.788  -0.386  0.00  0.00    +0.151 C 
ATOM      6  C   UNL     1      -2.095  -9.620   0.693  0.00  0.00    +0.132 C 
ATOM      7  C   UNL     1      -1.231 -10.763   1.193  0.00  0.00    -0.046 C 
ATOM      8  C   UNL     1       0.070 -10.681   0.983  0.00  0.00    -0.013 C 
ATOM      9  S   UNL     1       0.371  -9.161   0.100  0.00  0.00    -0.106 S 
ATOM     10  C   UNL     1       0.818 -11.866   1.547  0.00  0.00    +0.042 C 
ATOM     11  C   UNL     1      -0.179 -12.522   2.527  0.00  0.00    +0.009 C 
ATOM     12  C   UNL     1      -1.527 -12.074   1.931  0.00  0.00    +0.033 C 
BRANCH   6  13
ATOM     13  C   UNL     1      -3.362 -10.185   0.106  0.00  0.00    +0.220 C 
ATOM     14  O   UNL     1      -3.517 -11.386   0.038  0.00  0.00    -0.275 OA
ATOM     15  N   UNL     1      -4.325  -9.356  -0.344  0.00  0.00    -0.329 N 
ATOM     16  H   UNL     1      -4.201  -8.395  -0.290  0.00  0.00    +0.145 HD
ATOM     17  H   UNL     1      -5.141  -9.719  -0.723  0.00  0.00    +0.145 HD
ENDBRANCH   6  13
ENDBRANCH   3   5
BRANCH   1  18
ATOM     18  C   UNL     1      -0.971  -4.990  -0.113  0.00  0.00    +0.328 C 
BRANCH  18  19
ATOM     19  O   UNL     1       0.248  -4.244  -0.127  0.00  0.00    -0.452 OA
BRANCH  19  20
ATOM     20  C   UNL     1       0.147  -2.904  -0.017  0.00  0.00    +0.337 C 
ATOM     21  O   UNL     1      -0.945  -2.384   0.089  0.00  0.00    -0.245 OA
BRANCH  20  30
ATOM     22  C   UNL     1       4.058  -4.590   0.003  0.00  0.00    +0.001 A 
ATOM     23  C   UNL     1       5.183  -3.755  -0.004  0.00  0.00    +0.002 A 
ATOM     24  C   UNL     1       5.091  -2.403  -0.017  0.00  0.00    +0.024 A 
ATOM     25  C   UNL     1       3.827  -1.772  -0.024  0.00  0.00    +0.041 A 
ATOM     26  N   UNL     1       3.744  -0.450  -0.037  0.00  0.00    -0.285 N 
ATOM     27  C   UNL     1       2.591   0.208  -0.044  0.00  0.00    +0.222 C 
ATOM     28  O   UNL     1       2.585   1.424  -0.057  0.00  0.00    -0.275 OA
ATOM     29  C   UNL     1       1.286  -0.555  -0.038  0.00  0.00    +0.139 C 
ATOM     30  C   UNL     1       1.365  -2.069  -0.024  0.00  0.00    +0.054 C 
ATOM     31  C   UNL     1       2.624  -2.632  -0.018  0.00  0.00    +0.007 A 
ATOM     32  C   UNL     1       2.800  -4.085  -0.004  0.00  0.00    +0.010 A 
ATOM     33  H   UNL     1       4.567   0.063  -0.041  0.00  0.00    +0.155 HD
ENDBRANCH  20  30
ENDBRANCH  19  20
ENDBRANCH  18  19
ENDBRANCH   1  18
TORSDOF 6
