REMARK  Name = ZINC10775668
REMARK  4 active torsions:
REMARK  status: ('A' for Active; 'I' for Inactive)
REMARK    1  A    between atoms: C_1  and  N_49
REMARK    2  A    between atoms: C_10  and  C_12
REMARK    3  A    between atoms: N_18  and  S_19
REMARK    4  A    between atoms: S_19  and  C_22
REMARK                            x       y       z     vdW  Elec       q    Type
REMARK                         _______ _______ _______ _____ _____    ______ ____
ROOT
ATOM      1  C   UNL     1       5.944  -6.996   3.090  0.00  0.00    -0.096 C 
ATOM      2  C   UNL     1       4.409  -7.832   1.414  0.00  0.00    -0.073 C 
ATOM      3  C   UNL     1       2.939  -7.819   0.986  0.00  0.00    +0.038 C 
ATOM      4  C   UNL     1       2.579  -6.398   0.566  0.00  0.00    +0.050 A 
ATOM      5  C   UNL     1       3.377  -5.366   0.952  0.00  0.00    -0.002 A 
ATOM      6  S   UNL     1       2.574  -3.963   0.229  0.00  0.00    -0.059 S 
ATOM      7  C   UNL     1       1.259  -4.829  -0.510  0.00  0.00    +0.165 A 
ATOM      8  N   UNL     1       1.522  -6.075  -0.171  0.00  0.00    -0.229 NA
ATOM      9  N   UNL     1       0.204  -4.334  -1.269  0.00  0.00    -0.263 N 
ATOM     10  C   UNL     1       0.109  -3.011  -1.508  0.00  0.00    +0.238 C 
ATOM     11  O   UNL     1       0.943  -2.252  -1.062  0.00  0.00    -0.274 OA
ATOM     12  C   UNL     1       4.614  -5.446   1.778  0.00  0.00    -0.034 C 
ATOM     13  H   UNL     1      -0.463  -4.941  -1.626  0.00  0.00    +0.157 HD
ATOM     14  N   UNL     1       4.641  -6.781   2.425  0.00  0.00    +0.381 N 
ATOM     15  H   UNL     1       3.895  -6.825   3.131  0.00  0.00    -0.082 HD
ENDROOT
BRANCH  10  16
ATOM     16  C   UNL     1      -1.034  -2.475  -2.331  0.00  0.00    +0.166 C 
ATOM     17  C   UNL     1      -0.491  -1.825  -3.608  0.00  0.00    +0.030 C 
ATOM     18  C   UNL     1      -1.643  -1.164  -4.368  0.00  0.00    +0.003 C 
ATOM     19  C   UNL     1      -2.269  -0.071  -3.499  0.00  0.00    +0.017 C 
ATOM     20  C   UNL     1      -2.836  -0.705  -2.219  0.00  0.00    +0.110 C 
ATOM     21  N   UNL     1      -1.764  -1.461  -1.558  0.00  0.00    -0.164 NA
BRANCH  21  22
ATOM     22  S   UNL     1      -1.390  -1.180   0.031  0.00  0.00    +0.068 S 
ATOM     23  O   UNL     1      -0.761  -2.359   0.514  0.00  0.00    -0.152 OA
ATOM     24  O   UNL     1      -2.557  -0.637   0.633  0.00  0.00    -0.152 OA
BRANCH  22  25
ATOM     25  C   UNL     1      -0.170   0.091   0.062  0.00  0.00    +0.144 A 
ATOM     26  C   UNL     1      -0.338   1.434   0.127  0.00  0.00    +0.038 A 
ATOM     27  C   UNL     1       0.778   2.250   0.140  0.00  0.00    +0.030 A 
ATOM     28  C   UNL     1       2.009   1.681   0.087  0.00  0.00    +0.080 A 
ATOM     29  S   UNL     1       1.609  -0.057   0.016  0.00  0.00    -0.057 S 
ATOM     30 CL   UNL     1       3.567   2.446   0.088  0.00  0.00    -0.076 Cl
ENDBRANCH  22  25
ENDBRANCH  21  22
ENDBRANCH  10  16
TORSDOF 3
