REMARK  Name = ZINC44219320
REMARK  10 active torsions:
REMARK  status: ('A' for Active; 'I' for Inactive)
REMARK    1  A    between atoms: C_3  and  C_22
REMARK    2  A    between atoms: C_6  and  C_7
REMARK    3  A    between atoms: C_7  and  C_8
REMARK    4  A    between atoms: C_7  and  C_15
REMARK    5  A    between atoms: C_8  and  C_10
REMARK    6  A    between atoms: C_8  and  N_14
REMARK    7  A    between atoms: C_10  and  C_11
REMARK    8  A    between atoms: C_15  and  C_17
REMARK    9  A    between atoms: C_15  and  N_21
REMARK   10  A    between atoms: C_17  and  C_18
REMARK                            x       y       z     vdW  Elec       q    Type
REMARK                         _______ _______ _______ _____ _____    ______ ____
ROOT
ATOM      1  C   UNL     1      -1.460  -1.657  -0.007  0.00  0.00    -0.009 C 
ENDROOT
BRANCH   1   7
ATOM      2  C   UNL     1      -0.552   0.675   0.000  0.00  0.00    +0.004 A 
ATOM      3  C   UNL     1       0.495   1.570   0.118  0.00  0.00    +0.012 A 
ATOM      4  C   UNL     1       1.776   1.108   0.357  0.00  0.00    +0.055 A 
ATOM      5  C   UNL     1       2.009  -0.249   0.478  0.00  0.00    +0.012 A 
ATOM      6  C   UNL     1       0.962  -1.144   0.361  0.00  0.00    +0.004 A 
ATOM      7  C   UNL     1      -0.319  -0.682   0.121  0.00  0.00    -0.047 A 
BRANCH   4   8
ATOM      8  C   UNL     1       2.917   2.083   0.485  0.00  0.00    +0.417 C 
ATOM      9  F   UNL     1       3.057   2.465   1.823  0.00  0.00    -0.166 F 
ATOM     10  F   UNL     1       4.099   1.477   0.046  0.00  0.00    -0.166 F 
ATOM     11  F   UNL     1       2.655   3.213  -0.297  0.00  0.00    -0.166 F 
ENDBRANCH   4   8
ENDBRANCH   1   7
BRANCH   1  12
ATOM     12  C   UNL     1      -1.393  -2.345  -1.373  0.00  0.00    -0.058 C 
BRANCH  12  13
ATOM     13  N   UNL     1      -0.080  -2.985  -1.534  0.00  0.00    +0.381 N 
ATOM     14  H   UNL     1       0.105  -3.578  -0.739  0.00  0.00    -0.090 HD
ATOM     15  H   UNL     1      -0.079  -3.540  -2.377  0.00  0.00    -0.090 HD
ATOM     16  H   UNL     1       0.634  -2.275  -1.597  0.00  0.00    -0.090 HD
ENDBRANCH  12  13
BRANCH  12  17
ATOM     17  C   UNL     1      -1.593  -1.305  -2.477  0.00  0.00    +0.109 C 
BRANCH  17  18
ATOM     18  C   UNL     1      -1.674  -2.000  -3.812  0.00  0.00    +0.354 C 
ATOM     19  O   UNL     1      -1.580  -3.214  -3.874  0.00  0.00    -0.246 OA
ATOM     20  O   UNL     1      -1.833  -1.348  -4.830  0.00  0.00    -0.246 OA
ENDBRANCH  17  18
ENDBRANCH  12  17
ENDBRANCH   1  12
BRANCH   1  21
ATOM     21  C   UNL     1      -1.359  -2.709   1.099  0.00  0.00    -0.058 C 
BRANCH  21  22
ATOM     22  N   UNL     1      -1.392  -2.046   2.410  0.00  0.00    +0.381 N 
ATOM     23  H   UNL     1      -2.258  -1.538   2.507  0.00  0.00    -0.090 HD
ATOM     24  H   UNL     1      -1.325  -2.740   3.139  0.00  0.00    -0.090 HD
ATOM     25  H   UNL     1      -0.616  -1.406   2.482  0.00  0.00    -0.090 HD
ENDBRANCH  21  22
BRANCH  21  26
ATOM     26  C   UNL     1      -2.536  -3.680   0.989  0.00  0.00    +0.109 C 
BRANCH  26  27
ATOM     27  C   UNL     1      -2.366  -4.791   1.993  0.00  0.00    +0.354 C 
ATOM     28  O   UNL     1      -1.395  -4.804   2.729  0.00  0.00    -0.246 OA
ATOM     29  O   UNL     1      -3.201  -5.676   2.070  0.00  0.00    -0.246 OA
ENDBRANCH  26  27
ENDBRANCH  21  26
ENDBRANCH   1  21
TORSDOF 10
