REMARK  Name = ZINC09344673
REMARK  3 active torsions:
REMARK  status: ('A' for Active; 'I' for Inactive)
REMARK    1  A    between atoms: C_3  and  C_9
REMARK    2  A    between atoms: C_9  and  S_10
REMARK    3  A    between atoms: S_10  and  C_11
REMARK                            x       y       z     vdW  Elec       q    Type
REMARK                         _______ _______ _______ _____ _____    ______ ____
ROOT
ATOM      1  C   UNL     1      -1.020   2.300   0.019  0.00  0.00    +0.198 A 
ATOM      2  N   UNL     1      -0.450   3.481   0.023  0.00  0.00    -0.120 NA
ATOM      3  N   UNL     1       0.829   3.355   0.010  0.00  0.00    -0.107 NA
ATOM      4  C   UNL     1       1.155   2.086   0.002  0.00  0.00    +0.260 A 
ATOM      5  N   UNL     1      -0.017   1.369   0.010  0.00  0.00    -0.248 N 
ATOM      6  C   UNL     1       0.002  -0.004   0.002  0.00  0.00    +0.101 A 
ATOM      7  C   UNL     1       1.187  -0.729  -0.014  0.00  0.00    +0.054 A 
ATOM      8  C   UNL     1       1.050  -2.186  -0.022  0.00  0.00    -0.024 A 
ATOM      9  C   UNL     1      -0.205  -2.684  -0.012  0.00  0.00    -0.004 A 
ATOM     10  S   UNL     1      -1.256  -1.257   0.008  0.00  0.00    -0.075 S 
ATOM     11  C   UNL     1      -0.611  -4.125  -0.018  0.00  0.00    +0.043 C 
ATOM     12  C   UNL     1       0.610  -4.969  -0.413  0.00  0.00    +0.005 C 
ATOM     13  C   UNL     1       1.814  -4.509   0.414  0.00  0.00    +0.005 C 
ATOM     14  C   UNL     1       2.258  -3.119  -0.041  0.00  0.00    +0.037 C 
ATOM     15  C   UNL     1       2.438   0.072  -0.019  0.00  0.00    +0.169 A 
ATOM     16  N   UNL     1       2.372   1.429  -0.012  0.00  0.00    -0.178 N 
ATOM     17  N   UNL     1       3.700   1.883  -0.019  0.00  0.00    -0.150 NA
ATOM     18  C   UNL     1       4.468   0.823  -0.031  0.00  0.00    +0.246 A 
ATOM     19  N   UNL     1       3.711  -0.272  -0.031  0.00  0.00    -0.214 NA
ENDROOT
BRANCH   1  20
ATOM     20  S   UNL     1      -2.751   1.972   0.026  0.00  0.00    -0.081 S 
BRANCH  20  21
ATOM     21  C   UNL     1      -3.510   3.620   0.037  0.00  0.00    +0.114 C 
BRANCH  21  24
ATOM     22  C   UNL     1      -7.069   3.289   1.251  0.00  0.00    +0.020 A 
ATOM     23  C   UNL     1      -5.692   3.414   1.244  0.00  0.00    +0.007 A 
ATOM     24  C   UNL     1      -5.010   3.483   0.043  0.00  0.00    -0.019 A 
ATOM     25  C   UNL     1      -5.706   3.431  -1.152  0.00  0.00    +0.046 A 
ATOM     26  C   UNL     1      -7.082   3.300  -1.145  0.00  0.00    +0.040 A 
ATOM     27  C   UNL     1      -7.765   3.231   0.056  0.00  0.00    +0.042 A 
ATOM     28 CL   UNL     1      -9.493   3.073   0.065  0.00  0.00    -0.083 Cl
ATOM     29 CL   UNL     1      -4.849   3.524  -2.659  0.00  0.00    -0.083 Cl
ENDBRANCH  21  24
ENDBRANCH  20  21
ENDBRANCH   1  20
TORSDOF 3
