REMARK  Name = ZINC12880057
REMARK  6 active torsions:
REMARK  status: ('A' for Active; 'I' for Inactive)
REMARK    1  A    between atoms: C_1  and  C_2
REMARK    2  A    between atoms: C_16  and  C_18
REMARK    3  A    between atoms: C_18  and  C_19
REMARK    4  A    between atoms: C_19  and  C_20
REMARK    5  A    between atoms: N_25  and  C_28
REMARK    6  A    between atoms: C_31  and  C_34
REMARK                            x       y       z     vdW  Elec       q    Type
REMARK                         _______ _______ _______ _____ _____    ______ ____
ROOT
ATOM      1  C   UNL     1       0.984   5.454  -5.501  0.00  0.00    +0.047 C 
ATOM      2  C   UNL     1       0.465   5.311  -4.094  0.00  0.00    -0.011 A 
ATOM      3  C   UNL     1      -0.234   6.349  -3.509  0.00  0.00    +0.046 A 
ATOM      4  C   UNL     1      -0.713   6.226  -2.217  0.00  0.00    +0.020 A 
ATOM      5  C   UNL     1      -0.492   5.059  -1.508  0.00  0.00    +0.006 A 
ATOM      6  C   UNL     1       0.205   4.022  -2.087  0.00  0.00    -0.027 A 
ATOM      7  C   UNL     1       0.692   4.133  -3.386  0.00  0.00    +0.040 A 
ATOM      8  N   UNL     1       1.359   2.962  -3.754  0.00  0.00    -0.286 N 
ATOM      9  C   UNL     1       1.355   2.045  -2.767  0.00  0.00    +0.211 C 
ATOM     10  O   UNL     1       1.857   0.941  -2.803  0.00  0.00    -0.277 OA
ATOM     11  C   UNL     1       0.611   2.656  -1.612  0.00  0.00    +0.050 C 
ATOM     12  C   UNL     1      -0.608   1.810  -1.220  0.00  0.00    +0.088 C 
ATOM     13  C   UNL     1      -0.122   0.961  -0.013  0.00  0.00    +0.073 C 
ATOM     14  C   UNL     1       1.351   1.375   0.196  0.00  0.00    -0.057 C 
ATOM     15  C   UNL     1      -0.952   1.466   1.145  0.00  0.00    +0.228 C 
ATOM     16  O   UNL     1      -0.872   1.072   2.289  0.00  0.00    -0.275 OA
ATOM     17  N   UNL     1      -1.795   2.421   0.688  0.00  0.00    -0.210 N 
ATOM     18  C   UNL     1      -1.681   2.689  -0.618  0.00  0.00    +0.229 C 
ATOM     19  O   UNL     1      -2.336   3.510  -1.224  0.00  0.00    -0.275 OA
ATOM     20 CL   UNL     1      -0.511   7.813  -4.399  0.00  0.00    -0.083 Cl
ATOM     21  H   UNL     1       1.775   2.825  -4.619  0.00  0.00    +0.155 HD
ATOM     22  N   UNL     1       1.436   2.702  -0.418  0.00  0.00    +0.394 N 
ATOM     23  H   UNL     1       1.084   3.416   0.230  0.00  0.00    -0.083 HD
ATOM     24  H   UNL     1       2.409   2.915  -0.667  0.00  0.00    -0.083 HD
ENDROOT
BRANCH  17  25
ATOM     25  C   UNL     1      -2.706   3.080   1.518  0.00  0.00    +0.044 A 
ATOM     26  C   UNL     1      -2.244   3.924   2.522  0.00  0.00    +0.025 A 
ATOM     27  C   UNL     1      -3.138   4.580   3.338  0.00  0.00    +0.015 A 
ATOM     28  C   UNL     1      -4.511   4.386   3.165  0.00  0.00    +0.037 A 
ATOM     29  C   UNL     1      -4.971   3.533   2.159  0.00  0.00    +0.015 A 
ATOM     30  C   UNL     1      -4.071   2.885   1.343  0.00  0.00    +0.025 A 
BRANCH  28  31
ATOM     31  C   UNL     1      -5.473   5.082   4.043  0.00  0.00    +0.242 C 
ATOM     32  O   UNL     1      -6.668   4.913   3.890  0.00  0.00    -0.270 OA
ATOM     33  N   UNL     1      -5.027   5.905   5.012  0.00  0.00    -0.325 N 
ATOM     34  H   UNL     1      -4.075   6.041   5.133  0.00  0.00    +0.145 HD
ATOM     35  H   UNL     1      -5.660   6.363   5.589  0.00  0.00    +0.145 HD
ENDBRANCH  28  31
ENDBRANCH  17  25
BRANCH  14  36
ATOM     36  C   UNL     1       1.682   1.428   1.689  0.00  0.00    -0.006 C 
BRANCH  36  37
ATOM     37  C   UNL     1       3.173   1.717   1.870  0.00  0.00    +0.094 C 
BRANCH  37  38
ATOM     38  C   UNL     1       3.500   1.769   3.341  0.00  0.00    +0.210 C 
ATOM     39  O   UNL     1       2.625   1.593   4.162  0.00  0.00    -0.276 OA
ATOM     40  N   UNL     1       4.763   2.012   3.742  0.00  0.00    -0.329 N 
ATOM     41  H   UNL     1       5.462   2.153   3.085  0.00  0.00    +0.145 HD
ATOM     42  H   UNL     1       4.973   2.045   4.689  0.00  0.00    +0.145 HD
ENDBRANCH  37  38
ENDBRANCH  36  37
ENDBRANCH  14  36
TORSDOF 5
