REMARK  Name = ZINC26463696
REMARK  2 active torsions:
REMARK  status: ('A' for Active; 'I' for Inactive)
REMARK    1  A    between atoms: C_14  and  N_32
REMARK    2  A    between atoms: N_21  and  C_24
REMARK                            x       y       z     vdW  Elec       q    Type
REMARK                         _______ _______ _______ _____ _____    ______ ____
ROOT
ATOM      1  C   UNL     1       1.163   1.759   0.214  0.00  0.00    +0.000 A 
ATOM      2  C   UNL     1      -0.037   1.070   0.218  0.00  0.00    +0.000 A 
ATOM      3  C   UNL     1      -1.248   1.742   0.159  0.00  0.00    +0.007 A 
ATOM      4  C   UNL     1      -1.248   3.116   0.108  0.00  0.00    -0.006 A 
ATOM      5  C   UNL     1      -0.033   3.791   0.162  0.00  0.00    -0.033 A 
ATOM      6  C   UNL     1       1.162   3.150   0.186  0.00  0.00    +0.004 A 
ATOM      7  C   UNL     1      -0.214   5.324   0.286  0.00  0.00    +0.062 C 
ATOM      8  C   UNL     1      -0.961   5.583  -1.022  0.00  0.00    -0.033 A 
ATOM      9  C   UNL     1      -0.536   6.502  -1.949  0.00  0.00    +0.004 A 
ATOM     10  C   UNL     1      -1.233   6.625  -3.142  0.00  0.00    +0.000 A 
ATOM     11  C   UNL     1      -2.338   5.837  -3.404  0.00  0.00    +0.000 A 
ATOM     12  C   UNL     1      -2.784   4.926  -2.452  0.00  0.00    +0.007 A 
ATOM     13  C   UNL     1      -2.106   4.835  -1.278  0.00  0.00    -0.006 A 
ATOM     14  C   UNL     1      -2.536   3.915  -0.100  0.00  0.00    +0.183 C 
ATOM     15  C   UNL     1      -2.607   5.057   0.916  0.00  0.00    +0.130 C 
ATOM     16  C   UNL     1      -1.168   5.281   1.447  0.00  0.00    +0.103 C 
ATOM     17  C   UNL     1      -1.425   6.284   2.486  0.00  0.00    +0.231 C 
ATOM     18  O   UNL     1      -0.744   7.233   2.811  0.00  0.00    -0.274 OA
ATOM     19  N   UNL     1      -2.624   5.875   3.023  0.00  0.00    -0.207 N 
ATOM     20  C   UNL     1      -3.283   4.962   2.236  0.00  0.00    +0.233 C 
ATOM     21  O   UNL     1      -4.208   4.242   2.548  0.00  0.00    -0.274 OA
ENDROOT
BRANCH  19  22
ATOM     22  C   UNL     1      -3.122   6.343   4.249  0.00  0.00    +0.080 A 
ATOM     23  C   UNL     1      -3.926   7.474   4.287  0.00  0.00    +0.064 A 
ATOM     24  C   UNL     1      -4.420   7.928   5.496  0.00  0.00    +0.022 A 
ATOM     25  C   UNL     1      -4.104   7.264   6.667  0.00  0.00    +0.003 A 
ATOM     26  C   UNL     1      -3.299   6.141   6.633  0.00  0.00    +0.022 A 
ATOM     27  C   UNL     1      -2.807   5.678   5.427  0.00  0.00    +0.064 A 
ATOM     28 CL   UNL     1      -1.796   4.267   5.385  0.00  0.00    -0.082 Cl
ATOM     29 CL   UNL     1      -4.317   8.313   2.819  0.00  0.00    -0.082 Cl
ENDBRANCH  19  22
BRANCH  14  30
ATOM     30  N   UNL     1      -3.757   3.122  -0.261  0.00  0.00    +0.038 N 
ATOM     31  O   UNL     1      -4.801   3.503   0.236  0.00  0.00    -0.130 OA
ATOM     32  O   UNL     1      -3.728   2.081  -0.893  0.00  0.00    -0.130 OA
ENDBRANCH  14  30
TORSDOF 2
