REMARK  Name = ZINC16636912
REMARK  14 active torsions:
REMARK  status: ('A' for Active; 'I' for Inactive)
REMARK    1  A    between atoms: C_1  and  C_2
REMARK    2  A    between atoms: C_6  and  N_9
REMARK    3  A    between atoms: C_7  and  C_8
REMARK    4  A    between atoms: C_10  and  C_12
REMARK    5  A    between atoms: C_12  and  N_63
REMARK    6  A    between atoms: C_13  and  N_63
REMARK    7  A    between atoms: C_14  and  C_15
REMARK    8  A    between atoms: C_14  and  N_63
REMARK    9  A    between atoms: N_17  and  C_18
REMARK   10  A    between atoms: C_18  and  C_19
REMARK   11  A    between atoms: N_21  and  C_22
REMARK   12  A    between atoms: C_23  and  C_30
REMARK   13  A    between atoms: C_25  and  C_29
REMARK   14  A    between atoms: C_27  and  C_28
REMARK                            x       y       z     vdW  Elec       q    Type
REMARK                         _______ _______ _______ _____ _____    ______ ____
ROOT
ATOM      1  C   UNL     1      -3.914   7.873  -1.275  0.00  0.00    +0.197 C 
ATOM      2  O   UNL     1      -4.608   7.079  -0.676  0.00  0.00    -0.278 OA
ATOM      3  N   UNL     1      -4.070   9.196  -1.067  0.00  0.00    -0.308 N 
ATOM      4  H   UNL     1      -3.514   9.831  -1.545  0.00  0.00    +0.149 HD
ENDROOT
BRANCH   1   5
ATOM      5  C   UNL     1      -2.877   7.381  -2.252  0.00  0.00    +0.019 C 
BRANCH   5   7
ATOM      6  C   UNL     1      -4.174   5.429  -2.861  0.00  0.00    -0.095 C 
ATOM      7  N   UNL     1      -2.904   5.904  -2.272  0.00  0.00    +0.389 N 
ATOM      8  H   UNL     1      -2.833   5.556  -1.308  0.00  0.00    -0.081 HD
BRANCH   7   9
ATOM      9  C   UNL     1      -1.761   5.388  -3.054  0.00  0.00    +0.019 C 
BRANCH   9  11
ATOM     10  N   UNL     1      -0.706   3.192  -3.481  0.00  0.00    -0.287 N 
ATOM     11  C   UNL     1      -1.684   3.894  -2.876  0.00  0.00    +0.201 C 
ATOM     12  O   UNL     1      -2.503   3.322  -2.187  0.00  0.00    -0.278 OA
ATOM     13  H   UNL     1      -0.014   3.655  -3.980  0.00  0.00    +0.155 HD
BRANCH  10  19
ATOM     14  C   UNL     1       1.774  -1.039  -3.829  0.00  0.00    +0.044 C 
ATOM     15  C   UNL     1       0.501  -0.280  -3.554  0.00  0.00    -0.046 A 
ATOM     16  C   UNL     1      -0.650  -0.965  -3.212  0.00  0.00    +0.004 A 
ATOM     17  C   UNL     1      -1.820  -0.273  -2.959  0.00  0.00    +0.002 A 
ATOM     18  C   UNL     1      -1.842   1.106  -3.048  0.00  0.00    +0.023 A 
ATOM     19  C   UNL     1      -0.687   1.796  -3.391  0.00  0.00    +0.036 A 
ATOM     20  C   UNL     1       0.486   1.098  -3.644  0.00  0.00    -0.026 A 
ATOM     21  C   UNL     1       1.742   1.843  -4.016  0.00  0.00    +0.046 C 
ENDBRANCH  10  19
ENDBRANCH   9  11
ENDBRANCH   7   9
ENDBRANCH   5   7
ENDBRANCH   1   5
BRANCH   3  22
ATOM     22  C   UNL     1      -5.077   9.674  -0.117  0.00  0.00    +0.200 C 
BRANCH  22  23
ATOM     23  C   UNL     1      -5.048  11.180  -0.069  0.00  0.00    +0.234 C 
ATOM     24  O   UNL     1      -4.263  11.793  -0.760  0.00  0.00    -0.274 OA
ATOM     25  N   UNL     1      -5.894  11.845   0.742  0.00  0.00    -0.284 N 
ATOM     26  H   UNL     1      -6.464  11.355   1.356  0.00  0.00    +0.155 HD
BRANCH  25  27
ATOM     27  C   UNL     1      -5.952  13.242   0.699  0.00  0.00    +0.039 A 
ATOM     28  C   UNL     1      -4.805  13.993   0.920  0.00  0.00    -0.029 A 
ATOM     29  C   UNL     1      -4.864  15.372   0.872  0.00  0.00    +0.008 A 
ATOM     30  C   UNL     1      -6.066  16.006   0.614  0.00  0.00    -0.050 A 
ATOM     31  C   UNL     1      -7.211  15.261   0.398  0.00  0.00    +0.008 A 
ATOM     32  C   UNL     1      -7.157  13.881   0.440  0.00  0.00    -0.029 A 
ATOM     33  C   UNL     1      -8.406  13.071   0.204  0.00  0.00    +0.045 C 
ATOM     34  C   UNL     1      -6.128  17.511   0.568  0.00  0.00    +0.044 C 
ATOM     35  C   UNL     1      -3.496  13.304   1.207  0.00  0.00    +0.045 C 
ENDBRANCH  25  27
ENDBRANCH  22  23
ENDBRANCH   3  22
TORSDOF 8
