REMARK  Name = ZINC10529241
REMARK  7 active torsions:
REMARK  status: ('A' for Active; 'I' for Inactive)
REMARK    1  A    between atoms: C_1  and  C_2
REMARK    2  A    between atoms: C_7  and  C_8
REMARK    3  A    between atoms: N_11  and  C_12
REMARK    4  A    between atoms: C_12  and  C_14
REMARK    5  A    between atoms: N_17  and  S_20
REMARK    6  A    between atoms: S_20  and  C_23
REMARK    7  A    between atoms: N_30  and  C_31
REMARK                            x       y       z     vdW  Elec       q    Type
REMARK                         _______ _______ _______ _____ _____    ______ ____
ROOT
ATOM      1  C   UNL     1      -5.775   6.251  -0.278  0.00  0.00    +0.080 C 
ATOM      2  C   UNL     1      -5.854   7.400   0.730  0.00  0.00    +0.030 C 
ATOM      3  C   UNL     1      -7.107   8.236   0.449  0.00  0.00    +0.110 C 
ATOM      4  N   UNL     1      -8.277   7.348   0.453  0.00  0.00    -0.177 NA
ATOM      5  C   UNL     1      -8.267   6.161  -0.413  0.00  0.00    +0.110 C 
ATOM      6  C   UNL     1      -7.001   5.349  -0.122  0.00  0.00    +0.030 C 
ENDROOT
BRANCH   4   7
ATOM      7  S   UNL     1      -9.584   7.679   1.415  0.00  0.00    +0.061 S 
ATOM      8  O   UNL     1      -9.558   9.077   1.669  0.00  0.00    -0.153 OA
ATOM      9  O   UNL     1     -10.701   7.034   0.819  0.00  0.00    -0.153 OA
BRANCH   7  10
ATOM     10  C   UNL     1      -9.307   6.881   2.962  0.00  0.00    +0.106 A 
ATOM     11  C   UNL     1      -9.754   5.588   3.162  0.00  0.00    +0.030 A 
ATOM     12  C   UNL     1      -9.532   4.960   4.373  0.00  0.00    +0.022 A 
ATOM     13  C   UNL     1      -8.873   5.630   5.389  0.00  0.00    +0.041 A 
ATOM     14  C   UNL     1      -8.432   6.926   5.190  0.00  0.00    +0.022 A 
ATOM     15  C   UNL     1      -8.649   7.551   3.976  0.00  0.00    +0.030 A 
ATOM     16 CL   UNL     1      -8.601   4.843   6.912  0.00  0.00    -0.084 Cl
ENDBRANCH   7  10
ENDBRANCH   4   7
BRANCH   1  17
ATOM     17  C   UNL     1      -4.525   5.447  -0.025  0.00  0.00    +0.242 C 
ATOM     18  O   UNL     1      -4.608   4.266   0.253  0.00  0.00    -0.273 OA
BRANCH  17  29
ATOM     19  C   UNL     1      -0.635   4.446   6.596  0.00  0.00    +0.044 C 
ATOM     20  C   UNL     1      -0.570   4.972   5.185  0.00  0.00    -0.046 A 
ATOM     21  C   UNL     1      -1.690   4.910   4.390  0.00  0.00    +0.030 A 
ATOM     22  C   UNL     1      -1.663   5.396   3.074  0.00  0.00    +0.058 A 
ATOM     23  C   UNL     1      -0.446   5.928   2.622  0.00  0.00    +0.039 A 
ATOM     24  C   UNL     1       0.674   5.985   3.416  0.00  0.00    +0.020 A 
ATOM     25  C   UNL     1       0.618   5.503   4.712  0.00  0.00    -0.046 A 
ATOM     26  C   UNL     1       1.836   5.556   5.598  0.00  0.00    +0.044 C 
ATOM     27  S   UNL     1      -0.810   6.416   0.954  0.00  0.00    -0.052 S 
ATOM     28  C   UNL     1      -2.473   5.928   0.905  0.00  0.00    +0.166 A 
ATOM     29  N   UNL     1      -3.333   6.029  -0.106  0.00  0.00    -0.156 NA
ATOM     30  N   UNL     1      -2.688   5.417   2.146  0.00  0.00    -0.324 N 
ATOM     31  C   UNL     1      -4.007   4.888   2.501  0.00  0.00    +0.151 C 
ENDBRANCH  17  29
ENDBRANCH   1  17
TORSDOF 4
