REMARK  Name = ZINC03369245
REMARK  6 active torsions:
REMARK  status: ('A' for Active; 'I' for Inactive)
REMARK    1  A    between atoms: C_6  and  N_7
REMARK    2  A    between atoms: C_8  and  C_10
REMARK    3  A    between atoms: C_10  and  N_11
REMARK    4  A    between atoms: C_12  and  C_14
REMARK    5  A    between atoms: C_14  and  N_15
REMARK    6  A    between atoms: C_16  and  C_18
REMARK                            x       y       z     vdW  Elec       q    Type
REMARK                         _______ _______ _______ _____ _____    ______ ____
ROOT
ATOM      1  N   UNL     1       3.416   2.296  -0.311  0.00  0.00    -0.305 N 
ATOM      2  C   UNL     1       4.737   2.032  -0.273  0.00  0.00    +0.231 C 
ATOM      3  O   UNL     1       5.124   0.906  -0.043  0.00  0.00    -0.274 OA
ATOM      4  H   UNL     1       3.107   3.197  -0.495  0.00  0.00    +0.149 HD
ENDROOT
BRANCH   1   5
ATOM      5  C   UNL     1       2.448   1.223  -0.076  0.00  0.00    +0.200 C 
BRANCH   5   7
ATOM      6  N   UNL     1      -0.011   0.966   0.007  0.00  0.00    -0.284 N 
ATOM      7  C   UNL     1       1.050   1.777  -0.174  0.00  0.00    +0.234 C 
ATOM      8  O   UNL     1       0.879   2.953  -0.417  0.00  0.00    -0.274 OA
ATOM      9  H   UNL     1       0.122   0.012   0.124  0.00  0.00    +0.155 HD
BRANCH   6  15
ATOM     10  C   UNL     1      -1.528   2.769   0.536  0.00  0.00    +0.024 A 
ATOM     11  C   UNL     1      -2.805   3.295   0.544  0.00  0.00    +0.017 A 
ATOM     12  C   UNL     1      -3.864   2.553   0.051  0.00  0.00    +0.018 A 
ATOM     13  C   UNL     1      -3.645   1.284  -0.456  0.00  0.00    +0.017 A 
ATOM     14  C   UNL     1      -2.369   0.756  -0.472  0.00  0.00    +0.024 A 
ATOM     15  C   UNL     1      -1.305   1.499   0.022  0.00  0.00    +0.033 A 
ATOM     16 BR   UNL     1      -5.612   3.273   0.071  0.00  0.00    -0.050 Br
ENDBRANCH   6  15
ENDBRANCH   5   7
ENDBRANCH   1   5
BRANCH   2  17
ATOM     17  C   UNL     1       5.734   3.137  -0.515  0.00  0.00    +0.200 C 
BRANCH  17  18
ATOM     18  N   UNL     1       7.093   2.598  -0.419  0.00  0.00    -0.303 N 
ATOM     19  C   UNL     1       8.154   3.409  -0.601  0.00  0.00    +0.246 C 
ATOM     20  O   UNL     1       7.983   4.588  -0.844  0.00  0.00    -0.270 OA
ATOM     21  H   UNL     1       7.229   1.657  -0.225  0.00  0.00    +0.150 HD
BRANCH  19  22
ATOM     22  C   UNL     1       9.524   2.866  -0.504  0.00  0.00    +0.055 A 
ATOM     23  C   UNL     1       9.723   1.512  -0.225  0.00  0.00    +0.016 A 
ATOM     24  C   UNL     1      11.004   1.011  -0.137  0.00  0.00    +0.021 A 
ATOM     25  C   UNL     1      12.094   1.846  -0.325  0.00  0.00    +0.042 A 
ATOM     26  C   UNL     1      11.904   3.189  -0.602  0.00  0.00    +0.040 A 
ATOM     27  C   UNL     1      10.626   3.703  -0.698  0.00  0.00    +0.054 A 
ATOM     28 CL   UNL     1      10.389   5.386  -1.053  0.00  0.00    -0.083 Cl
ATOM     29 CL   UNL     1      13.704   1.206  -0.211  0.00  0.00    -0.083 Cl
ENDBRANCH  19  22
ENDBRANCH  17  18
ENDBRANCH   2  17
TORSDOF 6
