REMARK  Name = ZINC61861020
REMARK  4 active torsions:
REMARK  status: ('A' for Active; 'I' for Inactive)
REMARK    1  A    between atoms: C_1  and  C_2
REMARK    2  A    between atoms: C_11  and  C_14
REMARK    3  A    between atoms: C_14  and  N_15
REMARK    4  A    between atoms: N_22  and  C_25
REMARK                            x       y       z     vdW  Elec       q    Type
REMARK                         _______ _______ _______ _____ _____    ______ ____
ROOT
ATOM      1  C   UNL     1      -4.191  -5.500  -3.181  0.00  0.00    +0.142 C 
ENDROOT
BRANCH   1  12
ATOM      2  C   UNL     1      -0.038   1.561  -0.037  0.00  0.00    +0.039 C 
ATOM      3  C   UNL     1      -0.015   0.031  -0.034  0.00  0.00    +0.132 C 
ATOM      4  C   UNL     1      -1.452  -0.503  -0.015  0.00  0.00    +0.137 C 
ATOM      5  N   UNL     1      -1.403  -1.961   0.177  0.00  0.00    -0.312 N 
ATOM      6  C   UNL     1      -0.591  -2.485   1.286  0.00  0.00    +0.134 C 
ATOM      7  C   UNL     1       0.804  -1.855   1.205  0.00  0.00    +0.179 C 
ATOM      8  O   UNL     1       0.675  -0.433   1.129  0.00  0.00    -0.374 OA
ATOM      9  C   UNL     1      -2.103  -2.817  -0.665  0.00  0.00    +0.099 A 
ATOM     10  C   UNL     1      -2.949  -2.291  -1.636  0.00  0.00    +0.042 A 
ATOM     11  C   UNL     1      -3.639  -3.154  -2.467  0.00  0.00    +0.010 A 
ATOM     12  C   UNL     1      -3.459  -4.521  -2.299  0.00  0.00    -0.014 A 
ATOM     13  C   UNL     1      -2.604  -4.975  -1.315  0.00  0.00    +0.089 A 
ATOM     14  N   UNL     1      -1.954  -4.127  -0.539  0.00  0.00    -0.349 N 
ATOM     15  H   UNL     1      -1.356  -4.472   0.142  0.00  0.00    +0.167 HD
ENDBRANCH   1  12
BRANCH   1  16
ATOM     16  N   UNL     1      -3.380  -5.790  -4.366  0.00  0.00    -0.295 N 
ATOM     17  C   UNL     1      -3.837  -6.645  -5.302  0.00  0.00    +0.302 C 
ATOM     18  O   UNL     1      -4.959  -7.103  -5.211  0.00  0.00    -0.253 OA
ATOM     19  N   UNL     1      -3.049  -6.993  -6.339  0.00  0.00    -0.287 N 
ATOM     20  C   UNL     1      -3.617  -7.830  -7.415  0.00  0.00    +0.107 C 
ATOM     21  C   UNL     1      -3.153  -7.342  -8.799  0.00  0.00    +0.000 C 
ATOM     22  C   UNL     1      -3.148  -5.829  -8.824  0.00  0.00    -0.077 C 
ATOM     23  N   UNL     1      -1.815  -5.345  -8.473  0.00  0.00    +0.383 N 
ATOM     24  C   UNL     1      -1.590  -5.171  -7.089  0.00  0.00    -0.059 C 
ATOM     25  C   UNL     1      -1.678  -6.527  -6.361  0.00  0.00    +0.091 C 
ATOM     26  H   UNL     1      -2.514  -5.366  -4.477  0.00  0.00    +0.151 HD
ATOM     27  H   UNL     1      -1.135  -6.002  -8.826  0.00  0.00    -0.081 HD
BRANCH  23  28
ATOM     28  C   UNL     1      -1.598  -4.056  -9.143  0.00  0.00    -0.069 C 
ATOM     29  C   UNL     1      -0.560  -4.010 -10.266  0.00  0.00    -0.017 C 
ATOM     30  C   UNL     1      -0.256  -3.359  -8.916  0.00  0.00    -0.017 C 
ENDBRANCH  23  28
ENDBRANCH   1  16
TORSDOF 3
