REMARK  Name = ZINC63351188
REMARK  5 active torsions:
REMARK  status: ('A' for Active; 'I' for Inactive)
REMARK    1  A    between atoms: C_1  and  C_2
REMARK    2  A    between atoms: C_2  and  C_3
REMARK    3  A    between atoms: C_2  and  C_4
REMARK    4  A    between atoms: C_7  and  N_10
REMARK    5  A    between atoms: C_13  and  C_20
REMARK                            x       y       z     vdW  Elec       q    Type
REMARK                         _______ _______ _______ _____ _____    ______ ____
ROOT
ATOM      1  N   UNL     1       2.587  -1.956  -4.669  0.00  0.00    -0.229 N 
ATOM      2  C   UNL     1       3.741  -2.641  -4.556  0.00  0.00    +0.270 A 
ATOM      3  O   UNL     1       4.153  -2.975  -3.458  0.00  0.00    -0.267 OA
ATOM      4  C   UNL     1       4.468  -2.970  -5.714  0.00  0.00    +0.101 A 
ATOM      5  C   UNL     1       3.987  -2.586  -6.930  0.00  0.00    +0.263 A 
ATOM      6  N   UNL     1       2.807  -1.889  -7.000  0.00  0.00    -0.274 N 
ATOM      7  H   UNL     1       2.460  -1.614  -7.862  0.00  0.00    +0.173 HD
ATOM      8  C   UNL     1       2.125  -1.590  -5.879  0.00  0.00    +0.337 A 
ATOM      9  O   UNL     1       1.078  -0.976  -5.960  0.00  0.00    -0.246 OA
ATOM     10  O   UNL     1       4.665  -2.888  -8.057  0.00  0.00    -0.267 OA
ENDROOT
BRANCH   4  11
ATOM     11  C   UNL     1       5.763  -3.735  -5.612  0.00  0.00    +0.121 C 
ATOM     12  C   UNL     1       5.683  -5.000  -6.471  0.00  0.00    +0.128 C 
ATOM     13  C   UNL     1       5.596  -4.527  -7.918  0.00  0.00    -0.035 C 
ATOM     14  C   UNL     1       4.520  -5.102  -8.437  0.00  0.00    -0.001 A 
ATOM     15  C   UNL     1       3.967  -5.100  -9.800  0.00  0.00    +0.010 A 
ATOM     16  C   UNL     1       2.815  -5.799  -9.982  0.00  0.00    +0.001 A 
ATOM     17  C   UNL     1       2.166  -6.491  -8.955  0.00  0.00    +0.002 A 
ATOM     18  C   UNL     1       2.607  -6.552  -7.673  0.00  0.00    +0.026 A 
ATOM     19  C   UNL     1       3.812  -5.860  -7.360  0.00  0.00    +0.043 A 
ATOM     20  N   UNL     1       4.470  -5.776  -6.219  0.00  0.00    -0.376 N 
ATOM     21  C   UNL     1       6.565  -3.514  -8.480  0.00  0.00    +0.048 C 
ATOM     22  C   UNL     1       6.631  -2.368  -7.454  0.00  0.00    +0.086 C 
ATOM     23  N   UNL     1       6.870  -2.905  -6.111  0.00  0.00    -0.307 NA
ATOM     24  H   UNL     1       7.091  -2.167  -5.459  0.00  0.00    +0.123 HD
ATOM     25  H   UNL     1       4.204  -6.152  -5.365  0.00  0.00    +0.160 HD
ENDBRANCH   4  11
BRANCH   1  29
ATOM     26  C   UNL     1       0.421  -0.977  -1.244  0.00  0.00    -0.045 A 
ATOM     27  C   UNL     1       0.178  -2.172  -1.897  0.00  0.00    +0.006 A 
ATOM     28  C   UNL     1       0.894  -2.499  -3.032  0.00  0.00    +0.027 A 
ATOM     29  C   UNL     1       1.858  -1.627  -3.518  0.00  0.00    +0.054 A 
ATOM     30  C   UNL     1       2.100  -0.428  -2.861  0.00  0.00    +0.027 A 
ATOM     31  C   UNL     1       1.378  -0.104  -1.729  0.00  0.00    +0.006 A 
BRANCH  26  33
ATOM     32  C   UNL     1      -1.853  -0.570  -0.344  0.00  0.00    +0.012 C 
ATOM     33  C   UNL     1      -0.362  -0.624  -0.006  0.00  0.00    +0.013 C 
ATOM     34  C   UNL     1      -0.120  -1.684   1.070  0.00  0.00    +0.012 C 
ENDBRANCH  26  33
ENDBRANCH   1  29
TORSDOF 3
