REMARK  Name = ZINC12057803
REMARK  4 active torsions:
REMARK  status: ('A' for Active; 'I' for Inactive)
REMARK    1  A    between atoms: N_4  and  C_6
REMARK    2  A    between atoms: C_6  and  C_7
REMARK    3  A    between atoms: C_13  and  C_15
REMARK    4  A    between atoms: N_20  and  C_21
REMARK                            x       y       z     vdW  Elec       q    Type
REMARK                         _______ _______ _______ _____ _____    ______ ____
ROOT
ATOM      1  C   UNL     1       3.747  -7.423  -6.861  0.00  0.00    +0.013 C 
ATOM      2  C   UNL     1       5.052  -7.564  -6.074  0.00  0.00    +0.024 C 
ATOM      3  C   UNL     1       4.737  -7.623  -4.576  0.00  0.00    +0.108 C 
ATOM      4  N   UNL     1       3.939  -6.444  -4.214  0.00  0.00    -0.297 N 
ATOM      5  C   UNL     1       2.707  -6.167  -4.965  0.00  0.00    +0.108 C 
ATOM      6  C   UNL     1       3.048  -6.121  -6.462  0.00  0.00    +0.024 C 
ATOM      7  C   UNL     1       4.327  -5.635  -3.208  0.00  0.00    +0.248 C 
ATOM      8  O   UNL     1       5.398  -5.816  -2.661  0.00  0.00    -0.270 OA
ENDROOT
BRANCH   7   9
ATOM      9  C   UNL     1       3.452  -4.531  -2.770  0.00  0.00    +0.053 A 
ATOM     10  C   UNL     1       2.066  -4.721  -2.661  0.00  0.00    +0.018 A 
ATOM     11  C   UNL     1       1.292  -3.669  -2.251  0.00  0.00    +0.042 A 
ATOM     12  C   UNL     1       1.899  -2.449  -1.956  0.00  0.00    +0.096 A 
ATOM     13  C   UNL     1       3.991  -3.282  -2.459  0.00  0.00    +0.097 A 
ATOM     14  N   UNL     1       1.119  -1.382  -1.542  0.00  0.00    -0.327 N 
ATOM     15  H   UNL     1       1.534  -0.530  -1.335  0.00  0.00    +0.148 HD
ATOM     16  N   UNL     1       3.243  -2.224  -2.056  0.00  0.00    -0.349 N 
ATOM     17  H   UNL     1       3.660  -1.311  -1.839  0.00  0.00    +0.167 HD
BRANCH  14  18
ATOM     18  C   UNL     1      -0.332  -1.541  -1.416  0.00  0.00    +0.082 C 
ATOM     19  C   UNL     1      -0.984  -0.174  -1.567  0.00  0.00    +0.033 C 
ATOM     20  C   UNL     1      -1.822   0.257  -0.342  0.00  0.00    +0.071 C 
ATOM     21  S   UNL     1      -2.188  -1.375   0.437  0.00  0.00    -0.159 S 
ATOM     22  C   UNL     1      -0.633  -2.232  -0.067  0.00  0.00    +0.091 C 
ENDBRANCH  14  18
ENDBRANCH   7   9
BRANCH   1  23
ATOM     23  C   UNL     1       4.055  -7.398  -8.359  0.00  0.00    +0.147 C 
BRANCH  23  27
ATOM     24  C   UNL     1       1.218  -6.811 -10.507  0.00  0.00    +0.041 A 
ATOM     25  C   UNL     1       0.809  -7.967  -9.834  0.00  0.00    +0.134 A 
ATOM     26  N   UNL     1       1.757  -8.311  -9.000  0.00  0.00    -0.180 NA
ATOM     27  N   UNL     1       2.800  -7.383  -9.115  0.00  0.00    -0.271 N 
ATOM     28  C   UNL     1       2.442  -6.469 -10.042  0.00  0.00    +0.108 A 
ENDBRANCH  23  27
ENDBRANCH   1  23
TORSDOF 4
