REMARK  Name = ZINC08856421
REMARK  10 active torsions:
REMARK  status: ('A' for Active; 'I' for Inactive)
REMARK    1  A    between atoms: C_1  and  C_2
REMARK    2  A    between atoms: C_2  and  N_3
REMARK    3  A    between atoms: N_3  and  C_4
REMARK    4  A    between atoms: C_4  and  C_5
REMARK    5  A    between atoms: C_6  and  C_8
REMARK    6  A    between atoms: C_8  and  N_9
REMARK    7  A    between atoms: C_16  and  C_19
REMARK    8  A    between atoms: C_16  and  O_29
REMARK    9  A    between atoms: C_19  and  C_20
REMARK   10  A    between atoms: C_20  and  C_22
REMARK                            x       y       z     vdW  Elec       q    Type
REMARK                         _______ _______ _______ _____ _____    ______ ____
ROOT
ATOM      1  N   UNL     1       1.056   2.022   0.003  0.00  0.00    -0.260 N 
ATOM      2  C   UNL     1       0.695   3.369   0.013  0.00  0.00    +0.043 A 
ATOM      3  C   UNL     1       1.478   4.522   0.011  0.00  0.00    +0.024 A 
ATOM      4  C   UNL     1       0.881   5.765   0.022  0.00  0.00    +0.002 A 
ATOM      5  C   UNL     1      -0.497   5.879   0.035  0.00  0.00    +0.000 A 
ATOM      6  C   UNL     1      -1.282   4.739   0.037  0.00  0.00    +0.009 A 
ATOM      7  C   UNL     1      -0.688   3.497   0.026  0.00  0.00    +0.015 A 
ATOM      8  C   UNL     1      -1.244   2.091   0.018  0.00  0.00    +0.175 C 
ATOM      9  C   UNL     1      -0.014   1.209   0.009  0.00  0.00    +0.257 C 
ATOM     10  O   UNL     1       0.002  -0.004   0.002  0.00  0.00    -0.272 OA
ENDROOT
BRANCH   8  11
ATOM     11  O   UNL     1      -2.030   1.868  -1.154  0.00  0.00    -0.374 OA
ATOM     12  H   UNL     1      -2.363   0.964  -1.238  0.00  0.00    +0.211 HD
ENDBRANCH   8  11
BRANCH   1  13
ATOM     13  C   UNL     1       2.442   1.547  -0.013  0.00  0.00    +0.209 C 
BRANCH  13  15
ATOM     14  N   UNL     1       4.154   0.963  -1.699  0.00  0.00    -0.301 N 
ATOM     15  C   UNL     1       2.903   1.391  -1.439  0.00  0.00    +0.233 C 
ATOM     16  O   UNL     1       2.149   1.651  -2.352  0.00  0.00    -0.274 OA
BRANCH  14  18
ATOM     17  C   UNL     1       5.227   2.123  -3.566  0.00  0.00    +0.024 C 
ATOM     18  C   UNL     1       4.603   0.811  -3.085  0.00  0.00    +0.104 C 
ENDBRANCH  14  18
BRANCH  14  19
ATOM     19  C   UNL     1       5.066   0.649  -0.596  0.00  0.00    +0.104 C 
ATOM     20  C   UNL     1       4.915  -0.825  -0.213  0.00  0.00    +0.024 C 
ENDBRANCH  14  19
ENDBRANCH  13  15
ENDBRANCH   1  13
BRANCH   8  21
ATOM     21  C   UNL     1      -2.075   1.840   1.279  0.00  0.00    +0.129 C 
BRANCH  21  22
ATOM     22  C   UNL     1      -2.434   0.378   1.360  0.00  0.00    +0.167 C 
ATOM     23  O   UNL     1      -2.063  -0.386   0.495  0.00  0.00    -0.292 OA
BRANCH  22  24
ATOM     24  C   UNL     1      -3.236  -0.120   2.488  0.00  0.00    +0.018 A 
ATOM     25  C   UNL     1      -3.661   0.757   3.490  0.00  0.00    +0.012 A 
ATOM     26  C   UNL     1      -4.416   0.284   4.542  0.00  0.00    +0.016 A 
ATOM     27  C   UNL     1      -4.745  -1.060   4.613  0.00  0.00    +0.018 A 
ATOM     28  C   UNL     1      -4.322  -1.937   3.627  0.00  0.00    +0.016 A 
ATOM     29  C   UNL     1      -3.571  -1.476   2.567  0.00  0.00    +0.012 A 
ATOM     30 BR   UNL     1      -5.775  -1.701   6.063  0.00  0.00    -0.050 Br
ENDBRANCH  22  24
ENDBRANCH  21  22
ENDBRANCH   8  21
TORSDOF 8
