REMARK  Name = ZINC06995520
REMARK  3 active torsions:
REMARK  status: ('A' for Active; 'I' for Inactive)
REMARK    1  A    between atoms: C_1  and  C_2
REMARK    2  A    between atoms: C_17  and  O_34
REMARK    3  A    between atoms: C_19  and  C_33
REMARK                            x       y       z     vdW  Elec       q    Type
REMARK                         _______ _______ _______ _____ _____    ______ ____
ROOT
ATOM      1  C   UNL     1       0.480   1.675   0.220  0.00  0.00    +0.016 C 
ATOM      2  C   UNL     1       0.434   0.109   0.223  0.00  0.00    -0.003 C 
ATOM      3  C   UNL     1      -1.020  -0.191   0.502  0.00  0.00    +0.019 C 
ATOM      4  C   UNL     1      -1.265  -1.558   1.228  0.00  0.00    +0.080 C 
ATOM      5  C   UNL     1      -0.443  -1.489   2.508  0.00  0.00    +0.156 C 
ATOM      6  O   UNL     1      -0.961  -1.944   3.525  0.00  0.00    -0.293 OA
ATOM      7  C   UNL     1       0.853  -0.974   2.531  0.00  0.00    +0.050 C 
ATOM      8  C   UNL     1       1.336  -0.295   1.448  0.00  0.00    -0.035 C 
ATOM      9  C   UNL     1       2.719   0.069   1.290  0.00  0.00    -0.050 C 
ATOM     10  C   UNL     1       3.412   0.733   2.189  0.00  0.00    +0.012 C 
ATOM     11  C   UNL     1       3.388  -0.354   0.027  0.00  0.00    +0.039 C 
ATOM     12  C   UNL     1       2.483   0.051  -1.164  0.00  0.00    +0.001 C 
ATOM     13  C   UNL     1       1.059  -0.489  -1.035  0.00  0.00    +0.005 C 
ATOM     14  C   UNL     1       0.249  -0.069  -2.251  0.00  0.00    +0.036 C 
ATOM     15  C   UNL     1       0.783  -0.842  -3.398  0.00  0.00    +0.124 C 
ATOM     16  C   UNL     1       2.275  -0.304  -3.729  0.00  0.00    +0.031 C 
ATOM     17  C   UNL     1       3.115  -0.537  -2.483  0.00  0.00    +0.004 C 
ATOM     18  C   UNL     1       3.396  -1.942  -2.400  0.00  0.00    +0.007 C 
ATOM     19  C   UNL     1       3.316  -2.513  -3.879  0.00  0.00    +0.041 C 
ATOM     20  C   UNL     1       2.829  -1.353  -4.688  0.00  0.00    +0.136 C 
ATOM     21  C   UNL     1       4.037  -0.773  -5.421  0.00  0.00    +0.228 C 
ATOM     22  C   UNL     1       5.258  -1.701  -5.433  0.00  0.00    +0.230 C 
ATOM     23  O   UNL     1       6.286  -0.809  -6.039  0.00  0.00    -0.349 OA
ATOM     24  C   UNL     1       5.850   0.528  -5.834  0.00  0.00    +0.326 C 
ATOM     25  O   UNL     1       4.557   0.457  -5.034  0.00  0.00    -0.318 OA
ATOM     26  O   UNL     1       3.602  -0.742  -6.813  0.00  0.00    -0.318 OA
ATOM     27  C   UNL     1       2.666  -1.773  -6.884  0.00  0.00    +0.327 C 
ATOM     28  O   UNL     1       1.885  -1.760  -5.626  0.00  0.00    -0.341 OA
ATOM     29  C   UNL     1       2.190   1.092  -4.277  0.00  0.00    +0.017 C 
ENDROOT
BRANCH  15  30
ATOM     30  O   UNL     1       0.760  -2.177  -3.296  0.00  0.00    -0.391 OA
ATOM     31  H   UNL     1      -0.125  -2.547  -3.180  0.00  0.00    +0.210 HD
ENDBRANCH  15  30
TORSDOF 1
