REMARK  Name = ZINC20558377
REMARK  5 active torsions:
REMARK  status: ('A' for Active; 'I' for Inactive)
REMARK    1  A    between atoms: C_1  and  C_2
REMARK    2  A    between atoms: C_2  and  N_3
REMARK    3  A    between atoms: C_15  and  C_23
REMARK    4  A    between atoms: C_17  and  C_21
REMARK    5  A    between atoms: C_18  and  N_20
REMARK                            x       y       z     vdW  Elec       q    Type
REMARK                         _______ _______ _______ _____ _____    ______ ____
ROOT
ATOM      1  N   UNL     1       2.329   3.943   0.016  0.00  0.00    -0.203 N 
ATOM      2  C   UNL     1       1.153   3.184   0.010  0.00  0.00    +0.062 A 
ATOM      3  C   UNL     1      -0.068   3.848   0.021  0.00  0.00    +0.025 A 
ATOM      4  C   UNL     1      -1.248   3.129   0.028  0.00  0.00    +0.002 A 
ATOM      5  C   UNL     1      -1.216   1.745   0.017  0.00  0.00    +0.001 A 
ATOM      6  C   UNL     1      -0.013   1.076   0.008  0.00  0.00    +0.013 A 
ATOM      7  C   UNL     1       1.193   1.790   0.000  0.00  0.00    +0.042 A 
ATOM      8  C   UNL     1       2.456   1.014  -0.025  0.00  0.00    +0.162 C 
ATOM      9  C   UNL     1       3.621   1.567   0.299  0.00  0.00    +0.141 C 
ATOM     10  S   UNL     1       3.656   3.273   0.766  0.00  0.00    +0.075 S 
ATOM     11  O   UNL     1       3.413   3.326   2.165  0.00  0.00    -0.150 OA
ATOM     12  O   UNL     1       4.809   3.845   0.163  0.00  0.00    -0.150 OA
ATOM     13  C   UNL     1       4.903   0.782   0.276  0.00  0.00    +0.118 C 
ATOM     14  C   UNL     1       4.731  -0.470  -0.540  0.00  0.00    +0.099 C 
ATOM     15  C   UNL     1       3.488  -0.933  -0.826  0.00  0.00    +0.199 C 
ATOM     16  O   UNL     1       2.390  -0.294  -0.391  0.00  0.00    -0.439 OA
ENDROOT
BRANCH  13  17
ATOM     17  C   UNL     1       5.287   0.411   1.686  0.00  0.00    -0.033 A 
ATOM     18  C   UNL     1       4.439  -0.368   2.450  0.00  0.00    +0.004 A 
ATOM     19  C   UNL     1       4.792  -0.713   3.741  0.00  0.00    +0.000 A 
ATOM     20  C   UNL     1       5.990  -0.270   4.271  0.00  0.00    +0.000 A 
ATOM     21  C   UNL     1       6.835   0.514   3.509  0.00  0.00    +0.000 A 
ATOM     22  C   UNL     1       6.484   0.854   2.216  0.00  0.00    +0.004 A 
ENDBRANCH  13  17
BRANCH  15  23
ATOM     23  N   UNL     1       3.350  -2.075  -1.575  0.00  0.00    -0.328 N 
ATOM     24  H   UNL     1       2.347  -2.459  -1.812  0.00  0.00    +0.145 HD
ATOM     25  H   UNL     1       4.243  -2.606  -1.937  0.00  0.00    +0.145 HD
ENDBRANCH  15  23
BRANCH   1  27
ATOM     26  C   UNL     1       2.687   5.111  -2.103  0.00  0.00    +0.026 C 
ATOM     27  C   UNL     1       2.390   5.266  -0.610  0.00  0.00    +0.128 C 
ENDBRANCH   1  27
BRANCH  14  28
ATOM     28  C   UNL     1       5.882  -1.176  -1.015  0.00  0.00    +0.101 C 
ATOM     29  N   UNL     1       6.796  -1.736  -1.393  0.00  0.00    -0.191 NA
ENDBRANCH  14  28
TORSDOF 4
