REMARK  Name = ZINC20372821
REMARK  3 active torsions:
REMARK  status: ('A' for Active; 'I' for Inactive)
REMARK    1  A    between atoms: C_4  and  O_8
REMARK    2  A    between atoms: C_5  and  N_7
REMARK    3  A    between atoms: O_8  and  C_9
REMARK                            x       y       z     vdW  Elec       q    Type
REMARK                         _______ _______ _______ _____ _____    ______ ____
ROOT
ATOM      1  C   UNL     1       2.117   7.984  -0.293  0.00  0.00    +0.002 A 
ATOM      2  C   UNL     1       0.958   7.239  -0.177  0.00  0.00    +0.004 A 
ATOM      3  C   UNL     1       1.024   5.861  -0.085  0.00  0.00    +0.048 A 
ATOM      4  C   UNL     1       2.255   5.223  -0.096  0.00  0.00    +0.149 A 
ATOM      5  C   UNL     1       3.423   5.974  -0.212  0.00  0.00    +0.067 A 
ATOM      6  C   UNL     1       3.348   7.356  -0.310  0.00  0.00    +0.026 A 
ENDROOT
BRANCH   5   7
ATOM      7  N   UNL     1       4.668   5.336  -0.229  0.00  0.00    -0.355 N 
ATOM      8  H   UNL     1       5.589   5.930  -0.321  0.00  0.00    +0.142 HD
ATOM      9  H   UNL     1       4.726   4.240  -0.152  0.00  0.00    +0.142 HD
ENDBRANCH   5   7
BRANCH   4  10
ATOM     10  O   UNL     1       2.322   3.869   0.001  0.00  0.00    -0.453 OA
BRANCH  10  11
ATOM     11  C   UNL     1       1.156   3.170  -0.013  0.00  0.00    +0.147 A 
ATOM     12  C   UNL     1       0.585   2.748   1.179  0.00  0.00    +0.049 A 
ATOM     13  C   UNL     1      -0.599   2.037   1.163  0.00  0.00    +0.019 A 
ATOM     14  C   UNL     1      -1.220   1.750  -0.040  0.00  0.00    +0.019 A 
ATOM     15  C   UNL     1      -0.650   2.165  -1.230  0.00  0.00    +0.039 A 
ATOM     16  C   UNL     1       0.535   2.876  -1.219  0.00  0.00    +0.084 A 
ATOM     17 CL   UNL     1       1.246   3.403  -2.713  0.00  0.00    -0.080 Cl
ATOM     18 BR   UNL     1      -2.845   0.784  -0.057  0.00  0.00    -0.050 Br
ENDBRANCH  10  11
ENDBRANCH   4  10
TORSDOF 3
