REMARK  Name = ZINC37930046
REMARK  8 active torsions:
REMARK  status: ('A' for Active; 'I' for Inactive)
REMARK    1  A    between atoms: C_3  and  N_18
REMARK    2  A    between atoms: C_4  and  S_9
REMARK    3  A    between atoms: C_6  and  N_7
REMARK    4  A    between atoms: N_7  and  N_8
REMARK    5  A    between atoms: S_9  and  N_12
REMARK    6  A    between atoms: N_12  and  C_13
REMARK    7  A    between atoms: C_13  and  C_14
REMARK    8  A    between atoms: C_14  and  C_15
REMARK                            x       y       z     vdW  Elec       q    Type
REMARK                         _______ _______ _______ _____ _____    ______ ____
ROOT
ATOM      1  C   UNL     1      -0.005   0.787   0.671  0.00  0.00    +0.026 A 
ATOM      2  C   UNL     1       1.089   1.627   0.747  0.00  0.00    +0.036 A 
ATOM      3  C   UNL     1       2.363   1.123   0.563  0.00  0.00    +0.152 A 
ATOM      4  C   UNL     1       2.547  -0.223   0.302  0.00  0.00    +0.137 A 
ATOM      5  C   UNL     1       1.458  -1.068   0.224  0.00  0.00    +0.055 A 
ATOM      6  C   UNL     1       0.176  -0.565   0.409  0.00  0.00    +0.043 A 
ENDROOT
BRANCH   4   7
ATOM      7  S   UNL     1       4.173  -0.860   0.068  0.00  0.00    +0.061 S 
ATOM      8  O   UNL     1       4.039  -2.265  -0.101  0.00  0.00    -0.153 OA
ATOM      9  O   UNL     1       4.797  -0.033  -0.904  0.00  0.00    -0.153 OA
BRANCH   7  10
ATOM     10  N   UNL     1       4.998  -0.630   1.485  0.00  0.00    -0.189 NA
ATOM     11  H   UNL     1       5.773  -0.048   1.506  0.00  0.00    +0.148 HD
BRANCH  10  12
ATOM     12  C   UNL     1       4.557  -1.306   2.708  0.00  0.00    +0.115 C 
BRANCH  12  13
ATOM     13  C   UNL     1       5.687  -1.286   3.738  0.00  0.00    +0.112 C 
BRANCH  13  14
ATOM     14  C   UNL     1       5.233  -1.981   4.996  0.00  0.00    +0.212 C 
ATOM     15  O   UNL     1       4.115  -2.447   5.061  0.00  0.00    -0.276 OA
ATOM     16  N   UNL     1       6.069  -2.085   6.048  0.00  0.00    -0.329 N 
ATOM     17  H   UNL     1       6.963  -1.713   5.995  0.00  0.00    +0.145 HD
ATOM     18  H   UNL     1       5.777  -2.533   6.857  0.00  0.00    +0.145 HD
ENDBRANCH  13  14
ENDBRANCH  12  13
ENDBRANCH  10  12
ENDBRANCH   7  10
ENDBRANCH   4   7
BRANCH   3  19
ATOM     19  N   UNL     1       3.533   2.025   0.645  0.00  0.00    +0.058 N 
ATOM     20  O   UNL     1       3.370   3.219   0.746  0.00  0.00    -0.126 OA
ATOM     21  O   UNL     1       4.652   1.569   0.613  0.00  0.00    -0.126 OA
ENDBRANCH   3  19
BRANCH   6  22
ATOM     22  N   UNL     1      -0.928  -1.417   0.332  0.00  0.00    -0.283 N 
ATOM     23  H   UNL     1      -0.801  -2.361   0.149  0.00  0.00    +0.166 HD
BRANCH  22  24
ATOM     24  N   UNL     1      -2.188  -0.920   0.513  0.00  0.00    -0.257 NA
ATOM     25  H   UNL     1      -2.880  -1.650   0.429  0.00  0.00    +0.140 HD
ATOM     26  H   UNL     1      -2.266  -0.449   1.402  0.00  0.00    +0.140 HD
ENDBRANCH  22  24
ENDBRANCH   6  22
TORSDOF 8
