REMARK  Name = ZINC13567622
REMARK  6 active torsions:
REMARK  status: ('A' for Active; 'I' for Inactive)
REMARK    1  A    between atoms: C_1  and  C_2
REMARK    2  A    between atoms: C_2  and  C_33
REMARK    3  A    between atoms: N_16  and  C_19
REMARK    4  A    between atoms: C_20  and  C_31
REMARK    5  A    between atoms: C_21  and  N_30
REMARK    6  A    between atoms: N_22  and  C_23
REMARK                            x       y       z     vdW  Elec       q    Type
REMARK                         _______ _______ _______ _____ _____    ______ ____
ROOT
ATOM      1  C   UNL     1       1.997   1.119   2.136  0.00  0.00    +0.011 C 
ATOM      2  C   UNL     1       2.364   1.375   0.673  0.00  0.00    -0.023 C 
ATOM      3  C   UNL     1       2.491   0.041  -0.066  0.00  0.00    +0.058 C 
ATOM      4  C   UNL     1       1.168  -0.685  -0.034  0.00  0.00    +0.026 C 
ATOM      5  C   UNL     1       0.002  -0.004   0.002  0.00  0.00    +0.037 C 
ATOM      6  C   UNL     1      -0.017   1.401   0.010  0.00  0.00    +0.163 C 
ATOM      7  O   UNL     1      -1.084   1.983   0.018  0.00  0.00    -0.292 OA
ATOM      8  C   UNL     1       1.259   2.198   0.002  0.00  0.00    +0.086 C 
ATOM      9  C   UNL     1      -1.314  -0.735   0.039  0.00  0.00    +0.141 C 
ATOM     10  C   UNL     1      -1.915  -0.663   1.410  0.00  0.00    -0.001 A 
ATOM     11  C   UNL     1      -1.469  -1.136   2.626  0.00  0.00    +0.007 A 
ATOM     12  C   UNL     1      -2.281  -0.898   3.730  0.00  0.00    +0.000 A 
ATOM     13  C   UNL     1      -3.477  -0.220   3.610  0.00  0.00    +0.002 A 
ATOM     14  C   UNL     1      -3.931   0.258   2.391  0.00  0.00    +0.024 A 
ATOM     15  C   UNL     1      -3.125   0.026   1.274  0.00  0.00    +0.041 A 
ATOM     16  N   UNL     1      -3.328   0.385  -0.046  0.00  0.00    -0.273 N 
ATOM     17  C   UNL     1      -2.318  -0.020  -0.842  0.00  0.00    +0.240 C 
ATOM     18  O   UNL     1      -2.230   0.155  -2.039  0.00  0.00    -0.274 OA
ATOM     19  C   UNL     1      -4.503   1.120  -0.523  0.00  0.00    +0.138 C 
ATOM     20  C   UNL     1      -1.166  -2.160  -0.405  0.00  0.00    +0.089 C 
ATOM     21  C   UNL     1       0.055  -2.758  -0.427  0.00  0.00    +0.108 C 
ATOM     22  N   UNL     1       1.175  -2.054  -0.048  0.00  0.00    -0.257 N 
ATOM     23  C   UNL     1       3.690   2.134   0.596  0.00  0.00    +0.011 C 
ENDROOT
BRANCH  22  24
ATOM     24  C   UNL     1       2.334  -2.746   0.327  0.00  0.00    +0.075 A 
ATOM     25  C   UNL     1       2.532  -3.103   1.654  0.00  0.00    +0.027 A 
ATOM     26  C   UNL     1       3.676  -3.785   2.021  0.00  0.00    +0.002 A 
ATOM     27  C   UNL     1       4.624  -4.113   1.069  0.00  0.00    +0.003 A 
ATOM     28  C   UNL     1       4.431  -3.760  -0.254  0.00  0.00    +0.040 A 
ATOM     29  C   UNL     1       3.286  -3.081  -0.630  0.00  0.00    +0.145 A 
ATOM     30  F   UNL     1       3.095  -2.740  -1.923  0.00  0.00    -0.204 F 
ENDBRANCH  22  24
BRANCH  21  31
ATOM     31  N   UNL     1       0.170  -4.067  -0.830  0.00  0.00    -0.345 N 
ATOM     32  H   UNL     1       1.040  -4.495  -0.847  0.00  0.00    +0.144 HD
ATOM     33  H   UNL     1      -0.620  -4.564  -1.097  0.00  0.00    +0.144 HD
ENDBRANCH  21  31
BRANCH  20  34
ATOM     34  C   UNL     1      -2.324  -2.899  -0.808  0.00  0.00    +0.100 C 
ATOM     35  N   UNL     1      -3.242  -3.486  -1.129  0.00  0.00    -0.191 NA
ENDBRANCH  20  34
TORSDOF 3
