REMARK  Name = ZINC16605239
REMARK  9 active torsions:
REMARK  status: ('A' for Active; 'I' for Inactive)
REMARK    1  A    between atoms: C_1  and  C_2
REMARK    2  A    between atoms: C_2  and  C_32
REMARK    3  A    between atoms: C_7  and  C_27
REMARK    4  A    between atoms: C_8  and  S_10
REMARK    5  A    between atoms: S_10  and  S_11
REMARK    6  A    between atoms: S_11  and  C_12
REMARK    7  A    between atoms: C_13  and  C_25
REMARK    8  A    between atoms: C_19  and  C_23
REMARK    9  A    between atoms: C_19  and  C_24
REMARK                            x       y       z     vdW  Elec       q    Type
REMARK                         _______ _______ _______ _____ _____    ______ ____
ROOT
ATOM      1  S   UNL     1      -4.072  -4.807   0.823  0.00  0.00    -0.029 S 
ENDROOT
BRANCH   1   9
ATOM      2  C   UNL     1      -0.019   1.526   0.010  0.00  0.00    +0.011 C 
ATOM      3  C   UNL     1       0.002  -0.004   0.002  0.00  0.00    -0.022 C 
ATOM      4  C   UNL     1      -1.429  -0.532   0.012  0.00  0.00    +0.063 C 
ATOM      5  C   UNL     1      -1.458  -2.032  -0.124  0.00  0.00    +0.054 A 
ATOM      6  C   UNL     1      -0.390  -2.731  -0.699  0.00  0.00    +0.040 A 
ATOM      7  C   UNL     1      -0.451  -4.125  -0.822  0.00  0.00    +0.034 A 
ATOM      8  C   UNL     1      -1.590  -4.778  -0.355  0.00  0.00    +0.085 A 
ATOM      9  C   UNL     1      -2.623  -4.007   0.219  0.00  0.00    +0.125 A 
ATOM     10  N   UNL     1      -2.519  -2.688   0.309  0.00  0.00    -0.243 NA
ATOM     11  C   UNL     1       0.801  -2.009  -1.171  0.00  0.00    +0.165 C 
ATOM     12  O   UNL     1       1.814  -2.602  -1.479  0.00  0.00    -0.292 OA
ATOM     13  C   UNL     1       0.720  -0.499  -1.261  0.00  0.00    +0.086 C 
ATOM     14  C   UNL     1       0.742  -0.511   1.242  0.00  0.00    +0.011 C 
BRANCH   8  15
ATOM     15  C   UNL     1      -1.709  -6.202  -0.455  0.00  0.00    +0.102 C 
ATOM     16  N   UNL     1      -1.804  -7.331  -0.534  0.00  0.00    -0.191 NA
ENDBRANCH   8  15
ENDBRANCH   1   9
BRANCH   1  17
ATOM     17  S   UNL     1      -3.498  -5.164   2.769  0.00  0.00    -0.029 S 
BRANCH  17  18
ATOM     18  C   UNL     1      -3.928  -3.620   3.503  0.00  0.00    +0.125 A 
ATOM     19  C   UNL     1      -5.220  -3.443   4.044  0.00  0.00    +0.085 A 
ATOM     20  C   UNL     1      -5.540  -2.213   4.617  0.00  0.00    +0.034 A 
ATOM     21  C   UNL     1      -4.559  -1.212   4.628  0.00  0.00    +0.040 A 
ATOM     22  C   UNL     1      -3.297  -1.464   4.074  0.00  0.00    +0.054 A 
ATOM     23  N   UNL     1      -3.032  -2.643   3.543  0.00  0.00    -0.243 NA
ATOM     24  C   UNL     1      -2.219  -0.413   4.077  0.00  0.00    +0.063 C 
ATOM     25  C   UNL     1      -2.812   0.988   4.199  0.00  0.00    -0.022 C 
ATOM     26  C   UNL     1      -3.708   1.054   5.442  0.00  0.00    +0.086 C 
ATOM     27  C   UNL     1      -4.862   0.099   5.219  0.00  0.00    +0.165 C 
ATOM     28  O   UNL     1      -5.997   0.405   5.518  0.00  0.00    -0.292 OA
ATOM     29  C   UNL     1      -3.643   1.300   2.953  0.00  0.00    +0.011 C 
ATOM     30  C   UNL     1      -1.682   2.011   4.329  0.00  0.00    +0.011 C 
BRANCH  19  31
ATOM     31  C   UNL     1      -6.181  -4.503   4.006  0.00  0.00    +0.102 C 
ATOM     32  N   UNL     1      -6.943  -5.345   3.976  0.00  0.00    -0.191 NA
ENDBRANCH  19  31
ENDBRANCH  17  18
ENDBRANCH   1  17
TORSDOF 5
