REMARK  Name = ZINC33812469
REMARK  9 active torsions:
REMARK  status: ('A' for Active; 'I' for Inactive)
REMARK    1  A    between atoms: C_1  and  C_2
REMARK    2  A    between atoms: C_2  and  C_3
REMARK    3  A    between atoms: C_3  and  N_4
REMARK    4  A    between atoms: C_8  and  C_9
REMARK    5  A    between atoms: C_10  and  C_32
REMARK    6  A    between atoms: C_11  and  C_30
REMARK    7  A    between atoms: N_14  and  C_29
REMARK    8  A    between atoms: C_15  and  N_16
REMARK    9  A    between atoms: N_19  and  C_22
REMARK                            x       y       z     vdW  Elec       q    Type
REMARK                         _______ _______ _______ _____ _____    ______ ____
ROOT
ATOM      1  C   UNL     1       0.080   3.940  -0.150  0.00  0.00    +0.019 A 
ATOM      2  C   UNL     1       1.315   3.408  -0.557  0.00  0.00    -0.017 A 
ATOM      3  C   UNL     1       1.488   2.027  -0.552  0.00  0.00    +0.120 A 
ATOM      4  C   UNL     1       0.419   1.193  -0.136  0.00  0.00    +0.270 A 
ATOM      5  O   UNL     1       0.564  -0.017  -0.129  0.00  0.00    -0.266 OA
ATOM      6  N   UNL     1      -0.756   1.726   0.244  0.00  0.00    -0.298 N 
ATOM      7  C   UNL     1      -0.947   3.071   0.253  0.00  0.00    +0.112 A 
ATOM      8  C   UNL     1      -1.846   0.842   0.663  0.00  0.00    +0.154 C 
ATOM      9  C   UNL     1       2.434   4.318  -0.995  0.00  0.00    +0.046 C 
ENDROOT
BRANCH   1  14
ATOM     10  N   UNL     1       1.340   8.133   1.781  0.00  0.00    -0.255 N 
ATOM     11  C   UNL     1       0.556   7.597   0.861  0.00  0.00    +0.258 C 
ATOM     12  O   UNL     1      -0.155   8.293   0.160  0.00  0.00    -0.269 OA
ATOM     13  C   UNL     1       0.569   6.176   0.715  0.00  0.00    +0.077 C 
ATOM     14  C   UNL     1      -0.134   5.388  -0.143  0.00  0.00    +0.032 C 
ATOM     15  S   UNL     1       1.754   5.715   1.971  0.00  0.00    -0.061 S 
ATOM     16  C   UNL     1       2.130   7.360   2.558  0.00  0.00    +0.121 C 
ATOM     17  S   UNL     1       3.212   7.835   3.796  0.00  0.00    -0.027 S 
BRANCH  10  18
ATOM     18  C   UNL     1       1.353   9.587   1.959  0.00  0.00    +0.115 C 
BRANCH  18  20
ATOM     19  C   UNL     1       0.309  11.502   3.177  0.00  0.00    +0.005 C 
ATOM     20  C   UNL     1       0.295   9.984   2.991  0.00  0.00    +0.016 C 
ENDBRANCH  18  20
ENDBRANCH  10  18
ENDBRANCH   1  14
BRANCH   7  21
ATOM     21  N   UNL     1      -2.148   3.580   0.650  0.00  0.00    -0.313 N 
ATOM     22  C   UNL     1      -2.833   4.247  -0.467  0.00  0.00    +0.125 C 
ATOM     23  C   UNL     1      -4.207   4.734  -0.002  0.00  0.00    +0.124 C 
ATOM     24  N   UNL     1      -4.040   5.653   1.133  0.00  0.00    -0.327 N 
ATOM     25  C   UNL     1      -3.356   4.987   2.250  0.00  0.00    +0.124 C 
ATOM     26  C   UNL     1      -1.981   4.499   1.785  0.00  0.00    +0.125 C 
BRANCH  24  27
ATOM     27  C   UNL     1      -5.271   6.176   1.540  0.00  0.00    +0.030 A 
ATOM     28  C   UNL     1      -5.693   6.019   2.854  0.00  0.00    +0.026 A 
ATOM     29  C   UNL     1      -6.907   6.541   3.255  0.00  0.00    +0.040 A 
ATOM     30  C   UNL     1      -7.709   7.210   2.345  0.00  0.00    +0.124 A 
ATOM     31  C   UNL     1      -7.293   7.362   1.034  0.00  0.00    +0.040 A 
ATOM     32  C   UNL     1      -6.077   6.846   0.629  0.00  0.00    +0.026 A 
ATOM     33  F   UNL     1      -8.899   7.715   2.739  0.00  0.00    -0.205 F 
ENDBRANCH  24  27
ENDBRANCH   7  21
BRANCH   3  34
ATOM     34  C   UNL     1       2.735   1.453  -0.961  0.00  0.00    +0.105 C 
ATOM     35  N   UNL     1       3.724   0.998  -1.286  0.00  0.00    -0.191 NA
ENDBRANCH   3  34
TORSDOF 6
