REMARK  Name = ZINC35521023
REMARK  5 active torsions:
REMARK  status: ('A' for Active; 'I' for Inactive)
REMARK    1  A    between atoms: C_1  and  C_2
REMARK    2  A    between atoms: C_9  and  N_29
REMARK    3  A    between atoms: C_10  and  C_13
REMARK    4  A    between atoms: N_17  and  C_21
REMARK    5  A    between atoms: C_33  and  C_36
REMARK                            x       y       z     vdW  Elec       q    Type
REMARK                         _______ _______ _______ _____ _____    ______ ____
ROOT
ATOM      1  C   UNL     1       0.931   1.370   0.030  0.00  0.00    +0.047 C 
ATOM      2  C   UNL     1       0.588  -0.097   0.002  0.00  0.00    -0.007 A 
ATOM      3  C   UNL     1       0.568  -0.775  -1.181  0.00  0.00    +0.008 A 
ATOM      4  C   UNL     1       0.246  -2.140  -1.190  0.00  0.00    +0.019 A 
ATOM      5  C   UNL     1      -0.042  -2.776  -0.033  0.00  0.00    +0.096 A 
ATOM      6  N   UNL     1      -0.025  -2.107   1.155  0.00  0.00    -0.267 N 
ATOM      7  C   UNL     1       0.291  -0.777   1.197  0.00  0.00    +0.145 A 
ATOM      8  N   UNL     1       0.318  -0.107   2.349  0.00  0.00    -0.213 NA
ATOM      9  C   UNL     1       0.046  -0.698   3.504  0.00  0.00    +0.136 A 
ATOM     10  C   UNL     1      -0.281  -2.074   3.523  0.00  0.00    +0.081 A 
ATOM     11  C   UNL     1      -0.319  -2.773   2.293  0.00  0.00    +0.267 A 
ATOM     12  O   UNL     1      -0.596  -3.960   2.262  0.00  0.00    -0.267 OA
ENDROOT
BRANCH  10  13
ATOM     13  C   UNL     1      -0.575  -2.732   4.740  0.00  0.00    +0.037 C 
ATOM     14  C   UNL     1       0.251  -3.716   5.200  0.00  0.00    +0.077 C 
ATOM     15  C   UNL     1       1.509  -4.152   4.697  0.00  0.00    +0.259 C 
ATOM     16  O   UNL     1       2.005  -3.631   3.713  0.00  0.00    -0.269 OA
ATOM     17  N   UNL     1       2.124  -5.138   5.326  0.00  0.00    -0.251 N 
ATOM     18  C   UNL     1       1.574  -5.717   6.417  0.00  0.00    +0.121 C 
ATOM     19  S   UNL     1       2.187  -6.994   7.378  0.00  0.00    -0.027 S 
ATOM     20  S   UNL     1       0.050  -4.804   6.605  0.00  0.00    -0.061 S 
BRANCH  17  21
ATOM     21  C   UNL     1       3.421  -5.611   4.834  0.00  0.00    +0.105 C 
ATOM     22  C   UNL     1       3.332  -7.108   4.491  0.00  0.00    +0.047 C 
ATOM     23  C   UNL     1       4.752  -7.686   4.281  0.00  0.00    +0.168 C 
ATOM     24  S   UNL     1       5.790  -6.605   5.346  0.00  0.00    -0.029 S 
ATOM     25  O   UNL     1       6.268  -7.363   6.448  0.00  0.00    -0.174 OA
ATOM     26  O   UNL     1       6.715  -5.901   4.528  0.00  0.00    -0.174 OA
ATOM     27  C   UNL     1       4.500  -5.432   5.940  0.00  0.00    +0.188 C 
ENDBRANCH  17  21
ENDBRANCH  10  13
BRANCH   9  28
ATOM     28  N   UNL     1       0.084   0.023   4.677  0.00  0.00    -0.314 N 
ATOM     29  C   UNL     1       0.661  -0.560   5.896  0.00  0.00    +0.106 C 
ATOM     30  C   UNL     1       1.729   0.394   6.441  0.00  0.00    +0.019 C 
ATOM     31  C   UNL     1       1.115   1.782   6.638  0.00  0.00    +0.006 C 
ATOM     32  C   UNL     1       0.626   2.321   5.291  0.00  0.00    +0.003 C 
ATOM     33  C   UNL     1      -0.448   1.392   4.732  0.00  0.00    +0.109 C 
ATOM     34  C   UNL     1       0.043   3.723   5.484  0.00  0.00    +0.009 C 
ENDBRANCH   9  28
TORSDOF 3
