REMARK  Name = ZINC13774767
REMARK  5 active torsions:
REMARK  status: ('A' for Active; 'I' for Inactive)
REMARK    1  A    between atoms: C_1  and  C_2
REMARK    2  A    between atoms: C_3  and  C_10
REMARK    3  A    between atoms: C_11  and  C_12
REMARK    4  A    between atoms: C_12  and  O_14
REMARK    5  A    between atoms: O_14  and  C_15
REMARK                            x       y       z     vdW  Elec       q    Type
REMARK                         _______ _______ _______ _____ _____    ______ ____
ROOT
ATOM      1  C   UNL     1      -1.688  -4.240  -1.941  0.00  0.00    +0.066 C 
ATOM      2  C   UNL     1      -2.732  -3.882  -0.914  0.00  0.00    +0.051 A 
ATOM      3  C   UNL     1      -2.499  -2.854   0.011  0.00  0.00    +0.033 A 
ATOM      4  C   UNL     1      -3.504  -2.568   0.948  0.00  0.00    +0.141 A 
ATOM      5  N   UNL     1      -4.626  -3.267   0.914  0.00  0.00    -0.205 NA
ATOM      6  C   UNL     1      -4.802  -4.227   0.026  0.00  0.00    +0.224 A 
ATOM      7  N   UNL     1      -3.881  -4.532  -0.870  0.00  0.00    -0.222 NA
ATOM      8 CL   UNL     1      -6.292  -5.117   0.034  0.00  0.00    -0.041 Cl
ATOM      9 CL   UNL     1      -3.281  -1.313   2.127  0.00  0.00    -0.061 Cl
ENDROOT
BRANCH   3  10
ATOM     10  C   UNL     1      -1.235  -2.102   0.003  0.00  0.00    +0.019 C 
ATOM     11  C   UNL     1      -1.254  -0.752   0.010  0.00  0.00    +0.092 C 
BRANCH  11  12
ATOM     12  C   UNL     1       0.002  -0.004   0.002  0.00  0.00    +0.332 C 
ATOM     13  O   UNL     1       1.064  -0.598  -0.011  0.00  0.00    -0.246 OA
BRANCH  12  14
ATOM     14  O   UNL     1      -0.016   1.345   0.009  0.00  0.00    -0.465 OA
ATOM     15  C   UNL     1       1.248   2.011   0.001  0.00  0.00    +0.280 C 
ENDBRANCH  12  14
ENDBRANCH  11  12
ENDBRANCH   3  10
TORSDOF 3
