REMARK  Name = ZINC14956514
REMARK  7 active torsions:
REMARK  status: ('A' for Active; 'I' for Inactive)
REMARK    1  A    between atoms: C_14  and  N_51
REMARK    2  A    between atoms: C_17  and  C_18
REMARK    3  A    between atoms: C_17  and  N_51
REMARK    4  A    between atoms: C_22  and  O_24
REMARK    5  A    between atoms: O_24  and  C_25
REMARK    6  A    between atoms: C_25  and  C_26
REMARK    7  A    between atoms: C_26  and  O_27
REMARK                            x       y       z     vdW  Elec       q    Type
REMARK                         _______ _______ _______ _____ _____    ______ ____
ROOT
ATOM      1  C   UNL     1      -0.120   7.897  -0.569  0.00  0.00    +0.002 A 
ATOM      2  C   UNL     1       1.206   8.304  -0.572  0.00  0.00    +0.001 A 
ATOM      3  C   UNL     1       2.205   7.354  -0.459  0.00  0.00    +0.017 A 
ATOM      4  C   UNL     1       1.871   6.028  -0.348  0.00  0.00    +0.041 A 
ATOM      5  C   UNL     1       0.532   5.577  -0.342  0.00  0.00    +0.080 A 
ATOM      6  C   UNL     1      -0.464   6.574  -0.458  0.00  0.00    +0.029 A 
ATOM      7  N   UNL     1       0.365   4.241  -0.231  0.00  0.00    -0.225 NA
ATOM      8  C   UNL     1       1.376   3.410  -0.124  0.00  0.00    +0.162 A 
ATOM      9  S   UNL     1       2.782   4.512  -0.187  0.00  0.00    -0.052 S 
ATOM     10  N   UNL     1       1.359   2.036   0.000  0.00  0.00    -0.311 N 
ATOM     11  C   UNL     1       2.093   1.605   1.197  0.00  0.00    +0.107 C 
ATOM     12  C   UNL     1       2.177   0.078   1.224  0.00  0.00    +0.017 C 
ATOM     13  C   UNL     1       0.761  -0.506   1.233  0.00  0.00    -0.013 C 
ATOM     14  C   UNL     1       0.002  -0.004   0.002  0.00  0.00    -0.054 C 
ATOM     15  C   UNL     1      -0.019   1.526   0.010  0.00  0.00    +0.091 C 
ENDROOT
BRANCH  14  16
ATOM     16  N   UNL     1      -1.381  -0.516   0.043  0.00  0.00    +0.385 N 
ATOM     17  H   UNL     1      -1.956   0.108   0.620  0.00  0.00    -0.085 HD
ATOM     18  H   UNL     1      -1.381  -1.458   0.452  0.00  0.00    -0.085 HD
BRANCH  16  19
ATOM     19  C   UNL     1      -1.944  -0.577  -1.319  0.00  0.00    -0.046 C 
BRANCH  19  20
ATOM     20  C   UNL     1      -3.355  -1.103  -1.247  0.00  0.00    -0.061 A 
ATOM     21  C   UNL     1      -4.412  -0.225  -1.093  0.00  0.00    +0.002 A 
ATOM     22  C   UNL     1      -5.707  -0.704  -1.026  0.00  0.00    +0.004 A 
ATOM     23  C   UNL     1      -5.948  -2.062  -1.113  0.00  0.00    +0.045 A 
ATOM     24  C   UNL     1      -4.889  -2.944  -1.267  0.00  0.00    +0.121 A 
ATOM     25  C   UNL     1      -3.591  -2.460  -1.339  0.00  0.00    +0.047 A 
BRANCH  24  26
ATOM     26  O   UNL     1      -5.123  -4.280  -1.353  0.00  0.00    -0.490 OA
BRANCH  26  27
ATOM     27  C   UNL     1      -6.485  -4.706  -1.277  0.00  0.00    +0.256 C 
BRANCH  27  28
ATOM     28  C   UNL     1      -6.550  -6.231  -1.391  0.00  0.00    +0.196 C 
BRANCH  28  29
ATOM     29  O   UNL     1      -5.905  -6.821  -0.261  0.00  0.00    -0.392 OA
ATOM     30  H   UNL     1      -5.908  -7.788  -0.267  0.00  0.00    +0.210 HD
ENDBRANCH  28  29
ENDBRANCH  27  28
ENDBRANCH  26  27
ENDBRANCH  24  26
ENDBRANCH  19  20
ENDBRANCH  16  19
ENDBRANCH  14  16
TORSDOF 7
