REMARK  Name = ZINC16857131
REMARK  9 active torsions:
REMARK  status: ('A' for Active; 'I' for Inactive)
REMARK    1  A    between atoms: C_3  and  O_32
REMARK    2  A    between atoms: C_6  and  N_7
REMARK    3  A    between atoms: C_10  and  O_31
REMARK    4  A    between atoms: C_11  and  C_15
REMARK    5  A    between atoms: C_12  and  O_14
REMARK    6  A    between atoms: C_16  and  O_30
REMARK    7  A    between atoms: C_20  and  O_21
REMARK    8  A    between atoms: N_22  and  C_23
REMARK    9  A    between atoms: C_26  and  O_29
REMARK                            x       y       z     vdW  Elec       q    Type
REMARK                         _______ _______ _______ _____ _____    ______ ____
ROOT
ATOM      1  N   UNL     1       2.128   2.934   2.975  0.00  0.00    -0.283 N 
ATOM      2  C   UNL     1       1.702   2.626   1.694  0.00  0.00    +0.226 A 
ATOM      3  N   UNL     1       2.432   3.021   0.661  0.00  0.00    -0.179 NA
ATOM      4  C   UNL     1       2.058   2.746  -0.583  0.00  0.00    +0.229 A 
ATOM      5  C   UNL     1       0.874   2.026  -0.793  0.00  0.00    +0.115 A 
ATOM      6  C   UNL     1       0.133   1.628   0.327  0.00  0.00    +0.229 A 
ATOM      7  N   UNL     1       0.574   1.949   1.538  0.00  0.00    -0.179 NA
ATOM      8  H   UNL     1       2.989   3.361   3.111  0.00  0.00    +0.155 HD
ENDROOT
BRANCH   5   9
ATOM      9  C   UNL     1       0.417   1.696  -2.165  0.00  0.00    +0.115 A 
ATOM     10  C   UNL     1       0.819   0.508  -2.790  0.00  0.00    +0.229 A 
ATOM     11  N   UNL     1       0.383   0.248  -4.017  0.00  0.00    -0.179 NA
ATOM     12  C   UNL     1      -0.411   1.098  -4.652  0.00  0.00    +0.226 A 
ATOM     13  N   UNL     1      -0.808   2.234  -4.098  0.00  0.00    -0.179 NA
ATOM     14  C   UNL     1      -0.422   2.567  -2.872  0.00  0.00    +0.229 A 
ATOM     15  N   UNL     1      -0.838   0.790  -5.933  0.00  0.00    -0.283 N 
ATOM     16  H   UNL     1      -1.477   1.364  -6.383  0.00  0.00    +0.155 HD
BRANCH  15  17
ATOM     17  C   UNL     1      -0.345  -0.351  -6.580  0.00  0.00    +0.034 A 
ATOM     18  C   UNL     1       0.964  -0.760  -6.365  0.00  0.00    +0.027 A 
ATOM     19  C   UNL     1       1.446  -1.889  -6.998  0.00  0.00    +0.047 A 
ATOM     20  C   UNL     1       0.627  -2.606  -7.858  0.00  0.00    +0.117 A 
ATOM     21  C   UNL     1      -0.679  -2.194  -8.077  0.00  0.00    +0.047 A 
ATOM     22  C   UNL     1      -1.165  -1.069  -7.440  0.00  0.00    +0.027 A 
BRANCH  20  23
ATOM     23  O   UNL     1       1.105  -3.714  -8.486  0.00  0.00    -0.507 OA
ATOM     24  H   UNL     1       1.515  -3.534  -9.343  0.00  0.00    +0.292 HD
ENDBRANCH  20  23
ENDBRANCH  15  17
BRANCH  14  25
ATOM     25  O   UNL     1      -0.834   3.732  -2.314  0.00  0.00    -0.492 OA
ATOM     26  H   UNL     1      -0.246   4.480  -2.486  0.00  0.00    +0.294 HD
ENDBRANCH  14  25
BRANCH  10  27
ATOM     27  O   UNL     1       1.635  -0.364  -2.151  0.00  0.00    -0.492 OA
ATOM     28  H   UNL     1       1.167  -1.032  -1.631  0.00  0.00    +0.294 HD
ENDBRANCH  10  27
ENDBRANCH   5   9
BRANCH   1  34
ATOM     29  C   UNL     1      -0.065   2.699   3.961  0.00  0.00    +0.027 A 
ATOM     30  C   UNL     1      -0.864   2.393   5.045  0.00  0.00    +0.047 A 
ATOM     31  C   UNL     1      -0.286   2.026   6.251  0.00  0.00    +0.117 A 
ATOM     32  C   UNL     1       1.095   1.962   6.369  0.00  0.00    +0.047 A 
ATOM     33  C   UNL     1       1.895   2.262   5.284  0.00  0.00    +0.027 A 
ATOM     34  C   UNL     1       1.317   2.629   4.076  0.00  0.00    +0.034 A 
BRANCH  31  35
ATOM     35  O   UNL     1      -1.073   1.730   7.320  0.00  0.00    -0.507 OA
ATOM     36  H   UNL     1      -1.282   2.493   7.877  0.00  0.00    +0.292 HD
ENDBRANCH  31  35
ENDBRANCH   1  34
BRANCH   6  37
ATOM     37  O   UNL     1      -1.019   0.930   0.177  0.00  0.00    -0.492 OA
ATOM     38  H   UNL     1      -0.899  -0.029   0.165  0.00  0.00    +0.294 HD
ENDBRANCH   6  37
BRANCH   4  39
ATOM     39  O   UNL     1       2.811   3.155  -1.633  0.00  0.00    -0.492 OA
ATOM     40  H   UNL     1       2.575   4.030  -1.969  0.00  0.00    +0.294 HD
ENDBRANCH   4  39
TORSDOF 9
