REMARK  Name = ZINC12761525
REMARK  4 active torsions:
REMARK  status: ('A' for Active; 'I' for Inactive)
REMARK    1  A    between atoms: N_9  and  S_11
REMARK    2  A    between atoms: S_11  and  C_14
REMARK    3  A    between atoms: C_16  and  C_21
REMARK    4  A    between atoms: N_26  and  C_29
REMARK                            x       y       z     vdW  Elec       q    Type
REMARK                         _______ _______ _______ _____ _____    ______ ____
ROOT
ATOM      1  C   UNL     1       6.861   6.983   4.555  0.00  0.00    +0.124 A 
ATOM      2  C   UNL     1       6.041   7.795   3.800  0.00  0.00    +0.043 A 
ATOM      3  C   UNL     1       5.135   7.227   2.903  0.00  0.00    +0.039 A 
ATOM      4  C   UNL     1       5.061   5.838   2.780  0.00  0.00    +0.014 A 
ATOM      5  C   UNL     1       5.889   5.037   3.537  0.00  0.00    +0.023 A 
ATOM      6  C   UNL     1       6.787   5.607   4.425  0.00  0.00    +0.067 A 
ATOM      7 CL   UNL     1       7.822   4.591   5.379  0.00  0.00    -0.082 Cl
ENDROOT
BRANCH   3   8
ATOM      8  C   UNL     1       4.253   8.091   2.091  0.00  0.00    +0.247 C 
ATOM      9  O   UNL     1       3.820   9.127   2.558  0.00  0.00    -0.270 OA
ATOM     10  N   UNL     1       3.930   7.732   0.833  0.00  0.00    -0.295 N 
ATOM     11  C   UNL     1       4.505   6.524   0.221  0.00  0.00    +0.127 C 
ATOM     12  C   UNL     1       5.092   6.901  -1.143  0.00  0.00    +0.124 C 
ATOM     13  N   UNL     1       4.063   7.574  -1.946  0.00  0.00    -0.327 N 
ATOM     14  C   UNL     1       3.639   8.835  -1.322  0.00  0.00    +0.124 C 
ATOM     15  C   UNL     1       2.993   8.537   0.035  0.00  0.00    +0.127 C 
BRANCH  13  16
ATOM     16  C   UNL     1       4.506   7.787  -3.248  0.00  0.00    +0.033 A 
ATOM     17  C   UNL     1       3.689   8.414  -4.189  0.00  0.00    +0.040 A 
ATOM     18  C   UNL     1       4.166   8.605  -5.469  0.00  0.00    +0.084 A 
ATOM     19  C   UNL     1       6.180   7.607  -4.946  0.00  0.00    +0.084 A 
ATOM     20  C   UNL     1       5.779   7.378  -3.646  0.00  0.00    +0.040 A 
ATOM     21  N   UNL     1       5.401   8.211  -5.884  0.00  0.00    -0.367 N 
ATOM     22  H   UNL     1       5.725   8.361  -6.846  0.00  0.00    +0.165 HD
ENDBRANCH  13  16
ENDBRANCH   3   8
BRANCH   1  23
ATOM     23  S   UNL     1       8.005   7.699   5.689  0.00  0.00    +0.063 S 
ATOM     24  O   UNL     1       9.238   7.017   5.506  0.00  0.00    -0.153 OA
ATOM     25  O   UNL     1       7.886   9.108   5.550  0.00  0.00    -0.153 OA
BRANCH  23  34
ATOM     26  C   UNL     1       7.100   9.119  11.869  0.00  0.00    +0.000 A 
ATOM     27  C   UNL     1       5.990   9.605  11.203  0.00  0.00    +0.000 A 
ATOM     28  C   UNL     1       5.762   9.236   9.893  0.00  0.00    +0.005 A 
ATOM     29  C   UNL     1       6.639   8.381   9.239  0.00  0.00    -0.028 A 
ATOM     30  C   UNL     1       7.749   7.902   9.899  0.00  0.00    -0.042 A 
ATOM     31  C   UNL     1       7.974   8.273  11.219  0.00  0.00    +0.004 A 
ATOM     32  C   UNL     1       8.753   6.986   9.250  0.00  0.00    +0.052 C 
ATOM     33  C   UNL     1       8.147   6.295   8.024  0.00  0.00    +0.114 C 
ATOM     34  N   UNL     1       7.479   7.328   7.214  0.00  0.00    -0.172 NA
ATOM     35  C   UNL     1       6.326   8.010   7.812  0.00  0.00    +0.144 C 
ENDBRANCH  23  34
ENDBRANCH   1  23
TORSDOF 4
