REMARK  Name = ZINC13451011
REMARK  11 active torsions:
REMARK  status: ('A' for Active; 'I' for Inactive)
REMARK    1  A    between atoms: C_1  and  C_2
REMARK    2  A    between atoms: C_5  and  C_8
REMARK    3  A    between atoms: C_8  and  N_9
REMARK    4  A    between atoms: C_10  and  C_12
REMARK    5  A    between atoms: C_12  and  C_14
REMARK    6  A    between atoms: C_12  and  S_15
REMARK    7  A    between atoms: S_15  and  C_16
REMARK    8  A    between atoms: C_20  and  C_24
REMARK    9  A    between atoms: C_21  and  C_23
REMARK   10  A    between atoms: C_24  and  C_25
REMARK   11  A    between atoms: C_25  and  C_26
REMARK                            x       y       z     vdW  Elec       q    Type
REMARK                         _______ _______ _______ _____ _____    ______ ____
ROOT
ATOM      1  C   UNL     1       3.137  -6.551  -0.051  0.00  0.00    +0.137 C 
ATOM      2  C   UNL     1       3.669  -6.604   1.383  0.00  0.00    +0.029 C 
ENDROOT
BRANCH   1   4
ATOM      3  N   UNL     1       1.447  -4.746  -0.032  0.00  0.00    -0.310 N 
ATOM      4  C   UNL     1       1.710  -6.067  -0.040  0.00  0.00    +0.226 C 
ATOM      5  O   UNL     1       0.799  -6.867  -0.040  0.00  0.00    -0.275 OA
ATOM      6  H   UNL     1       2.176  -4.106  -0.032  0.00  0.00    +0.149 HD
BRANCH   3   7
ATOM      7  C   UNL     1       0.059  -4.275  -0.021  0.00  0.00    +0.139 C 
BRANCH   7  12
ATOM      8  C   UNL     1      -0.018   1.503   0.010  0.00  0.00    +0.044 C 
ATOM      9  C   UNL     1       0.002  -0.004   0.002  0.00  0.00    -0.050 A 
ATOM     10  C   UNL     1       0.006  -0.689  -1.199  0.00  0.00    +0.003 A 
ATOM     11  C   UNL     1       0.025  -2.071  -1.206  0.00  0.00    +0.005 A 
ATOM     12  C   UNL     1       0.040  -2.768  -0.013  0.00  0.00    -0.030 A 
ATOM     13  C   UNL     1       0.037  -2.084   1.188  0.00  0.00    +0.005 A 
ATOM     14  C   UNL     1       0.023  -0.702   1.195  0.00  0.00    +0.003 A 
ENDBRANCH   7  12
ENDBRANCH   3   7
ENDBRANCH   1   4
BRANCH   1  15
ATOM     15  S   UNL     1       3.208  -8.210  -0.783  0.00  0.00    -0.073 S 
BRANCH  15  16
ATOM     16  C   UNL     1       4.931  -8.569  -0.860  0.00  0.00    +0.193 A 
ATOM     17  N   UNL     1       5.799  -7.671  -0.414  0.00  0.00    -0.183 NA
ATOM     18  C   UNL     1       7.104  -7.912  -0.458  0.00  0.00    +0.277 A 
ATOM     19  O   UNL     1       7.988  -6.992  -0.001  0.00  0.00    -0.265 OA
ATOM     20  C   UNL     1       7.552  -9.124  -0.980  0.00  0.00    +0.040 A 
ATOM     21  C   UNL     1       6.615 -10.034  -1.435  0.00  0.00    +0.049 A 
ATOM     22  N   UNL     1       5.328  -9.731  -1.356  0.00  0.00    -0.227 NA
ATOM     23  C   UNL     1       7.054 -11.357  -2.008  0.00  0.00    +0.066 C 
BRANCH  20  24
ATOM     24  C   UNL     1       9.025  -9.436  -1.049  0.00  0.00    +0.054 C 
BRANCH  24  25
ATOM     25  C   UNL     1       9.459 -10.132   0.243  0.00  0.00    +0.130 C 
BRANCH  25  26
ATOM     26  C   UNL     1      10.932 -10.444   0.175  0.00  0.00    +0.356 C 
ATOM     27  O   UNL     1      11.575 -10.138  -0.815  0.00  0.00    -0.246 OA
ATOM     28  O   UNL     1      11.481 -11.002   1.109  0.00  0.00    -0.246 OA
ENDBRANCH  25  26
ENDBRANCH  24  25
ENDBRANCH  20  24
ENDBRANCH  15  16
ENDBRANCH   1  15
TORSDOF 8
