REMARK  Name = ZINC40450442
REMARK  4 active torsions:
REMARK  status: ('A' for Active; 'I' for Inactive)
REMARK    1  A    between atoms: C_5  and  S_8
REMARK    2  A    between atoms: S_8  and  N_11
REMARK    3  A    between atoms: N_14  and  C_17
REMARK    4  A    between atoms: C_26  and  C_28
REMARK                            x       y       z     vdW  Elec       q    Type
REMARK                         _______ _______ _______ _____ _____    ______ ____
ROOT
ATOM      1  S   UNL     1       1.238  -2.437  -0.022  0.00  0.00    +0.062 S 
ATOM      2  O   UNL     1       0.210  -2.769  -0.945  0.00  0.00    -0.153 OA
ATOM      3  O   UNL     1       2.573  -2.904  -0.168  0.00  0.00    -0.153 OA
ENDROOT
BRANCH   1   8
ATOM      4  C   UNL     1       0.229   1.447   0.151  0.00  0.00    +0.022 A 
ATOM      5  C   UNL     1       1.455   2.083   0.100  0.00  0.00    -0.023 A 
ATOM      6  C   UNL     1       2.625   1.346   0.011  0.00  0.00    +0.041 A 
ATOM      7  C   UNL     1       2.548  -0.048  -0.026  0.00  0.00    +0.053 A 
ATOM      8  C   UNL     1       1.323  -0.678   0.025  0.00  0.00    +0.121 A 
ATOM      9  C   UNL     1       0.160   0.066   0.113  0.00  0.00    +0.045 A 
ATOM     10 BR   UNL     1      -1.518  -0.802   0.184  0.00  0.00    -0.048 Br
ATOM     11  N   UNL     1       3.752   2.173  -0.028  0.00  0.00    -0.271 N 
ATOM     12  C   UNL     1       3.346   3.579   0.037  0.00  0.00    +0.118 C 
ATOM     13  C   UNL     1       1.812   3.552   0.124  0.00  0.00    +0.056 C 
ATOM     14  C   UNL     1       5.026   1.740  -0.113  0.00  0.00    +0.223 C 
ATOM     15  O   UNL     1       5.260   0.550  -0.162  0.00  0.00    -0.275 OA
BRANCH  14  16
ATOM     16  C   UNL     1       6.159   2.733  -0.148  0.00  0.00    +0.076 C 
ATOM     17  C   UNL     1       6.944   2.864  -1.455  0.00  0.00    +0.013 C 
ATOM     18  C   UNL     1       7.582   2.178  -0.245  0.00  0.00    +0.013 C 
ENDBRANCH  14  16
ENDBRANCH   1   8
BRANCH   1  19
ATOM     19  N   UNL     1       0.720  -2.943   1.466  0.00  0.00    -0.180 NA
ATOM     20  C   UNL     1       1.654  -3.048   2.598  0.00  0.00    +0.091 C 
ATOM     21  C   UNL     1       1.049  -2.312   3.798  0.00  0.00    -0.061 C 
ATOM     22  N   UNL     1      -0.293  -2.842   4.069  0.00  0.00    +0.383 N 
ATOM     23  C   UNL     1      -1.184  -2.552   2.938  0.00  0.00    -0.061 C 
ATOM     24  C   UNL     1      -0.690  -3.295   1.697  0.00  0.00    +0.091 C 
ATOM     25  H   UNL     1      -0.239  -3.840   4.205  0.00  0.00    -0.081 HD
BRANCH  22  26
ATOM     26  C   UNL     1      -0.829  -2.214   5.285  0.00  0.00    -0.068 C 
ATOM     27  C   UNL     1       0.092  -2.524   6.467  0.00  0.00    -0.015 C 
ATOM     28  C   UNL     1      -0.466  -1.870   7.733  0.00  0.00    -0.002 C 
ATOM     29  C   UNL     1      -1.865  -2.421   8.017  0.00  0.00    -0.000 C 
ATOM     30  C   UNL     1      -2.785  -2.111   6.835  0.00  0.00    -0.002 C 
ATOM     31  C   UNL     1      -2.228  -2.764   5.569  0.00  0.00    -0.015 C 
ENDBRANCH  22  26
ENDBRANCH   1  19
TORSDOF 4
