REMARK  Name = ZINC12402551
REMARK  4 active torsions:
REMARK  status: ('A' for Active; 'I' for Inactive)
REMARK    1  A    between atoms: C_1  and  C_2
REMARK    2  A    between atoms: N_6  and  O_7
REMARK    3  A    between atoms: C_19  and  C_27
REMARK    4  A    between atoms: C_24  and  O_26
REMARK                            x       y       z     vdW  Elec       q    Type
REMARK                         _______ _______ _______ _____ _____    ______ ____
ROOT
ATOM      1  C   UNL     1      -0.118   1.650  -0.031  0.00  0.00    +0.012 C 
ATOM      2  C   UNL     1      -0.050   0.116  -0.036  0.00  0.00    -0.025 C 
ATOM      3  C   UNL     1       0.623  -0.371  -1.315  0.00  0.00    +0.013 C 
ATOM      4  C   UNL     1       2.051   0.176  -1.416  0.00  0.00    +0.055 C 
ATOM      5  C   UNL     1       2.793  -0.190  -0.150  0.00  0.00    +0.058 C 
ATOM      6  N   UNL     1       3.927  -0.781  -0.202  0.00  0.00    -0.097 NA
ATOM      7  C   UNL     1       2.160   0.162   1.177  0.00  0.00    +0.058 C 
ATOM      8  C   UNL     1       0.719  -0.349   1.203  0.00  0.00    +0.001 C 
ATOM      9  C   UNL     1       0.719  -1.870   1.336  0.00  0.00    +0.005 C 
ATOM     10  C   UNL     1      -0.722  -2.401   1.383  0.00  0.00    +0.004 C 
ATOM     11  C   UNL     1      -1.403  -1.971   0.091  0.00  0.00    -0.004 C 
ATOM     12  C   UNL     1      -1.475  -0.441   0.050  0.00  0.00    -0.001 C 
ATOM     13  C   UNL     1      -2.365  -0.015  -1.107  0.00  0.00    +0.005 C 
ATOM     14  C   UNL     1      -3.829  -0.400  -0.826  0.00  0.00    +0.010 C 
ATOM     15  C   UNL     1      -3.910  -1.605   0.073  0.00  0.00    -0.003 C 
ATOM     16  C   UNL     1      -2.741  -2.580  -0.172  0.00  0.00    +0.001 C 
ATOM     17  C   UNL     1      -3.150  -3.792   0.678  0.00  0.00    +0.007 C 
ATOM     18  C   UNL     1      -4.686  -3.877   0.458  0.00  0.00    +0.032 C 
ATOM     19  C   UNL     1      -5.110  -2.540  -0.201  0.00  0.00    +0.121 C 
ATOM     20  C   UNL     1      -4.016  -1.184   1.542  0.00  0.00    +0.014 C 
ENDROOT
BRANCH   6  21
ATOM     21  O   UNL     1       4.502  -1.101  -1.456  0.00  0.00    -0.409 OA
ATOM     22  H   UNL     1       5.358  -1.546  -1.394  0.00  0.00    +0.328 HD
ENDBRANCH   6  21
BRANCH  19  23
ATOM     23  O   UNL     1      -5.290  -2.710  -1.603  0.00  0.00    -0.391 OA
ATOM     24  H   UNL     1      -6.029  -3.287  -1.838  0.00  0.00    +0.210 HD
ENDBRANCH  19  23
TORSDOF 2
