REMARK  Name = ZINC50871095
REMARK  4 active torsions:
REMARK  status: ('A' for Active; 'I' for Inactive)
REMARK    1  A    between atoms: C_1  and  C_2
REMARK    2  A    between atoms: C_2  and  C_3
REMARK    3  A    between atoms: C_2  and  C_4
REMARK    4  A    between atoms: C_6  and  N_16
REMARK                            x       y       z     vdW  Elec       q    Type
REMARK                         _______ _______ _______ _____ _____    ______ ____
ROOT
ATOM      1  C   UNL     1       0.731  -0.503   1.223  0.00  0.00    +0.046 A 
ATOM      2  C   UNL     1       2.115  -0.604   1.188  0.00  0.00    +0.047 A 
ATOM      3  C   UNL     1       2.799  -1.062   2.303  0.00  0.00    +0.036 A 
ATOM      4  C   UNL     1       2.041  -1.411   3.447  0.00  0.00    +0.023 A 
ATOM      5  C   UNL     1       2.657  -1.881   4.615  0.00  0.00    +0.027 A 
ATOM      6  C   UNL     1       1.894  -2.208   5.696  0.00  0.00    +0.020 A 
ATOM      7  C   UNL     1       0.507  -2.079   5.655  0.00  0.00    +0.032 A 
ATOM      8  C   UNL     1      -0.123  -1.626   4.536  0.00  0.00    +0.045 A 
ATOM      9  C   UNL     1       0.633  -1.279   3.401  0.00  0.00    +0.087 A 
ATOM     10  N   UNL     1       0.040  -0.825   2.291  0.00  0.00    -0.250 NA
ATOM     11 BR   UNL     1      -2.007  -1.463   4.507  0.00  0.00    -0.048 Br
ATOM     12 BR   UNL     1       2.727  -2.842   7.270  0.00  0.00    -0.050 Br
ENDROOT
BRANCH   1  14
ATOM     13  C   UNL     1      -0.019   1.526   0.010  0.00  0.00    +0.014 C 
ATOM     14  C   UNL     1       0.002  -0.004   0.002  0.00  0.00    +0.032 C 
ATOM     15  C   UNL     1       0.718  -0.497  -1.257  0.00  0.00    +0.014 C 
ENDBRANCH   1  14
BRANCH   3  16
ATOM     16  N   UNL     1       4.181  -1.174   2.299  0.00  0.00    -0.357 N 
ATOM     17  H   UNL     1       4.685  -0.930   1.507  0.00  0.00    +0.142 HD
ATOM     18  H   UNL     1       4.643  -1.496   3.089  0.00  0.00    +0.142 HD
ENDBRANCH   3  16
TORSDOF 2
