REMARK  Name = ZINC39634279
REMARK  6 active torsions:
REMARK  status: ('A' for Active; 'I' for Inactive)
REMARK    1  A    between atoms: C_1  and  C_2
REMARK    2  A    between atoms: C_5  and  C_8
REMARK    3  A    between atoms: C_8  and  N_9
REMARK    4  A    between atoms: C_10  and  C_12
REMARK    5  A    between atoms: C_23  and  C_25
REMARK    6  A    between atoms: C_27  and  C_32
REMARK                            x       y       z     vdW  Elec       q    Type
REMARK                         _______ _______ _______ _____ _____    ______ ____
ROOT
ATOM      1  C   UNL     1       2.767  -6.568  -0.629  0.00  0.00    +0.100 C 
ATOM      2  C   UNL     1       3.728  -6.157  -1.767  0.00  0.00    +0.121 C 
ATOM      3  N   UNL     1       4.598  -7.340  -1.967  0.00  0.00    -0.296 N 
ATOM      4  C   UNL     1       3.684  -8.498  -1.823  0.00  0.00    +0.115 C 
ATOM      5  C   UNL     1       2.740  -8.105  -0.669  0.00  0.00    -0.004 C 
ATOM      6  C   UNL     1       3.251  -8.677   0.649  0.00  0.00    -0.010 C 
ATOM      7  C   UNL     1       3.162 -10.206   0.605  0.00  0.00    -0.082 C 
ATOM      8  N   UNL     1       1.768 -10.610   0.381  0.00  0.00    +0.379 N 
ATOM      9  C   UNL     1       1.314 -10.133  -0.931  0.00  0.00    -0.082 C 
ATOM     10  C   UNL     1       1.326  -8.602  -0.953  0.00  0.00    -0.010 C 
ATOM     11  C   UNL     1       5.921  -7.359  -2.222  0.00  0.00    +0.247 C 
ATOM     12  O   UNL     1       6.562  -6.327  -2.185  0.00  0.00    -0.270 OA
ATOM     13  H   UNL     1       1.702 -11.616   0.413  0.00  0.00    -0.086 HD
ATOM     14  H   UNL     1       1.184 -10.213   1.101  0.00  0.00    -0.086 HD
ENDROOT
BRANCH  11  15
ATOM     15  C   UNL     1       6.593  -8.635  -2.548  0.00  0.00    +0.040 A 
ATOM     16  C   UNL     1       7.974  -8.761  -2.385  0.00  0.00    +0.025 A 
ATOM     17  C   UNL     1       8.596  -9.954  -2.690  0.00  0.00    +0.058 A 
ATOM     18  C   UNL     1       7.855 -11.025  -3.157  0.00  0.00    +0.050 A 
ATOM     19  C   UNL     1       6.485 -10.907  -3.322  0.00  0.00    +0.125 A 
ATOM     20  C   UNL     1       5.849  -9.719  -3.014  0.00  0.00    +0.051 A 
ATOM     21  F   UNL     1       5.768 -11.957  -3.779  0.00  0.00    -0.205 F 
BRANCH  17  22
ATOM     22  C   UNL     1      10.086 -10.090  -2.515  0.00  0.00    +0.418 C 
ATOM     23  F   UNL     1      10.364 -10.545  -1.222  0.00  0.00    -0.166 F 
ATOM     24  F   UNL     1      10.584 -11.006  -3.448  0.00  0.00    -0.166 F 
ATOM     25  F   UNL     1      10.695  -8.846  -2.713  0.00  0.00    -0.166 F 
ENDBRANCH  17  22
ENDBRANCH  11  15
BRANCH   1  27
ATOM     26  N   UNL     1       0.586  -5.705   0.159  0.00  0.00    -0.311 N 
ATOM     27  C   UNL     1       1.389  -6.012  -0.880  0.00  0.00    +0.218 C 
ATOM     28  O   UNL     1       1.002  -5.841  -2.016  0.00  0.00    -0.275 OA
ATOM     29  H   UNL     1       0.896  -5.842   1.068  0.00  0.00    +0.149 HD
BRANCH  26  30
ATOM     30  C   UNL     1      -0.754  -5.165  -0.086  0.00  0.00    +0.139 C 
BRANCH  30  35
ATOM     31  C   UNL     1      -3.387  -4.181   4.963  0.00  0.00    +0.044 C 
ATOM     32  C   UNL     1      -2.700  -4.437   3.647  0.00  0.00    -0.050 A 
ATOM     33  C   UNL     1      -1.939  -3.444   3.059  0.00  0.00    +0.003 A 
ATOM     34  C   UNL     1      -1.309  -3.680   1.851  0.00  0.00    +0.005 A 
ATOM     35  C   UNL     1      -1.440  -4.909   1.232  0.00  0.00    -0.030 A 
ATOM     36  C   UNL     1      -2.200  -5.902   1.820  0.00  0.00    +0.005 A 
ATOM     37  C   UNL     1      -2.826  -5.668   3.030  0.00  0.00    +0.003 A 
ENDBRANCH  30  35
ENDBRANCH  26  30
ENDBRANCH   1  27
TORSDOF 5
