REMARK  Name = ZINC22377193
REMARK  7 active torsions:
REMARK  status: ('A' for Active; 'I' for Inactive)
REMARK    1  A    between atoms: C_3  and  C_27
REMARK    2  A    between atoms: C_6  and  C_7
REMARK    3  A    between atoms: C_7  and  N_8
REMARK    4  A    between atoms: N_12  and  C_15
REMARK    5  A    between atoms: C_15  and  C_16
REMARK    6  A    between atoms: N_18  and  C_19
REMARK    7  A    between atoms: C_20  and  C_24
REMARK                            x       y       z     vdW  Elec       q    Type
REMARK                         _______ _______ _______ _____ _____    ______ ____
ROOT
ATOM      1  N   UNL     1       2.709   0.856   1.676  0.00  0.00    +0.383 N 
ATOM      2  C   UNL     1       2.198  -0.406   1.091  0.00  0.00    -0.077 C 
ATOM      3  C   UNL     1       0.709  -0.568   1.255  0.00  0.00    -0.003 C 
ATOM      4  C   UNL     1       0.002  -0.004   0.002  0.00  0.00    +0.083 C 
ATOM      5  N   UNL     1      -0.017   1.397   0.010  0.00  0.00    -0.296 NA
ATOM      6  C   UNL     1       1.318   2.029   0.000  0.00  0.00    +0.066 C 
ATOM      7  C   UNL     1       1.847   2.026   1.412  0.00  0.00    -0.063 C 
ATOM      8  H   UNL     1       2.701   0.713   2.766  0.00  0.00    -0.081 HD
ENDROOT
BRANCH   1   9
ATOM      9  C   UNL     1       4.091   1.112   1.248  0.00  0.00    -0.043 C 
BRANCH   9  15
ATOM     10  C   UNL     1       5.594   0.254   3.056  0.00  0.00    +0.002 A 
ATOM     11  C   UNL     1       6.425  -0.716   3.586  0.00  0.00    +0.012 A 
ATOM     12  C   UNL     1       6.666  -1.879   2.880  0.00  0.00    +0.055 A 
ATOM     13  C   UNL     1       6.075  -2.075   1.646  0.00  0.00    +0.012 A 
ATOM     14  C   UNL     1       5.242  -1.107   1.118  0.00  0.00    +0.002 A 
ATOM     15  C   UNL     1       4.999   0.057   1.824  0.00  0.00    -0.064 A 
BRANCH  12  16
ATOM     16  C   UNL     1       7.575  -2.935   3.456  0.00  0.00    +0.417 C 
ATOM     17  F   UNL     1       8.891  -2.690   3.048  0.00  0.00    -0.166 F 
ATOM     18  F   UNL     1       7.506  -2.898   4.853  0.00  0.00    -0.166 F 
ATOM     19  F   UNL     1       7.173  -4.195   3.002  0.00  0.00    -0.166 F 
ENDBRANCH  12  16
ENDBRANCH   9  15
ENDBRANCH   1   9
BRANCH   5  20
ATOM     20  C   UNL     1      -0.854   1.918  -1.079  0.00  0.00    +0.180 C 
BRANCH  20  21
ATOM     21  C   UNL     1      -2.292   1.538  -0.833  0.00  0.00    +0.232 C 
ATOM     22  O   UNL     1      -2.590   0.897   0.152  0.00  0.00    -0.274 OA
ATOM     23  N   UNL     1      -3.246   1.912  -1.708  0.00  0.00    -0.278 N 
ATOM     24  H   UNL     1      -2.976   2.494  -2.602  0.00  0.00    +0.155 HD
BRANCH  23  25
ATOM     25  C   UNL     1      -4.569   1.563  -1.482  0.00  0.00    +0.084 A 
ATOM     26  C   UNL     1      -5.684   1.857  -2.257  0.00  0.00    +0.065 A 
ATOM     27  C   UNL     1      -6.954   1.361  -1.783  0.00  0.00    +0.022 A 
ATOM     28  C   UNL     1      -6.951   0.667  -0.630  0.00  0.00    +0.048 A 
ATOM     29  S   UNL     1      -5.233   0.661  -0.161  0.00  0.00    -0.081 S 
BRANCH  26  30
ATOM     30  C   UNL     1      -5.576   2.630  -3.498  0.00  0.00    +0.244 C 
ATOM     31  O   UNL     1      -4.489   3.032  -3.873  0.00  0.00    -0.270 OA
ATOM     32  N   UNL     1      -6.679   2.897  -4.225  0.00  0.00    -0.325 N 
ATOM     33  H   UNL     1      -6.598   3.477  -5.156  0.00  0.00    +0.145 HD
ATOM     34  H   UNL     1      -7.661   2.534  -3.887  0.00  0.00    +0.145 HD
ENDBRANCH  26  30
ENDBRANCH  23  25
ENDBRANCH  20  21
ENDBRANCH   5  20
TORSDOF 7
