REMARK  Name = ZINC37345779
REMARK  6 active torsions:
REMARK  status: ('A' for Active; 'I' for Inactive)
REMARK    1  A    between atoms: C_1  and  O_2
REMARK    2  A    between atoms: O_2  and  C_3
REMARK    3  A    between atoms: C_5  and  C_13
REMARK    4  A    between atoms: C_7  and  N_10
REMARK    5  A    between atoms: C_8  and  O_9
REMARK    6  A    between atoms: N_17  and  C_21
REMARK                            x       y       z     vdW  Elec       q    Type
REMARK                         _______ _______ _______ _____ _____    ______ ____
ROOT
ATOM      1  C   UNL     1       1.723   0.324   4.750  0.00  0.00    +0.028 C 
ATOM      2  C   UNL     1       2.606  -0.307   5.565  0.00  0.00    +0.078 C 
ATOM      3  C   UNL     1       2.755  -1.746   5.856  0.00  0.00    +0.263 C 
ATOM      4  O   UNL     1       2.032  -2.581   5.344  0.00  0.00    -0.269 OA
ATOM      5  N   UNL     1       3.715  -2.084   6.701  0.00  0.00    -0.224 N 
ATOM      6  C   UNL     1       4.515  -1.157   7.266  0.00  0.00    +0.125 C 
ATOM      7  S   UNL     1       5.801  -1.393   8.372  0.00  0.00    -0.027 S 
ATOM      8  S   UNL     1       3.914   0.376   6.575  0.00  0.00    -0.061 S 
ENDROOT
BRANCH   5   9
ATOM      9  C   UNL     1       3.906  -3.436   7.016  0.00  0.00    +0.044 A 
ATOM     10  C   UNL     1       3.218  -4.006   8.080  0.00  0.00    +0.025 A 
ATOM     11  C   UNL     1       3.407  -5.338   8.389  0.00  0.00    +0.018 A 
ATOM     12  C   UNL     1       4.281  -6.107   7.641  0.00  0.00    +0.036 A 
ATOM     13  C   UNL     1       4.968  -5.542   6.579  0.00  0.00    +0.057 A 
ATOM     14  C   UNL     1       4.777  -4.210   6.262  0.00  0.00    +0.045 A 
ATOM     15 CL   UNL     1       6.064  -6.509   5.643  0.00  0.00    -0.082 Cl
ATOM     16 BR   UNL     1       4.538  -7.931   8.068  0.00  0.00    -0.049 Br
ENDBRANCH   5   9
BRANCH   1  19
ATOM     17  C   UNL     1      -0.840  -0.848   2.275  0.00  0.00    +0.164 A 
ATOM     18  C   UNL     1       0.202  -0.137   2.839  0.00  0.00    +0.057 A 
ATOM     19  C   UNL     1       0.616  -0.427   4.145  0.00  0.00    -0.018 A 
ATOM     20  C   UNL     1      -0.027  -1.437   4.871  0.00  0.00    +0.044 A 
ATOM     21  C   UNL     1      -1.065  -2.141   4.300  0.00  0.00    +0.172 A 
ATOM     22  C   UNL     1      -1.479  -1.848   3.007  0.00  0.00    +0.189 A 
BRANCH  21  23
ATOM     23  N   UNL     1      -1.744  -3.208   5.068  0.00  0.00    +0.060 N 
ATOM     24  O   UNL     1      -1.388  -3.461   6.196  0.00  0.00    -0.126 OA
ATOM     25  O   UNL     1      -2.655  -3.826   4.569  0.00  0.00    -0.126 OA
ENDBRANCH  21  23
BRANCH  17  27
ATOM     26  C   UNL     1      -0.545   0.468   0.316  0.00  0.00    +0.277 C 
ATOM     27  O   UNL     1      -1.245  -0.569   1.008  0.00  0.00    -0.491 OA
ENDBRANCH  17  27
BRANCH  22  28
ATOM     28  O   UNL     1      -2.506  -2.542   2.451  0.00  0.00    -0.502 OA
ATOM     29  H   UNL     1      -2.232  -3.338   1.977  0.00  0.00    +0.292 HD
ENDBRANCH  22  28
ENDBRANCH   1  19
TORSDOF 5
