REMARK  Name = ZINC59891359
REMARK  14 active torsions:
REMARK  status: ('A' for Active; 'I' for Inactive)
REMARK    1  A    between atoms: C_1  and  C_2
REMARK    2  A    between atoms: C_2  and  C_3
REMARK    3  A    between atoms: C_3  and  C_4
REMARK    4  A    between atoms: C_4  and  C_5
REMARK    5  A    between atoms: C_5  and  C_28
REMARK    6  A    between atoms: N_6  and  N_7
REMARK    7  A    between atoms: C_10  and  S_13
REMARK    8  A    between atoms: S_13  and  C_14
REMARK    9  A    between atoms: C_14  and  C_15
REMARK   10  A    between atoms: N_17  and  C_18
REMARK   11  A    between atoms: C_20  and  C_26
REMARK   12  A    between atoms: C_20  and  C_27
REMARK   13  A    between atoms: C_22  and  C_24
REMARK   14  A    between atoms: C_22  and  C_25
REMARK                            x       y       z     vdW  Elec       q    Type
REMARK                         _______ _______ _______ _____ _____    ______ ____
ROOT
ATOM      1  C   UNL     1      -2.299  -6.615   8.502  0.00  0.00    +0.173 C 
ENDROOT
BRANCH   1   2
ATOM      2  C   UNL     1      -3.619  -7.177   8.964  0.00  0.00    +0.224 C 
ATOM      3  O   UNL     1      -4.623  -6.979   8.314  0.00  0.00    -0.275 OA
ATOM      4  N   UNL     1      -3.683  -7.900  10.100  0.00  0.00    -0.312 N 
ATOM      5  H   UNL     1      -2.880  -8.059  10.620  0.00  0.00    +0.149 HD
BRANCH   4   6
ATOM      6  C   UNL     1      -4.969  -8.448  10.550  0.00  0.00    +0.070 C 
ATOM      7  C   UNL     1      -5.696  -7.397  11.392  0.00  0.00    +0.009 C 
ATOM      8  C   UNL     1      -7.032  -7.957  11.878  0.00  0.00    -0.072 C 
ATOM      9  N   UNL     1      -6.873  -9.222  12.580  0.00  0.00    +0.386 N 
ATOM     10  C   UNL     1      -6.027 -10.233  11.967  0.00  0.00    -0.072 C 
ATOM     11  C   UNL     1      -4.715  -9.673  11.427  0.00  0.00    +0.009 C 
ATOM     12  C   UNL     1      -6.764 -10.994  10.861  0.00  0.00    -0.010 C 
ATOM     13  C   UNL     1      -5.669 -11.265  13.062  0.00  0.00    -0.010 C 
ATOM     14  C   UNL     1      -8.015  -8.064  10.714  0.00  0.00    -0.010 C 
ATOM     15  C   UNL     1      -7.618  -6.937  12.881  0.00  0.00    -0.010 C 
ATOM     16  H   UNL     1      -6.512  -9.026  13.517  0.00  0.00    -0.084 HD
ATOM     17  H   UNL     1      -7.801  -9.625  12.729  0.00  0.00    -0.084 HD
ENDBRANCH   4   6
ENDBRANCH   1   2
BRANCH   1  18
ATOM     18  S   UNL     1      -2.540  -5.699   6.956  0.00  0.00    -0.075 S 
BRANCH  18  22
ATOM     19  N   UNL     1       1.359  -3.377   4.535  0.00  0.00    -0.205 N 
ATOM     20  C   UNL     1       0.675  -4.113   5.486  0.00  0.00    +0.232 A 
ATOM     21  N   UNL     1      -0.615  -4.377   5.480  0.00  0.00    -0.186 NA
ATOM     22  C   UNL     1      -0.928  -5.112   6.552  0.00  0.00    +0.211 A 
ATOM     23  N   UNL     1       0.159  -5.325   7.255  0.00  0.00    -0.144 NA
ATOM     24  N   UNL     1       1.214  -4.691   6.580  0.00  0.00    -0.245 N 
ATOM     25  H   UNL     1       2.315  -3.239   4.623  0.00  0.00    +0.177 HD
ATOM     26  H   UNL     1       2.146  -4.671   6.848  0.00  0.00    +0.192 HD
BRANCH  19  28
ATOM     27  C   UNL     1       1.303  -2.149   2.563  0.00  0.00    +0.034 C 
ATOM     28  N   UNL     1       0.670  -2.830   3.444  0.00  0.00    -0.189 NA
ATOM     29  C   UNL     1       2.788  -1.935   2.701  0.00  0.00    +0.062 C 
BRANCH  27  30
ATOM     30  C   UNL     1       0.562  -1.561   1.390  0.00  0.00    +0.052 C 
BRANCH  30  31
ATOM     31  C   UNL     1       0.612  -0.034   1.469  0.00  0.00    +0.006 C 
BRANCH  31  33
ATOM     32  C   UNL     1      -0.091   2.090   0.356  0.00  0.00    +0.004 C 
ATOM     33  C   UNL     1      -0.140   0.563   0.277  0.00  0.00    -0.003 C 
ENDBRANCH  31  33
ENDBRANCH  30  31
ENDBRANCH  27  30
ENDBRANCH  19  28
ENDBRANCH  18  22
ENDBRANCH   1  18
TORSDOF 8
