REMARK  Name = ZINC08846489
REMARK  11 active torsions:
REMARK  status: ('A' for Active; 'I' for Inactive)
REMARK    1  A    between atoms: C_1  and  C_2
REMARK    2  A    between atoms: C_2  and  O_3
REMARK    3  A    between atoms: O_3  and  C_4
REMARK    4  A    between atoms: C_6  and  C_13
REMARK    5  A    between atoms: C_9  and  O_10
REMARK    6  A    between atoms: O_10  and  C_11
REMARK    7  A    between atoms: C_13  and  C_14
REMARK    8  A    between atoms: C_13  and  C_21
REMARK    9  A    between atoms: C_15  and  C_20
REMARK   10  A    between atoms: C_18  and  O_19
REMARK   11  A    between atoms: C_22  and  C_28
REMARK                            x       y       z     vdW  Elec       q    Type
REMARK                         _______ _______ _______ _____ _____    ______ ____
ROOT
ATOM      1  C   UNL     1      -1.248   2.212   0.020  0.00  0.00    +0.093 C 
ENDROOT
BRANCH   1   2
ATOM      2  C   UNL     1      -0.782   2.939   1.256  0.00  0.00    +0.052 A 
ATOM      3  C   UNL     1      -1.452   3.915   1.900  0.00  0.00    +0.041 A 
ATOM      4  N   UNL     1      -0.702   4.323   2.966  0.00  0.00    -0.278 N 
ATOM      5  N   UNL     1       0.479   3.570   2.984  0.00  0.00    -0.131 NA
ATOM      6  H   UNL     1      -1.074   5.119   3.628  0.00  0.00    +0.189 HD
ATOM      7  C   UNL     1       0.435   2.716   1.941  0.00  0.00    +0.292 A 
ATOM      8  O   UNL     1       1.289   1.899   1.644  0.00  0.00    -0.264 OA
ATOM      9  C   UNL     1      -2.798   4.467   1.507  0.00  0.00    +0.065 C 
ENDBRANCH   1   2
BRANCH   1  12
ATOM     10  C   UNL     1      -2.866   4.017  -2.878  0.00  0.00    +0.163 A 
ATOM     11  C   UNL     1      -2.635   3.103  -1.862  0.00  0.00    +0.054 A 
ATOM     12  C   UNL     1      -1.497   3.207  -1.084  0.00  0.00    -0.030 A 
ATOM     13  C   UNL     1      -0.591   4.226  -1.312  0.00  0.00    +0.023 A 
ATOM     14  C   UNL     1      -0.812   5.138  -2.328  0.00  0.00    +0.063 A 
ATOM     15  C   UNL     1      -1.951   5.039  -3.112  0.00  0.00    +0.175 A 
ATOM     16 BR   UNL     1       0.434   6.525  -2.642  0.00  0.00    -0.046 Br
BRANCH  15  17
ATOM     17  O   UNL     1      -2.174   5.938  -4.108  0.00  0.00    -0.490 OA
ATOM     18  C   UNL     1      -2.908   7.115  -3.767  0.00  0.00    +0.277 C 
ENDBRANCH  15  17
BRANCH  10  19
ATOM     19  O   UNL     1      -3.985   3.916  -3.644  0.00  0.00    -0.489 OA
BRANCH  19  21
ATOM     20  C   UNL     1      -6.071   2.890  -4.306  0.00  0.00    +0.048 C 
ATOM     21  C   UNL     1      -4.880   2.842  -3.347  0.00  0.00    +0.226 C 
ENDBRANCH  19  21
ENDBRANCH  10  19
ENDBRANCH   1  12
BRANCH   1  22
ATOM     22  C   UNL     1      -0.189   1.233  -0.416  0.00  0.00    +0.048 A 
ATOM     23  C   UNL     1      -0.288  -0.111  -0.374  0.00  0.00    +0.041 A 
ATOM     24  N   UNL     1       0.874  -0.646  -0.853  0.00  0.00    -0.278 N 
ATOM     25  N   UNL     1       1.727   0.408  -1.206  0.00  0.00    -0.136 NA
ATOM     26  C   UNL     1       1.082   1.563  -0.941  0.00  0.00    +0.236 A 
ATOM     27  C   UNL     1      -1.477  -0.892   0.125  0.00  0.00    +0.065 C 
ATOM     28  H   UNL     1       0.998  -1.738  -0.903  0.00  0.00    +0.189 HD
BRANCH  26  29
ATOM     29  O   UNL     1       1.516   2.687  -1.122  0.00  0.00    -0.491 OA
ATOM     30  H   UNL     1       2.525   2.827  -1.538  0.00  0.00    +0.294 HD
ENDBRANCH  26  29
ENDBRANCH   1  22
TORSDOF 7
