REMARK  Name = ZINC12468457
REMARK  9 active torsions:
REMARK  status: ('A' for Active; 'I' for Inactive)
REMARK    1  A    between atoms: C_1  and  C_2
REMARK    2  A    between atoms: C_4  and  C_32
REMARK    3  A    between atoms: C_5  and  C_9
REMARK    4  A    between atoms: C_6  and  O_8
REMARK    5  A    between atoms: C_11  and  C_15
REMARK    6  A    between atoms: N_17  and  C_18
REMARK    7  A    between atoms: C_19  and  C_31
REMARK    8  A    between atoms: N_20  and  C_30
REMARK    9  A    between atoms: N_21  and  C_24
REMARK                            x       y       z     vdW  Elec       q    Type
REMARK                         _______ _______ _______ _____ _____    ______ ____
ROOT
ATOM      1  C   UNL     1      -0.284  -7.667   1.481  0.00  0.00    +0.266 C 
ATOM      2  O   UNL     1      -0.481  -7.710   2.681  0.00  0.00    -0.268 OA
ATOM      3  N   UNL     1       0.008  -8.795   0.805  0.00  0.00    -0.274 N 
ATOM      4  H   UNL     1       0.093  -8.774  -0.161  0.00  0.00    +0.155 HD
ENDROOT
BRANCH   3   5
ATOM      5  C   UNL     1       0.191 -10.006   1.501  0.00  0.00    +0.122 A 
ATOM      6  C   UNL     1      -0.502 -11.152   1.313  0.00  0.00    +0.059 A 
ATOM      7  N   UNL     1      -0.026 -12.098   2.183  0.00  0.00    -0.282 N 
ATOM      8  N   UNL     1       1.002 -11.540   2.951  0.00  0.00    -0.216 N 
ATOM      9  C   UNL     1       1.170 -10.260   2.559  0.00  0.00    +0.293 A 
ATOM     10  O   UNL     1       1.981  -9.466   3.002  0.00  0.00    -0.264 OA
ATOM     11  C   UNL     1      -0.516 -13.474   2.292  0.00  0.00    +0.171 C 
ATOM     12  C   UNL     1      -1.612 -11.354   0.315  0.00  0.00    +0.067 C 
BRANCH   8  13
ATOM     13  C   UNL     1       1.733 -12.196   3.946  0.00  0.00    +0.067 A 
ATOM     14  C   UNL     1       1.894 -11.608   5.194  0.00  0.00    +0.028 A 
ATOM     15  C   UNL     1       2.616 -12.259   6.175  0.00  0.00    +0.002 A 
ATOM     16  C   UNL     1       3.177 -13.496   5.916  0.00  0.00    +0.000 A 
ATOM     17  C   UNL     1       3.019 -14.085   4.675  0.00  0.00    +0.002 A 
ATOM     18  C   UNL     1       2.293 -13.441   3.691  0.00  0.00    +0.028 A 
ENDBRANCH   8  13
ENDBRANCH   3   5
BRANCH   1  21
ATOM     19  C   UNL     1      -0.612  -4.242   0.240  0.00  0.00    +0.097 A 
ATOM     20  C   UNL     1      -0.653  -5.147   1.317  0.00  0.00    +0.062 A 
ATOM     21  C   UNL     1      -0.365  -6.382   0.767  0.00  0.00    +0.121 A 
ATOM     22  N   UNL     1      -0.171  -6.174  -0.569  0.00  0.00    -0.272 N 
ATOM     23  H   UNL     1       0.047  -6.865  -1.214  0.00  0.00    +0.189 HD
ATOM     24  N   UNL     1      -0.324  -4.930  -0.845  0.00  0.00    -0.173 NA
BRANCH  19  29
ATOM     25  C   UNL     1      -1.557   1.436   0.519  0.00  0.00    +0.044 C 
ATOM     26  C   UNL     1      -1.310  -0.049   0.449  0.00  0.00    -0.047 A 
ATOM     27  C   UNL     1      -1.015  -0.642  -0.766  0.00  0.00    +0.007 A 
ATOM     28  C   UNL     1      -0.787  -2.001  -0.839  0.00  0.00    -0.037 A 
ATOM     29  C   UNL     1      -0.855  -2.780   0.314  0.00  0.00    +0.046 A 
ATOM     30  C   UNL     1      -1.153  -2.179   1.540  0.00  0.00    +0.127 A 
ATOM     31  C   UNL     1      -1.374  -0.812   1.600  0.00  0.00    +0.049 A 
ATOM     32  C   UNL     1      -0.467  -2.642  -2.164  0.00  0.00    +0.044 C 
BRANCH  30  33
ATOM     33  O   UNL     1      -1.221  -2.931   2.669  0.00  0.00    -0.506 OA
ATOM     34  H   UNL     1      -0.380  -3.012   3.139  0.00  0.00    +0.292 HD
ENDBRANCH  30  33
ENDBRANCH  19  29
ENDBRANCH   1  21
TORSDOF 5
