REMARK  Name = ZINC22531501
REMARK  6 active torsions:
REMARK  status: ('A' for Active; 'I' for Inactive)
REMARK    1  A    between atoms: C_1  and  C_2
REMARK    2  A    between atoms: C_5  and  C_8
REMARK    3  A    between atoms: N_10  and  N_11
REMARK    4  A    between atoms: N_11  and  C_12
REMARK    5  A    between atoms: C_17  and  C_20
REMARK    6  A    between atoms: N_22  and  C_23
REMARK                            x       y       z     vdW  Elec       q    Type
REMARK                         _______ _______ _______ _____ _____    ______ ____
ROOT
ATOM      1  C   UNL     1       0.100  -7.010   2.315  0.00  0.00    +0.186 C 
ATOM      2  N   UNL     1       0.096  -6.338   3.441  0.00  0.00    -0.156 NA
ATOM      3  C   UNL     1       0.188  -6.840   4.648  0.00  0.00    +0.240 C 
ATOM      4  O   UNL     1       0.077  -6.078   5.588  0.00  0.00    -0.274 OA
ATOM      5  C   UNL     1       0.419  -8.289   4.949  0.00  0.00    +0.122 C 
ATOM      6  C   UNL     1      -0.292  -9.182   3.938  0.00  0.00    +0.149 C 
ATOM      7  S   UNL     1       0.122  -8.662   2.255  0.00  0.00    -0.077 S 
ENDROOT
BRANCH   6   8
ATOM      8  C   UNL     1      -1.782  -9.075   4.136  0.00  0.00    +0.231 C 
ATOM      9  O   UNL     1      -2.275  -8.018   4.469  0.00  0.00    -0.274 OA
ATOM     10  N   UNL     1      -2.567 -10.153   3.943  0.00  0.00    -0.284 N 
ATOM     11  H   UNL     1      -2.183 -10.980   3.612  0.00  0.00    +0.155 HD
BRANCH  10  12
ATOM     12  C   UNL     1      -3.937 -10.080   4.219  0.00  0.00    +0.036 A 
ATOM     13  C   UNL     1      -4.602 -11.184   4.736  0.00  0.00    +0.043 A 
ATOM     14  C   UNL     1      -5.955 -11.109   5.009  0.00  0.00    +0.044 A 
ATOM     15  C   UNL     1      -6.647  -9.935   4.767  0.00  0.00    +0.040 A 
ATOM     16  C   UNL     1      -5.987  -8.834   4.252  0.00  0.00    +0.044 A 
ATOM     17  C   UNL     1      -4.633  -8.902   3.982  0.00  0.00    +0.043 A 
ATOM     18 CL   UNL     1      -6.858  -7.363   3.949  0.00  0.00    -0.083 Cl
ATOM     19 CL   UNL     1      -6.788 -12.489   5.655  0.00  0.00    -0.083 Cl
ENDBRANCH  10  12
ENDBRANCH   6   8
BRANCH   1  20
ATOM     20  N   UNL     1       0.078  -6.316   1.141  0.00  0.00    -0.124 NA
BRANCH  20  23
ATOM     21  C   UNL     1       0.036  -4.228  -0.003  0.00  0.00    +0.262 C 
ATOM     22  O   UNL     1       0.034  -4.825  -1.062  0.00  0.00    -0.269 OA
ATOM     23  N   UNL     1       0.058  -4.915   1.157  0.00  0.00    -0.210 N 
ATOM     24  H   UNL     1       0.060  -4.439   2.002  0.00  0.00    +0.175 HD
BRANCH  21  29
ATOM     25  C   UNL     1      -0.046   1.525   0.060  0.00  0.00    +0.044 C 
ATOM     26  C   UNL     1      -0.025   0.019   0.043  0.00  0.00    -0.050 A 
ATOM     27  C   UNL     1      -0.027  -0.657  -1.164  0.00  0.00    +0.004 A 
ATOM     28  C   UNL     1      -0.007  -2.036  -1.186  0.00  0.00    +0.013 A 
ATOM     29  C   UNL     1       0.015  -2.750   0.013  0.00  0.00    +0.038 A 
ATOM     30  C   UNL     1       0.018  -2.062   1.228  0.00  0.00    +0.013 A 
ATOM     31  C   UNL     1       0.003  -0.683   1.236  0.00  0.00    +0.004 A 
ENDBRANCH  21  29
ENDBRANCH  20  23
ENDBRANCH   1  20
TORSDOF 5
