REMARK  Name = ZINC38793214
REMARK  6 active torsions:
REMARK  status: ('A' for Active; 'I' for Inactive)
REMARK    1  A    between atoms: C_1  and  C_2
REMARK    2  A    between atoms: C_4  and  C_10
REMARK    3  A    between atoms: C_5  and  C_9
REMARK    4  A    between atoms: N_7  and  C_8
REMARK    5  A    between atoms: C_10  and  C_11
REMARK    6  A    between atoms: C_16  and  C_19
REMARK                            x       y       z     vdW  Elec       q    Type
REMARK                         _______ _______ _______ _____ _____    ______ ____
ROOT
ATOM      1  C   UNL     1      -0.626  -2.051  -2.729  0.00  0.00    +0.220 C 
ATOM      2  O   UNL     1      -0.681  -2.976  -1.946  0.00  0.00    -0.275 OA
ATOM      3  N   UNL     1      -1.143  -2.184  -3.966  0.00  0.00    -0.297 N 
ATOM      4  C   UNL     1      -1.785  -3.438  -4.397  0.00  0.00    +0.113 C 
ATOM      5  C   UNL     1      -3.254  -3.136  -4.704  0.00  0.00    +0.054 C 
ATOM      6  C   UNL     1      -3.370  -1.890  -5.531  0.00  0.00    -0.043 C 
ATOM      7  C   UNL     1      -2.416  -0.972  -5.633  0.00  0.00    -0.004 C 
ATOM      8  C   UNL     1      -1.093  -1.082  -4.937  0.00  0.00    +0.135 C 
ENDROOT
BRANCH   6   9
ATOM      9  C   UNL     1      -4.568  -1.680  -6.243  0.00  0.00    -0.015 C 
ATOM     10  C   UNL     1      -5.725  -2.447  -6.187  0.00  0.00    +0.022 A 
ATOM     11  C   UNL     1      -6.072  -3.607  -5.456  0.00  0.00    +0.013 A 
ATOM     12  C   UNL     1      -7.319  -4.129  -5.628  0.00  0.00    +0.020 A 
ATOM     13  C   UNL     1      -8.224  -3.531  -6.505  0.00  0.00    +0.113 A 
ATOM     14  N   UNL     1      -7.934  -2.458  -7.196  0.00  0.00    -0.238 NA
ATOM     15  C   UNL     1      -6.727  -1.863  -7.097  0.00  0.00    +0.135 A 
ATOM     16  N   UNL     1      -6.237  -0.796  -7.691  0.00  0.00    -0.365 N 
ATOM     17  C   UNL     1      -4.865  -0.569  -7.226  0.00  0.00    +0.150 C 
ATOM     18  H   UNL     1      -6.710  -0.245  -8.333  0.00  0.00    +0.161 HD
ENDBRANCH   6   9
BRANCH   1  19
ATOM     19  C   UNL     1       0.018  -0.752  -2.317  0.00  0.00    +0.129 C 
BRANCH  19  22
ATOM     20  C   UNL     1      -0.486   0.875   0.604  0.00  0.00    +0.030 C 
ATOM     21  C   UNL     1      -0.314  -0.624   0.351  0.00  0.00    +0.099 C 
ATOM     22  C   UNL     1       0.511  -0.864  -0.897  0.00  0.00    -0.027 C 
ATOM     23  C   UNL     1       1.725  -1.187  -0.529  0.00  0.00    -0.001 C 
ATOM     24  N   UNL     1       1.854  -1.194   0.863  0.00  0.00    -0.354 NA
ATOM     25  N   UNL     1       0.498  -1.247   1.427  0.00  0.00    -0.242 NA
ATOM     26  C   UNL     1       0.411  -0.469   2.670  0.00  0.00    +0.126 C 
ATOM     27  C   UNL     1       2.843  -1.510  -1.486  0.00  0.00    +0.060 C 
ATOM     28  H   UNL     1       2.378  -2.006   1.154  0.00  0.00    +0.141 HD
ATOM     29  H   UNL     1       2.321  -0.353   1.169  0.00  0.00    +0.141 HD
ENDBRANCH  19  22
ENDBRANCH   1  19
TORSDOF 3
