REMARK  Name = ZINC01432413
REMARK  3 active torsions:
REMARK  status: ('A' for Active; 'I' for Inactive)
REMARK    1  A    between atoms: C_12  and  C_20
REMARK    2  A    between atoms: C_14  and  C_18
REMARK    3  A    between atoms: C_15  and  N_17
REMARK                            x       y       z     vdW  Elec       q    Type
REMARK                         _______ _______ _______ _____ _____    ______ ____
ROOT
ATOM      1  C   UNL     1       4.403   5.102   1.768  0.00  0.00    +0.001 A 
ATOM      2  C   UNL     1       5.530   4.630   1.109  0.00  0.00    +0.001 A 
ATOM      3  C   UNL     1       5.437   3.510   0.303  0.00  0.00    +0.016 A 
ATOM      4  C   UNL     1       4.217   2.883   0.172  0.00  0.00    +0.026 A 
ATOM      5  C   UNL     1       3.064   3.346   0.829  0.00  0.00    +0.032 A 
ATOM      6  C   UNL     1       3.193   4.488   1.643  0.00  0.00    +0.012 A 
ATOM      7  C   UNL     1       1.748   2.704   0.710  0.00  0.00    +0.147 A 
ATOM      8  C   UNL     1       1.411   1.607  -0.003  0.00  0.00    +0.062 A 
ATOM      9  C   UNL     1       2.309   0.851  -0.807  0.00  0.00    +0.225 A 
ATOM     10  O   UNL     1       1.952  -0.132  -1.435  0.00  0.00    -0.280 OA
ATOM     11  S   UNL     1       3.992   1.439  -0.834  0.00  0.00    -0.047 S 
ATOM     12  C   UNL     1      -0.013   1.086   0.008  0.00  0.00    +0.102 C 
ATOM     13  C   UNL     1      -0.738   1.566   1.232  0.00  0.00    +0.098 C 
ATOM     14  C   UNL     1      -0.296   2.672   1.882  0.00  0.00    +0.199 C 
ATOM     15  O   UNL     1       0.773   3.341   1.433  0.00  0.00    -0.440 OA
ENDROOT
BRANCH  12  16
ATOM     16  C   UNL     1      -0.734   1.581  -1.219  0.00  0.00    -0.032 A 
ATOM     17  C   UNL     1      -1.247   0.677  -2.130  0.00  0.00    +0.007 A 
ATOM     18  C   UNL     1      -1.909   1.128  -3.256  0.00  0.00    +0.041 A 
ATOM     19  C   UNL     1      -2.058   2.487  -3.473  0.00  0.00    +0.158 A 
ATOM     20  C   UNL     1      -1.543   3.394  -2.560  0.00  0.00    +0.159 A 
ATOM     21  C   UNL     1      -0.885   2.938  -1.430  0.00  0.00    +0.046 A 
ATOM     22  F   UNL     1      -1.688   4.721  -2.769  0.00  0.00    -0.202 F 
ATOM     23  F   UNL     1      -2.705   2.929  -4.574  0.00  0.00    -0.202 F 
ENDBRANCH  12  16
BRANCH  14  24
ATOM     24  N   UNL     1      -0.951   3.109   3.006  0.00  0.00    -0.328 N 
ATOM     25  H   UNL     1      -0.638   3.900   3.473  0.00  0.00    +0.145 HD
ATOM     26  H   UNL     1      -1.726   2.627   3.334  0.00  0.00    +0.145 HD
ENDBRANCH  14  24
BRANCH  13  27
ATOM     27  C   UNL     1      -1.888   0.860   1.711  0.00  0.00    +0.101 C 
ATOM     28  N   UNL     1      -2.801   0.300   2.090  0.00  0.00    -0.191 NA
ENDBRANCH  13  27
TORSDOF 3
