REMARK  Name = ZINC63137380
REMARK  6 active torsions:
REMARK  status: ('A' for Active; 'I' for Inactive)
REMARK    1  A    between atoms: C_1  and  O_2
REMARK    2  A    between atoms: O_2  and  C_3
REMARK    3  A    between atoms: C_7  and  C_11
REMARK    4  A    between atoms: C_8  and  O_9
REMARK    5  A    between atoms: O_9  and  C_10
REMARK    6  A    between atoms: N_30  and  C_33
REMARK                            x       y       z     vdW  Elec       q    Type
REMARK                         _______ _______ _______ _____ _____    ______ ____
ROOT
ATOM      1  C   UNL     1       1.843  -3.867  -2.358  0.00  0.00    +0.137 C 
ATOM      2  C   UNL     1       0.685  -4.628  -3.003  0.00  0.00    +0.131 C 
ATOM      3  C   UNL     1       0.700  -4.237  -4.479  0.00  0.00    -0.034 C 
ATOM      4  C   UNL     1      -0.463  -3.653  -4.731  0.00  0.00    -0.001 A 
ATOM      5  C   UNL     1      -1.032  -3.097  -5.970  0.00  0.00    +0.010 A 
ATOM      6  C   UNL     1      -2.276  -2.557  -5.869  0.00  0.00    +0.001 A 
ATOM      7  C   UNL     1      -3.001  -2.515  -4.675  0.00  0.00    +0.002 A 
ATOM      8  C   UNL     1      -2.557  -3.003  -3.489  0.00  0.00    +0.026 A 
ATOM      9  C   UNL     1      -1.261  -3.598  -3.468  0.00  0.00    +0.043 A 
ATOM     10  N   UNL     1      -0.600  -4.155  -2.473  0.00  0.00    -0.375 N 
ATOM     11  C   UNL     1       1.900  -4.507  -5.345  0.00  0.00    +0.065 C 
ATOM     12  C   UNL     1       3.161  -4.205  -4.579  0.00  0.00    +0.167 C 
ATOM     13  N   UNL     1       3.055  -3.940  -3.161  0.00  0.00    -0.279 N 
ATOM     14  C   UNL     1       4.243  -3.682  -2.522  0.00  0.00    +0.234 C 
ATOM     15  O   UNL     1       4.295  -3.511  -1.322  0.00  0.00    -0.274 OA
ATOM     16  C   UNL     1       5.485  -3.620  -3.385  0.00  0.00    +0.204 C 
ATOM     17  N   UNL     1       5.174  -2.841  -4.598  0.00  0.00    -0.288 N 
ATOM     18  C   UNL     1       4.006  -3.139  -5.231  0.00  0.00    +0.237 C 
ATOM     19  O   UNL     1       3.669  -2.583  -6.255  0.00  0.00    -0.274 OA
ATOM     20  H   UNL     1      -0.898  -4.238  -1.554  0.00  0.00    +0.160 HD
ENDROOT
BRANCH   1  25
ATOM     21  C   UNL     1       0.843  -0.574  -0.783  0.00  0.00    +0.162 A 
ATOM     22  C   UNL     1       0.724   0.236  -1.901  0.00  0.00    +0.049 A 
ATOM     23  C   UNL     1       0.967  -0.282  -3.159  0.00  0.00    +0.004 A 
ATOM     24  C   UNL     1       1.329  -1.609  -3.306  0.00  0.00    +0.009 A 
ATOM     25  C   UNL     1       1.449  -2.422  -2.195  0.00  0.00    +0.021 A 
ATOM     26  C   UNL     1       1.213  -1.907  -0.930  0.00  0.00    +0.166 A 
BRANCH  21  28
ATOM     27  C   UNL     1       0.229   1.312   0.530  0.00  0.00    +0.277 C 
ATOM     28  O   UNL     1       0.605  -0.065   0.455  0.00  0.00    -0.491 OA
ENDBRANCH  21  28
BRANCH  26  29
ATOM     29  O   UNL     1       1.337  -2.704   0.165  0.00  0.00    -0.491 OA
ATOM     30  C   UNL     1       0.140  -3.297   0.674  0.00  0.00    +0.277 C 
ENDBRANCH  26  29
ENDBRANCH   1  25
BRANCH  17  31
ATOM     31  C   UNL     1       6.076  -1.800  -5.095  0.00  0.00    +0.077 C 
ATOM     32  C   UNL     1       7.474  -2.394  -5.360  0.00  0.00    +0.022 C 
ATOM     33  C   UNL     1       8.451  -1.270  -4.933  0.00  0.00    +0.002 C 
ATOM     34  C   UNL     1       7.761  -0.674  -3.682  0.00  0.00    +0.002 C 
ATOM     35  C   UNL     1       6.258  -0.706  -4.028  0.00  0.00    +0.022 C 
ENDBRANCH  17  31
TORSDOF 4
