REMARK  Name = ZINC14957612
REMARK  8 active torsions:
REMARK  status: ('A' for Active; 'I' for Inactive)
REMARK    1  A    between atoms: C_6  and  N_11
REMARK    2  A    between atoms: C_12  and  C_14
REMARK    3  A    between atoms: C_14  and  C_16
REMARK    4  A    between atoms: C_14  and  N_53
REMARK    5  A    between atoms: C_16  and  O_17
REMARK    6  A    between atoms: O_17  and  C_18
REMARK    7  A    between atoms: C_20  and  C_24
REMARK    8  A    between atoms: C_25  and  C_26
REMARK                            x       y       z     vdW  Elec       q    Type
REMARK                         _______ _______ _______ _____ _____    ______ ____
ROOT
ATOM      1  C   UNL     1      -4.435  -7.117  -0.031  0.00  0.00    +0.051 C 
ENDROOT
BRANCH   1   3
ATOM      2  N   UNL     1      -4.187  -9.173   1.320  0.00  0.00    -0.287 N 
ATOM      3  C   UNL     1      -4.258  -8.607   0.099  0.00  0.00    +0.206 C 
ATOM      4  O   UNL     1      -4.179  -9.298  -0.895  0.00  0.00    -0.277 OA
ATOM      5  H   UNL     1      -4.173  -8.615   2.114  0.00  0.00    +0.155 HD
BRANCH   2  11
ATOM      6  C   UNL     1      -3.287 -15.295   2.792  0.00  0.00    +0.001 A 
ATOM      7  C   UNL     1      -2.602 -14.503   3.712  0.00  0.00    +0.001 A 
ATOM      8  C   UNL     1      -2.630 -13.145   3.623  0.00  0.00    +0.008 A 
ATOM      9  C   UNL     1      -3.359 -12.530   2.590  0.00  0.00    -0.016 A 
ATOM     10  C   UNL     1      -3.409 -11.131   2.469  0.00  0.00    +0.031 A 
ATOM     11  C   UNL     1      -4.134 -10.566   1.444  0.00  0.00    +0.034 A 
ATOM     12  C   UNL     1      -4.824 -11.369   0.528  0.00  0.00    +0.024 A 
ATOM     13  C   UNL     1      -4.786 -12.725   0.621  0.00  0.00    +0.010 A 
ATOM     14  C   UNL     1      -4.055 -13.336   1.655  0.00  0.00    -0.018 A 
ATOM     15  C   UNL     1      -4.003 -14.735   1.780  0.00  0.00    +0.008 A 
ENDBRANCH   2  11
ENDBRANCH   1   3
BRANCH   1  18
ATOM     16  H   UNL     1      -5.142  -5.813  -1.460  0.00  0.00    -0.089 HD
ATOM     17  H   UNL     1      -4.318  -7.115  -2.087  0.00  0.00    -0.089 HD
ATOM     18  N   UNL     1      -4.975  -6.814  -1.369  0.00  0.00    +0.388 N 
ATOM     19  H   UNL     1      -5.863  -7.314  -1.495  0.00  0.00    -0.089 HD
ENDBRANCH   1  18
BRANCH   1  20
ATOM     20  C   UNL     1      -3.086  -6.423   0.170  0.00  0.00    +0.222 C 
BRANCH  20  21
ATOM     21  O   UNL     1      -3.272  -5.007   0.162  0.00  0.00    -0.492 OA
BRANCH  21  22
ATOM     22  C   UNL     1      -2.165  -4.237   0.330  0.00  0.00    +0.139 A 
ATOM     23  C   UNL     1      -2.265  -2.853   0.334  0.00  0.00    +0.056 A 
ATOM     24  C   UNL     1      -1.094  -2.104   0.509  0.00  0.00    -0.003 A 
ATOM     25  C   UNL     1       0.120  -2.777   0.667  0.00  0.00    +0.118 A 
ATOM     26  N   UNL     1       0.165  -4.093   0.662  0.00  0.00    -0.259 NA
ATOM     27  C   UNL     1      -0.919  -4.827   0.498  0.00  0.00    +0.156 A 
BRANCH  24  28
ATOM     28  C   UNL     1      -1.142  -0.631   0.522  0.00  0.00    +0.010 C 
ATOM     29  C   UNL     1      -0.013   0.075   0.691  0.00  0.00    +0.008 C 
BRANCH  29  30
ATOM     30  C   UNL     1      -0.060   1.548   0.703  0.00  0.00    -0.022 A 
ATOM     31  C   UNL     1      -1.272   2.232   0.534  0.00  0.00    +0.027 A 
ATOM     32  C   UNL     1      -1.270   3.610   0.558  0.00  0.00    +0.111 A 
ATOM     33  N   UNL     1      -0.148   4.284   0.726  0.00  0.00    -0.263 NA
ATOM     34  C   UNL     1       1.015   3.681   0.883  0.00  0.00    +0.111 A 
ATOM     35  C   UNL     1       1.106   2.305   0.879  0.00  0.00    +0.027 A 
ENDBRANCH  29  30
ENDBRANCH  24  28
ENDBRANCH  21  22
ENDBRANCH  20  21
ENDBRANCH   1  20
TORSDOF 8
