REMARK  Name = ZINC15859678
REMARK  6 active torsions:
REMARK  status: ('A' for Active; 'I' for Inactive)
REMARK    1  A    between atoms: C_3  and  C_6
REMARK    2  A    between atoms: C_6  and  C_8
REMARK    3  A    between atoms: C_6  and  N_57
REMARK    4  A    between atoms: C_8  and  N_9
REMARK    5  A    between atoms: C_10  and  C_12
REMARK    6  A    between atoms: C_14  and  C_17
REMARK                            x       y       z     vdW  Elec       q    Type
REMARK                         _______ _______ _______ _____ _____    ______ ____
ROOT
ATOM      1  N   UNL     1      -2.767   1.447  -2.984  0.00  0.00    -0.311 N 
ATOM      2  C   UNL     1      -3.751   1.838  -3.817  0.00  0.00    +0.266 C 
ATOM      3  O   UNL     1      -3.490   2.155  -4.960  0.00  0.00    -0.268 OA
ATOM      4  H   UNL     1      -2.976   1.194  -2.071  0.00  0.00    +0.149 HD
ENDROOT
BRANCH   2   5
ATOM      5  C   UNL     1      -5.155   1.882  -3.338  0.00  0.00    +0.168 A 
ATOM      6  C   UNL     1      -6.297   2.273  -4.084  0.00  0.00    +0.086 A 
ATOM      7  C   UNL     1      -7.329   2.134  -3.198  0.00  0.00    +0.168 A 
ATOM      8  O   UNL     1      -6.784   1.706  -2.046  0.00  0.00    -0.354 OA
ATOM      9  N   UNL     1      -5.586   1.571  -2.140  0.00  0.00    -0.073 NA
BRANCH   7  10
ATOM     10  C   UNL     1      -8.759   2.408  -3.454  0.00  0.00    +0.020 A 
ATOM     11  C   UNL     1      -9.177   2.852  -4.710  0.00  0.00    +0.012 A 
ATOM     12  C   UNL     1     -10.511   3.106  -4.932  0.00  0.00    +0.004 A 
ATOM     13  C   UNL     1     -11.448   2.925  -3.920  0.00  0.00    -0.044 A 
ATOM     14  C   UNL     1     -11.042   2.482  -2.680  0.00  0.00    -0.044 A 
ATOM     15  C   UNL     1      -9.701   2.220  -2.446  0.00  0.00    +0.015 A 
ATOM     16  C   UNL     1     -12.006   2.256  -1.544  0.00  0.00    +0.035 C 
ATOM     17  C   UNL     1     -13.325   2.980  -1.808  0.00  0.00    +0.005 C 
ATOM     18  C   UNL     1     -13.816   2.596  -3.208  0.00  0.00    +0.005 C 
ATOM     19  C   UNL     1     -12.887   3.238  -4.237  0.00  0.00    +0.035 C 
ENDBRANCH   7  10
ENDBRANCH   2   5
BRANCH   1  20
ATOM     20  C   UNL     1      -1.381   1.404  -3.457  0.00  0.00    +0.097 C 
BRANCH  20  21
ATOM     21  C   UNL     1      -0.488   0.808  -2.367  0.00  0.00    +0.016 C 
BRANCH  21  26
ATOM     22  C   UNL     1       1.821   0.370  -1.729  0.00  0.00    -0.078 C 
ATOM     23  C   UNL     1       3.200   0.972  -2.072  0.00  0.00    -0.020 C 
ATOM     24  C   UNL     1       2.887   2.227  -2.918  0.00  0.00    -0.020 C 
ATOM     25  C   UNL     1       1.347   2.273  -3.013  0.00  0.00    -0.078 C 
ATOM     26  N   UNL     1       0.946   0.886  -2.788  0.00  0.00    +0.387 N 
ATOM     27  H   UNL     1       1.075   0.341  -3.648  0.00  0.00    -0.081 HD
ENDBRANCH  21  26
BRANCH  21  30
ATOM     28  C   UNL     1      -1.758  -2.475  -1.277  0.00  0.00    +0.041 A 
ATOM     29  C   UNL     1      -1.647  -1.075  -1.116  0.00  0.00    +0.043 A 
ATOM     30  C   UNL     1      -0.879  -0.627  -2.126  0.00  0.00    +0.093 A 
ATOM     31  O   UNL     1      -0.515  -1.677  -2.880  0.00  0.00    -0.469 OA
ATOM     32  C   UNL     1      -1.046  -2.800  -2.370  0.00  0.00    +0.195 A 
ENDBRANCH  21  30
ENDBRANCH  20  21
ENDBRANCH   1  20
TORSDOF 6
