REMARK  Name = ZINC13688247
REMARK  3 active torsions:
REMARK  status: ('A' for Active; 'I' for Inactive)
REMARK    1  A    between atoms: C_6  and  C_7
REMARK    2  A    between atoms: C_17  and  C_18
REMARK    3  A    between atoms: N_23  and  C_26
REMARK                            x       y       z     vdW  Elec       q    Type
REMARK                         _______ _______ _______ _____ _____    ______ ____
ROOT
ATOM      1  C   UNL     1      -1.300  -0.718  -0.011  0.00  0.00    +0.076 A 
ATOM      2  C   UNL     1      -2.163  -0.737   1.186  0.00  0.00    +0.201 A 
ATOM      3  O   UNL     1      -2.028   0.065   2.094  0.00  0.00    -0.286 OA
ATOM      4  C   UNL     1      -3.201  -1.785   1.216  0.00  0.00    +0.065 A 
ATOM      5  C   UNL     1      -3.909  -2.077   2.381  0.00  0.00    +0.019 A 
ATOM      6  C   UNL     1      -4.856  -3.059   2.368  0.00  0.00    +0.047 A 
ATOM      7  C   UNL     1      -5.121  -3.772   1.198  0.00  0.00    +0.130 A 
ATOM      8  C   UNL     1      -4.431  -3.489   0.034  0.00  0.00    +0.051 A 
ATOM      9  C   UNL     1      -3.463  -2.490   0.028  0.00  0.00    +0.147 A 
ATOM     10  O   UNL     1      -2.789  -2.196  -1.101  0.00  0.00    -0.449 OA
ATOM     11  C   UNL     1      -1.676  -1.460  -1.085  0.00  0.00    +0.219 A 
ATOM     12  C   UNL     1      -4.714  -4.247  -1.238  0.00  0.00    +0.130 C 
ATOM     13  N   UNL     1      -5.438  -5.487  -0.923  0.00  0.00    -0.261 NA
ATOM     14  C   UNL     1      -6.575  -5.197  -0.035  0.00  0.00    +0.319 C 
ATOM     15  O   UNL     1      -6.068  -4.747   1.223  0.00  0.00    -0.476 OA
ENDROOT
BRANCH   1  21
ATOM     16  C   UNL     1       1.073  -0.331   0.650  0.00  0.00    +0.010 A 
ATOM     17  C   UNL     1       2.224   0.428   0.617  0.00  0.00    +0.020 A 
ATOM     18  C   UNL     1       2.257   1.611  -0.102  0.00  0.00    +0.041 A 
ATOM     19  C   UNL     1       1.135   2.038  -0.791  0.00  0.00    +0.020 A 
ATOM     20  C   UNL     1      -0.022   1.286  -0.765  0.00  0.00    +0.010 A 
ATOM     21  C   UNL     1      -0.060   0.095  -0.042  0.00  0.00    -0.011 A 
ATOM     22 CL   UNL     1       3.709   2.562  -0.139  0.00  0.00    -0.084 Cl
ENDBRANCH   1  21
BRANCH  13  23
ATOM     23  C   UNL     1      -5.885  -6.161  -2.149  0.00  0.00    +0.083 C 
ATOM     24  C   UNL     1      -6.945  -5.301  -2.857  0.00  0.00    +0.043 C 
ATOM     25  C   UNL     1      -7.648  -6.131  -3.958  0.00  0.00    +0.167 C 
ATOM     26  S   UNL     1      -7.512  -7.850  -3.316  0.00  0.00    -0.029 S 
ATOM     27  O   UNL     1      -8.806  -8.309  -2.948  0.00  0.00    -0.174 OA
ATOM     28  O   UNL     1      -6.727  -8.619  -4.217  0.00  0.00    -0.174 OA
ATOM     29  C   UNL     1      -6.533  -7.529  -1.789  0.00  0.00    +0.184 C 
ENDBRANCH  13  23
BRANCH  11  30
ATOM     30  C   UNL     1      -0.795  -1.458  -2.308  0.00  0.00    +0.451 C 
ATOM     31  F   UNL     1       0.397  -0.784  -2.022  0.00  0.00    -0.163 F 
ATOM     32  F   UNL     1      -0.509  -2.776  -2.679  0.00  0.00    -0.163 F 
ATOM     33  F   UNL     1      -1.457  -0.811  -3.357  0.00  0.00    -0.163 F 
ENDBRANCH  11  30
TORSDOF 3
