REMARK  Name = ZINC40626353
REMARK  5 active torsions:
REMARK  status: ('A' for Active; 'I' for Inactive)
REMARK    1  A    between atoms: C_9  and  N_11
REMARK    2  A    between atoms: C_13  and  N_30
REMARK    3  A    between atoms: C_14  and  N_18
REMARK    4  A    between atoms: N_18  and  N_19
REMARK    5  A    between atoms: C_20  and  C_22
REMARK                            x       y       z     vdW  Elec       q    Type
REMARK                         _______ _______ _______ _____ _____    ______ ____
ROOT
ATOM      1  N   UNL     1       1.200  -2.089  -0.021  0.00  0.00    -0.296 N 
ATOM      2  C   UNL     1       0.006  -2.788   0.091  0.00  0.00    +0.159 A 
ATOM      3  C   UNL     1       0.008  -4.176   0.195  0.00  0.00    +0.207 A 
ATOM      4  C   UNL     1      -1.216  -4.829   0.305  0.00  0.00    +0.171 A 
ATOM      5  N   UNL     1      -2.336  -4.109   0.307  0.00  0.00    -0.217 NA
ATOM      6  C   UNL     1      -2.295  -2.796   0.207  0.00  0.00    +0.225 A 
ATOM      7  N   UNL     1      -1.157  -2.140   0.106  0.00  0.00    -0.218 NA
ATOM      8  H   UNL     1       2.037  -2.571  -0.115  0.00  0.00    +0.154 HD
ENDROOT
BRANCH   1  17
ATOM      9  C   UNL     1       0.155   1.379   0.648  0.00  0.00    +0.003 A 
ATOM     10  C   UNL     1       1.152   2.103   0.068  0.00  0.00    +0.010 A 
ATOM     11  C   UNL     1       2.215   1.445  -0.571  0.00  0.00    +0.002 A 
ATOM     12  C   UNL     1       3.261   2.165  -1.179  0.00  0.00    +0.011 A 
ATOM     13  C   UNL     1       4.263   1.460  -1.782  0.00  0.00    +0.020 A 
ATOM     14  C   UNL     1       4.230   0.067  -1.783  0.00  0.00    +0.111 A 
ATOM     15  N   UNL     1       3.254  -0.600  -1.216  0.00  0.00    -0.253 NA
ATOM     16  C   UNL     1       2.244   0.030  -0.609  0.00  0.00    +0.092 A 
ATOM     17  C   UNL     1       1.196  -0.694   0.001  0.00  0.00    +0.059 A 
ATOM     18  C   UNL     1       0.171  -0.012   0.619  0.00  0.00    +0.025 A 
ENDBRANCH   1  17
BRANCH   3  19
ATOM     19  N   UNL     1       1.277  -4.937   0.188  0.00  0.00    +0.063 N 
ATOM     20  O   UNL     1       1.848  -5.169   1.228  0.00  0.00    -0.126 OA
ATOM     21  O   UNL     1       1.743  -5.325  -0.858  0.00  0.00    -0.126 OA
ENDBRANCH   3  19
BRANCH   4  22
ATOM     22  N   UNL     1      -1.268  -6.211   0.410  0.00  0.00    -0.246 N 
ATOM     23  H   UNL     1      -0.448  -6.729   0.408  0.00  0.00    +0.172 HD
BRANCH  22  24
ATOM     24  N   UNL     1      -2.505  -6.858   0.521  0.00  0.00    -0.231 N 
ATOM     25  C   UNL     1      -2.556  -8.201   0.623  0.00  0.00    +0.262 C 
ATOM     26  O   UNL     1      -1.529  -8.851   0.620  0.00  0.00    -0.269 OA
ATOM     27  H   UNL     1      -3.325  -6.340   0.523  0.00  0.00    +0.173 HD
BRANCH  25  28
ATOM     28  C   UNL     1      -3.861  -8.884   0.740  0.00  0.00    +0.057 A 
ATOM     29  C   UNL     1      -5.044  -8.142   0.738  0.00  0.00    +0.016 A 
ATOM     30  C   UNL     1      -6.258  -8.784   0.846  0.00  0.00    +0.021 A 
ATOM     31  C   UNL     1      -6.308 -10.165   0.957  0.00  0.00    +0.042 A 
ATOM     32  C   UNL     1      -5.140 -10.908   0.960  0.00  0.00    +0.040 A 
ATOM     33  C   UNL     1      -3.917 -10.276   0.846  0.00  0.00    +0.054 A 
ATOM     34 CL   UNL     1      -2.453 -11.209   0.842  0.00  0.00    -0.083 Cl
ATOM     35 CL   UNL     1      -7.842 -10.966   1.094  0.00  0.00    -0.083 Cl
ENDBRANCH  25  28
ENDBRANCH  22  24
ENDBRANCH   4  22
TORSDOF 5
