REMARK  Name = ZINC13169469
REMARK  6 active torsions:
REMARK  status: ('A' for Active; 'I' for Inactive)
REMARK    1  A    between atoms: C_1  and  C_2
REMARK    2  A    between atoms: C_5  and  C_32
REMARK    3  A    between atoms: C_7  and  N_8
REMARK    4  A    between atoms: N_8  and  C_9
REMARK    5  A    between atoms: N_12  and  C_17
REMARK    6  A    between atoms: C_28  and  C_30
REMARK                            x       y       z     vdW  Elec       q    Type
REMARK                         _______ _______ _______ _____ _____    ______ ____
ROOT
ATOM      1  C   UNL     1       1.599   6.277   0.169  0.00  0.00    +0.075 A 
ATOM      2  C   UNL     1       2.408   5.737   1.191  0.00  0.00    +0.157 A 
ATOM      3  N   UNL     1       2.613   4.451   1.260  0.00  0.00    -0.174 NA
ATOM      4  N   UNL     1       2.041   3.579   0.329  0.00  0.00    -0.221 N 
ATOM      5  C   UNL     1       1.266   4.051  -0.667  0.00  0.00    +0.288 A 
ATOM      6  O   UNL     1       0.773   3.284  -1.479  0.00  0.00    -0.265 OA
ATOM      7  C   UNL     1       1.024   5.430  -0.761  0.00  0.00    +0.129 A 
ATOM      8 CL   UNL     1       0.024   6.064  -2.030  0.00  0.00    -0.076 Cl
ENDROOT
BRANCH   4   9
ATOM      9  C   UNL     1       2.291   2.139   0.434  0.00  0.00    +0.081 C 
ATOM     10  C   UNL     1       0.963   1.403   0.620  0.00  0.00    +0.034 C 
ATOM     11  C   UNL     1       1.224  -0.101   0.729  0.00  0.00    -0.008 C 
ATOM     12  C   UNL     1       1.906  -0.594  -0.549  0.00  0.00    +0.007 C 
ATOM     13  C   UNL     1       3.235   0.142  -0.735  0.00  0.00    -0.008 C 
ATOM     14  C   UNL     1       2.973   1.646  -0.844  0.00  0.00    +0.034 C 
ATOM     15  C   UNL     1       4.142  -0.132   0.466  0.00  0.00    +0.008 C 
ATOM     16  C   UNL     1       3.460   0.361   1.744  0.00  0.00    +0.006 C 
ATOM     17  C   UNL     1       2.132  -0.375   1.930  0.00  0.00    +0.008 C 
ATOM     18  C   UNL     1       3.199   1.865   1.635  0.00  0.00    +0.133 C 
BRANCH  18  19
ATOM     19  C   UNL     1       2.527   2.351   2.893  0.00  0.00    +0.362 C 
ATOM     20  O   UNL     1       1.434   2.864   2.835  0.00  0.00    -0.246 OA
ATOM     21  O   UNL     1       3.142   2.214   4.078  0.00  0.00    -0.246 OA
ENDBRANCH  18  19
ENDBRANCH   4   9
BRANCH   1  22
ATOM     22  N   UNL     1       1.382   7.644   0.098  0.00  0.00    -0.312 N 
ATOM     23  H   UNL     1       1.644   8.135  -0.696  0.00  0.00    +0.152 HD
BRANCH  22  30
ATOM     24  C   UNL     1       1.246  10.480  -0.009  0.00  0.00    +0.045 C 
ATOM     25  C   UNL     1       0.699   9.701   1.160  0.00  0.00    -0.029 A 
ATOM     26  C   UNL     1       0.106  10.369   2.216  0.00  0.00    +0.006 A 
ATOM     27  C   UNL     1      -0.393   9.664   3.291  0.00  0.00    +0.015 A 
ATOM     28  C   UNL     1      -0.305   8.270   3.314  0.00  0.00    +0.065 A 
ATOM     29  C   UNL     1       0.288   7.596   2.246  0.00  0.00    +0.038 A 
ATOM     30  C   UNL     1       0.787   8.314   1.170  0.00  0.00    +0.035 A 
BRANCH  28  31
ATOM     31  C   UNL     1      -0.839   7.512   4.464  0.00  0.00    +0.387 C 
ATOM     32  O   UNL     1      -0.761   6.300   4.482  0.00  0.00    -0.241 OA
ATOM     33  O   UNL     1      -1.411   8.165   5.494  0.00  0.00    -0.241 OA
ENDBRANCH  28  31
ENDBRANCH  22  30
ENDBRANCH   1  22
TORSDOF 5
