REMARK  Name = ZINC64104162
REMARK  8 active torsions:
REMARK  status: ('A' for Active; 'I' for Inactive)
REMARK    1  A    between atoms: C_1  and  C_2
REMARK    2  A    between atoms: C_4  and  C_13
REMARK    3  A    between atoms: C_5  and  C_12
REMARK    4  A    between atoms: N_6  and  C_7
REMARK    5  A    between atoms: C_7  and  C_8
REMARK    6  A    between atoms: N_15  and  C_16
REMARK    7  A    between atoms: C_16  and  C_18
REMARK    8  A    between atoms: C_16  and  C_19
REMARK                            x       y       z     vdW  Elec       q    Type
REMARK                         _______ _______ _______ _____ _____    ______ ____
ROOT
ATOM      1  C   UNL     1       0.043  -3.387  -1.447  0.00  0.00    +0.246 C 
ATOM      2  O   UNL     1       0.060  -4.481  -0.916  0.00  0.00    -0.270 OA
ATOM      3  N   UNL     1       0.035  -3.290  -2.791  0.00  0.00    -0.305 N 
ATOM      4  H   UNL     1       0.022  -2.417  -3.214  0.00  0.00    +0.150 HD
ENDROOT
BRANCH   1   8
ATOM      5  C   UNL     1      -0.018   1.503   0.010  0.00  0.00    +0.063 C 
ATOM      6  C   UNL     1       0.002  -0.004   0.002  0.00  0.00    +0.017 A 
ATOM      7  C   UNL     1       0.008  -0.780  -1.096  0.00  0.00    +0.035 A 
ATOM      8  C   UNL     1       0.030  -2.168  -0.620  0.00  0.00    +0.057 A 
ATOM      9  C   UNL     1       0.035  -2.101   0.746  0.00  0.00    +0.028 A 
ATOM     10  N   UNL     1       0.023  -0.804   1.107  0.00  0.00    -0.339 N 
ATOM     11  C   UNL     1       0.055  -3.278   1.686  0.00  0.00    +0.064 C 
BRANCH  10  12
ATOM     12  C   UNL     1       0.030  -0.320   2.490  0.00  0.00    +0.234 C 
BRANCH  12  13
ATOM     13  C   UNL     1      -1.411  -0.172   2.985  0.00  0.00    +0.407 C 
ATOM     14  F   UNL     1      -2.053  -1.414   2.928  0.00  0.00    -0.169 F 
ATOM     15  F   UNL     1      -1.405   0.289   4.306  0.00  0.00    -0.169 F 
ATOM     16  F   UNL     1      -2.091   0.742   2.175  0.00  0.00    -0.169 F 
ENDBRANCH  12  13
ENDBRANCH  10  12
ENDBRANCH   1   8
BRANCH   3  17
ATOM     17  C   UNL     1       0.049  -4.502  -3.613  0.00  0.00    +0.100 C 
ATOM     18  C   UNL     1       1.491  -4.975  -3.802  0.00  0.00    +0.033 C 
BRANCH  17  19
ATOM     19  C   UNL     1      -0.562  -4.204  -4.958  0.00  0.00    -0.026 A 
ATOM     20  C   UNL     1      -0.254  -2.936  -5.609  0.00  0.00    +0.007 A 
ATOM     21  C   UNL     1      -0.767  -2.606  -6.814  0.00  0.00    +0.025 A 
ATOM     22  C   UNL     1      -1.660  -3.540  -7.497  0.00  0.00    +0.056 A 
ATOM     23  N   UNL     1      -2.308  -3.534  -8.635  0.00  0.00    -0.268 N 
ATOM     24  C   UNL     1      -3.005  -4.714  -8.744  0.00  0.00    +0.308 C 
ATOM     25  O   UNL     1      -3.708  -5.024  -9.682  0.00  0.00    -0.252 OA
ATOM     26  N   UNL     1      -2.784  -5.490  -7.631  0.00  0.00    -0.268 N 
ATOM     27  C   UNL     1      -1.976  -4.843  -6.829  0.00  0.00    +0.056 A 
ATOM     28  C   UNL     1      -1.374  -5.121  -5.527  0.00  0.00    +0.030 A 
ATOM     29  H   UNL     1      -2.299  -2.818  -9.289  0.00  0.00    +0.156 HD
ATOM     30  H   UNL     1      -3.161  -6.369  -7.467  0.00  0.00    +0.156 HD
ENDBRANCH  17  19
ENDBRANCH   3  17
TORSDOF 5
