REMARK  Name = ZINC40322068
REMARK  7 active torsions:
REMARK  status: ('A' for Active; 'I' for Inactive)
REMARK    1  A    between atoms: C_5  and  C_7
REMARK    2  A    between atoms: C_7  and  C_9
REMARK    3  A    between atoms: C_7  and  N_28
REMARK    4  A    between atoms: C_9  and  N_10
REMARK    5  A    between atoms: C_11  and  C_13
REMARK    6  A    between atoms: C_16  and  S_18
REMARK    7  A    between atoms: S_18  and  C_21
REMARK                            x       y       z     vdW  Elec       q    Type
REMARK                         _______ _______ _______ _____ _____    ______ ____
ROOT
ATOM      1  N   UNL     1       0.275  -2.174   2.246  0.00  0.00    -0.310 N 
ATOM      2  C   UNL     1       0.261  -2.393   3.576  0.00  0.00    +0.279 C 
ATOM      3  O   UNL     1       1.173  -3.004   4.102  0.00  0.00    -0.267 OA
ATOM      4  H   UNL     1      -0.452  -1.687   1.827  0.00  0.00    +0.149 HD
ENDROOT
BRANCH   2   5
ATOM      5  C   UNL     1      -0.852  -1.894   4.390  0.00  0.00    +0.192 A 
ATOM      6  C   UNL     1      -0.988  -2.040   5.741  0.00  0.00    +0.056 A 
ATOM      7  C   UNL     1      -2.192  -1.413   6.096  0.00  0.00    +0.070 A 
ATOM      8  C   UNL     1      -2.732  -0.918   4.960  0.00  0.00    +0.246 A 
ATOM      9  O   UNL     1      -1.920  -1.205   3.935  0.00  0.00    -0.433 OA
BRANCH   8  10
ATOM     10  S   UNL     1      -4.253  -0.035   4.848  0.00  0.00    +0.058 S 
ATOM     11  O   UNL     1      -4.716  -0.191   3.514  0.00  0.00    -0.161 OA
ATOM     12  O   UNL     1      -5.030  -0.419   5.974  0.00  0.00    -0.161 OA
BRANCH  10  13
ATOM     13  C   UNL     1      -3.879   1.675   5.054  0.00  0.00    +0.097 A 
ATOM     14  C   UNL     1      -3.878   2.234   6.318  0.00  0.00    +0.029 A 
ATOM     15  C   UNL     1      -3.585   3.575   6.481  0.00  0.00    +0.022 A 
ATOM     16  C   UNL     1      -3.292   4.358   5.378  0.00  0.00    +0.041 A 
ATOM     17  C   UNL     1      -3.294   3.797   4.113  0.00  0.00    +0.022 A 
ATOM     18  C   UNL     1      -3.582   2.455   3.952  0.00  0.00    +0.029 A 
ATOM     19 CL   UNL     1      -2.925   6.042   5.581  0.00  0.00    -0.084 Cl
ENDBRANCH  10  13
ENDBRANCH   8  10
ENDBRANCH   2   5
BRANCH   1  20
ATOM     20  C   UNL     1       1.387  -2.673   1.434  0.00  0.00    +0.094 C 
BRANCH  20  21
ATOM     21  C   UNL     1       1.220  -2.192  -0.009  0.00  0.00    -0.019 C 
BRANCH  21  26
ATOM     22  C   UNL     1       0.337   1.479  -0.055  0.00  0.00    +0.000 A 
ATOM     23  C   UNL     1       1.587   2.063  -0.145  0.00  0.00    +0.001 A 
ATOM     24  C   UNL     1       2.719   1.271  -0.191  0.00  0.00    +0.020 A 
ATOM     25  C   UNL     1       2.601  -0.107  -0.147  0.00  0.00    +0.043 A 
ATOM     26  C   UNL     1       1.350  -0.691  -0.057  0.00  0.00    -0.041 A 
ATOM     27  C   UNL     1       0.219   0.102  -0.011  0.00  0.00    +0.003 A 
ATOM     28 CL   UNL     1       4.022  -1.103  -0.205  0.00  0.00    -0.083 Cl
ENDBRANCH  21  26
BRANCH  21  29
ATOM     29  N   UNL     1      -0.105  -2.585  -0.506  0.00  0.00    +0.385 N 
ATOM     30  C   UNL     1      -0.269  -4.037  -0.362  0.00  0.00    -0.078 C 
ATOM     31  C   UNL     1      -1.677  -4.441  -0.803  0.00  0.00    -0.019 C 
ATOM     32  C   UNL     1      -1.881  -4.045  -2.268  0.00  0.00    -0.004 C 
ATOM     33  C   UNL     1      -1.635  -2.541  -2.420  0.00  0.00    -0.019 C 
ATOM     34  C   UNL     1      -0.228  -2.207  -1.919  0.00  0.00    -0.078 C 
ATOM     35  H   UNL     1      -0.818  -2.113   0.030  0.00  0.00    -0.081 HD
ENDBRANCH  21  29
ENDBRANCH  20  21
ENDBRANCH   1  20
TORSDOF 7
