REMARK  Name = ZINC01355515
REMARK  7 active torsions:
REMARK  status: ('A' for Active; 'I' for Inactive)
REMARK    1  A    between atoms: C_1  and  C_2
REMARK    2  A    between atoms: C_2  and  C_3
REMARK    3  A    between atoms: C_2  and  C_4
REMARK    4  A    between atoms: C_2  and  C_5
REMARK    5  A    between atoms: C_5  and  C_6
REMARK    6  A    between atoms: C_15  and  C_17
REMARK    7  A    between atoms: C_23  and  C_25
REMARK                            x       y       z     vdW  Elec       q    Type
REMARK                         _______ _______ _______ _____ _____    ______ ____
ROOT
ATOM      1  C   UNL     1      -5.040   4.482  -1.061  0.00  0.00    +0.080 A 
ATOM      2  C   UNL     1      -5.922   5.196  -0.298  0.00  0.00    +0.076 A 
ATOM      3  S   UNL     1      -6.993   5.861  -1.566  0.00  0.00    -0.060 S 
ATOM      4  C   UNL     1      -6.168   5.119  -2.967  0.00  0.00    +0.165 A 
ATOM      5  N   UNL     1      -5.188   4.460  -2.377  0.00  0.00    -0.225 NA
ATOM      6  N   UNL     1      -6.476   5.211  -4.318  0.00  0.00    -0.261 N 
ATOM      7  C   UNL     1      -7.533   5.945  -4.720  0.00  0.00    +0.250 C 
ATOM      8  O   UNL     1      -8.217   6.526  -3.899  0.00  0.00    -0.270 OA
ATOM      9  H   UNL     1      -5.931   4.747  -4.973  0.00  0.00    +0.157 HD
ENDROOT
BRANCH   1  19
ATOM     10  C   UNL     1      -0.386   1.342   2.462  0.00  0.00    +0.220 C 
ATOM     11  O   UNL     1       0.598   0.677   2.708  0.00  0.00    -0.275 OA
ATOM     12  N   UNL     1      -0.738   1.578   1.183  0.00  0.00    -0.271 N 
ATOM     13  C   UNL     1      -0.013   1.086   0.008  0.00  0.00    +0.118 C 
ATOM     14  C   UNL     1      -0.797   1.615  -1.204  0.00  0.00    +0.056 C 
ATOM     15  C   UNL     1      -1.947   2.393  -0.604  0.00  0.00    -0.024 A 
ATOM     16  C   UNL     1      -1.849   2.328   0.778  0.00  0.00    +0.040 A 
ATOM     17  C   UNL     1      -2.808   2.976   1.561  0.00  0.00    +0.024 A 
ATOM     18  C   UNL     1      -3.838   3.671   0.969  0.00  0.00    +0.012 A 
ATOM     19  C   UNL     1      -3.932   3.733  -0.420  0.00  0.00    +0.001 A 
ATOM     20  C   UNL     1      -2.975   3.089  -1.203  0.00  0.00    +0.015 A 
BRANCH  10  21
ATOM     21  C   UNL     1      -1.215   1.904   3.587  0.00  0.00    +0.102 C 
BRANCH  21  23
ATOM     22  C   UNL     1       0.824   2.036   5.025  0.00  0.00    +0.011 C 
ATOM     23  C   UNL     1      -0.603   1.492   4.928  0.00  0.00    -0.029 C 
ATOM     24  C   UNL     1      -1.445   2.063   6.070  0.00  0.00    +0.011 C 
ATOM     25  C   UNL     1      -0.575  -0.034   5.028  0.00  0.00    +0.011 C 
ENDBRANCH  21  23
ENDBRANCH  10  21
ENDBRANCH   1  19
BRANCH   7  26
ATOM     26  C   UNL     1      -7.861   6.043  -6.155  0.00  0.00    +0.041 A 
ATOM     27  C   UNL     1      -7.073   5.380  -7.100  0.00  0.00    +0.017 A 
ATOM     28  C   UNL     1      -7.384   5.468  -8.439  0.00  0.00    +0.050 A 
ATOM     29  C   UNL     1      -8.472   6.223  -8.856  0.00  0.00    +0.166 A 
ATOM     30  C   UNL     1      -9.259   6.892  -7.918  0.00  0.00    +0.167 A 
ATOM     31  C   UNL     1      -8.956   6.803  -6.574  0.00  0.00    +0.062 A 
ATOM     32  O   UNL     1     -10.254   7.555  -8.578  0.00  0.00    -0.453 OA
ATOM     33  C   UNL     1      -9.826   7.620  -9.951  0.00  0.00    +0.466 C 
ATOM     34  O   UNL     1      -8.975   6.468 -10.100  0.00  0.00    -0.453 OA
ENDBRANCH   7  26
TORSDOF 4
