REMARK  Name = ZINC13030275
REMARK  10 active torsions:
REMARK  status: ('A' for Active; 'I' for Inactive)
REMARK    1  A    between atoms: C_1  and  C_2
REMARK    2  A    between atoms: C_7  and  N_8
REMARK    3  A    between atoms: C_9  and  C_11
REMARK    4  A    between atoms: C_11  and  N_50
REMARK    5  A    between atoms: C_12  and  N_50
REMARK    6  A    between atoms: C_13  and  C_14
REMARK    7  A    between atoms: C_13  and  N_50
REMARK    8  A    between atoms: N_16  and  C_17
REMARK    9  A    between atoms: C_17  and  C_19
REMARK   10  A    between atoms: C_17  and  C_20
REMARK                            x       y       z     vdW  Elec       q    Type
REMARK                         _______ _______ _______ _____ _____    ______ ____
ROOT
ATOM      1  C   UNL     1       2.478   0.277   1.221  0.00  0.00    -0.095 C 
ATOM      2  N   UNL     1       2.405   1.023  -0.053  0.00  0.00    +0.389 N 
ATOM      3  H   UNL     1       2.251   0.358  -0.821  0.00  0.00    -0.081 HD
ENDROOT
BRANCH   2   4
ATOM      4  C   UNL     1       1.280   1.980  -0.015  0.00  0.00    +0.019 C 
BRANCH   4   6
ATOM      5  N   UNL     1      -1.191   1.867   0.018  0.00  0.00    -0.287 N 
ATOM      6  C   UNL     1      -0.014   1.209   0.005  0.00  0.00    +0.201 C 
ATOM      7  O   UNL     1       0.003  -0.004   0.005  0.00  0.00    -0.278 OA
ATOM      8  H   UNL     1      -1.205   2.833   0.099  0.00  0.00    +0.155 HD
BRANCH   5  15
ATOM      9  C   UNL     1      -3.546   3.040   1.100  0.00  0.00    +0.046 C 
ATOM     10  C   UNL     1      -3.564   1.691   0.428  0.00  0.00    -0.028 A 
ATOM     11  C   UNL     1      -4.749   0.989   0.320  0.00  0.00    +0.020 A 
ATOM     12  C   UNL     1      -4.765  -0.252  -0.291  0.00  0.00    +0.018 A 
ATOM     13  C   UNL     1      -3.597  -0.791  -0.800  0.00  0.00    +0.017 A 
ATOM     14  C   UNL     1      -2.411  -0.091  -0.699  0.00  0.00    +0.024 A 
ATOM     15  C   UNL     1      -2.391   1.155  -0.086  0.00  0.00    +0.036 A 
ATOM     16 BR   UNL     1      -6.387  -1.214  -0.431  0.00  0.00    -0.050 Br
ENDBRANCH   5  15
ENDBRANCH   4   6
ENDBRANCH   2   4
BRANCH   2  17
ATOM     17  C   UNL     1       3.674   1.743  -0.290  0.00  0.00    +0.019 C 
BRANCH  17  18
ATOM     18  C   UNL     1       4.765   0.736  -0.543  0.00  0.00    +0.197 C 
ATOM     19  O   UNL     1       4.515  -0.451  -0.513  0.00  0.00    -0.278 OA
ATOM     20  N   UNL     1       6.020   1.153  -0.805  0.00  0.00    -0.310 N 
ATOM     21  H   UNL     1       6.221   2.101  -0.829  0.00  0.00    +0.149 HD
BRANCH  20  22
ATOM     22  C   UNL     1       7.081   0.173  -1.052  0.00  0.00    +0.100 C 
ATOM     23  C   UNL     1       7.669  -0.289   0.283  0.00  0.00    +0.033 C 
BRANCH  22  24
ATOM     24  C   UNL     1       8.165   0.806  -1.886  0.00  0.00    -0.027 A 
ATOM     25  C   UNL     1       8.546   2.113  -1.647  0.00  0.00    +0.007 A 
ATOM     26  C   UNL     1       9.544   2.692  -2.409  0.00  0.00    +0.020 A 
ATOM     27  C   UNL     1      10.153   1.966  -3.418  0.00  0.00    +0.041 A 
ATOM     28  C   UNL     1       9.767   0.660  -3.660  0.00  0.00    +0.020 A 
ATOM     29  C   UNL     1       8.773   0.081  -2.894  0.00  0.00    +0.007 A 
ATOM     30 CL   UNL     1      11.401   2.695  -4.379  0.00  0.00    -0.084 Cl
ENDBRANCH  22  24
ENDBRANCH  20  22
ENDBRANCH  17  18
ENDBRANCH   2  17
TORSDOF 7
