REMARK  Name = ZINC19311080
REMARK  6 active torsions:
REMARK  status: ('A' for Active; 'I' for Inactive)
REMARK    1  A    between atoms: C_1  and  N_2
REMARK    2  A    between atoms: N_5  and  S_8
REMARK    3  A    between atoms: S_8  and  C_11
REMARK    4  A    between atoms: C_14  and  N_17
REMARK    5  A    between atoms: C_18  and  C_20
REMARK    6  A    between atoms: C_21  and  C_22
REMARK                            x       y       z     vdW  Elec       q    Type
REMARK                         _______ _______ _______ _____ _____    ______ ____
ROOT
ATOM      1  C   UNL     1       0.212   0.436   3.558  0.00  0.00    +0.106 A 
ATOM      2  C   UNL     1       1.123  -0.602   3.493  0.00  0.00    +0.030 A 
ATOM      3  C   UNL     1       2.187  -0.646   4.372  0.00  0.00    +0.025 A 
ATOM      4  C   UNL     1       2.335   0.348   5.331  0.00  0.00    +0.034 A 
ATOM      5  C   UNL     1       1.414   1.387   5.398  0.00  0.00    +0.025 A 
ATOM      6  C   UNL     1       0.356   1.427   4.512  0.00  0.00    +0.030 A 
ENDROOT
BRANCH   4   7
ATOM      7  N   UNL     1       3.407   0.303   6.227  0.00  0.00    -0.282 N 
ATOM      8  C   UNL     1       4.593  -0.200   5.834  0.00  0.00    +0.241 C 
ATOM      9  O   UNL     1       4.761  -0.527   4.673  0.00  0.00    -0.270 OA
ATOM     10  H   UNL     1       3.282   0.679   7.253  0.00  0.00    +0.155 HD
BRANCH   8  11
ATOM     11  C   UNL     1       5.680  -0.354   6.801  0.00  0.00    +0.068 C 
ATOM     12  C   UNL     1       6.868  -0.858   6.407  0.00  0.00    +0.016 C 
BRANCH  12  13
ATOM     13  C   UNL     1       7.960  -1.013   7.380  0.00  0.00    +0.011 A 
ATOM     14  C   UNL     1       7.772  -0.638   8.714  0.00  0.00    +0.026 A 
ATOM     15  C   UNL     1       8.801  -0.786   9.620  0.00  0.00    +0.019 A 
ATOM     16  C   UNL     1      10.020  -1.304   9.212  0.00  0.00    +0.018 A 
ATOM     17  C   UNL     1      10.216  -1.678   7.896  0.00  0.00    +0.040 A 
ATOM     18  C   UNL     1       9.193  -1.542   6.976  0.00  0.00    +0.131 A 
ATOM     19  F   UNL     1       9.384  -1.912   5.691  0.00  0.00    -0.205 F 
ATOM     20 BR   UNL     1       8.548  -0.280  11.424  0.00  0.00    -0.050 Br
ENDBRANCH  12  13
ENDBRANCH   8  11
ENDBRANCH   4   7
BRANCH   1  21
ATOM     21  S   UNL     1      -1.139   0.493   2.429  0.00  0.00    +0.061 S 
ATOM     22  O   UNL     1      -2.157   1.265   3.052  0.00  0.00    -0.153 OA
ATOM     23  O   UNL     1      -1.357  -0.841   1.989  0.00  0.00    -0.153 OA
BRANCH  21  28
ATOM     24  C   UNL     1      -1.253   3.030  -2.694  0.00  0.00    -0.096 C 
ATOM     25  N   UNL     1      -0.732   2.576  -1.398  0.00  0.00    +0.380 N 
ATOM     26  C   UNL     1      -0.715   1.109  -1.321  0.00  0.00    -0.062 C 
ATOM     27  C   UNL     1      -0.002   0.677  -0.036  0.00  0.00    +0.091 C 
ATOM     28  N   UNL     1      -0.636   1.352   1.106  0.00  0.00    -0.180 NA
ATOM     29  C   UNL     1      -0.817   2.811   1.038  0.00  0.00    +0.091 C 
ATOM     30  C   UNL     1      -1.499   3.159  -0.289  0.00  0.00    -0.062 C 
ATOM     31  H   UNL     1       0.306   2.928  -1.308  0.00  0.00    -0.082 HD
ENDBRANCH  21  28
ENDBRANCH   1  21
TORSDOF 5
