REMARK  Name = ZINC67294957
REMARK  2 active torsions:
REMARK  status: ('A' for Active; 'I' for Inactive)
REMARK    1  A    between atoms: C_9  and  C_21
REMARK    2  A    between atoms: N_11  and  C_12
REMARK                            x       y       z     vdW  Elec       q    Type
REMARK                         _______ _______ _______ _____ _____    ______ ____
ROOT
ATOM      1  C   UNL     1      -0.057   0.799  -0.145  0.00  0.00    +0.023 A 
ATOM      2  C   UNL     1       0.988   1.698  -0.060  0.00  0.00    +0.048 A 
ATOM      3  C   UNL     1       2.297   1.240  -0.064  0.00  0.00    +0.138 A 
ATOM      4  C   UNL     1       2.550  -0.142  -0.152  0.00  0.00    +0.020 A 
ATOM      5  C   UNL     1       1.481  -1.041  -0.240  0.00  0.00    +0.031 A 
ATOM      6  C   UNL     1       0.188  -0.564  -0.235  0.00  0.00    +0.042 A 
ATOM      7 CL   UNL     1      -1.142  -1.675  -0.343  0.00  0.00    -0.084 Cl
ATOM      8  C   UNL     1       3.934  -0.621  -0.146  0.00  0.00    +0.030 A 
ATOM      9  C   UNL     1       4.921   0.285   0.218  0.00  0.00    +0.098 A 
ATOM     10  C   UNL     1       4.484   1.652   0.565  0.00  0.00    +0.212 A 
ATOM     11  N   UNL     1       5.190   2.402   1.384  0.00  0.00    -0.325 N 
ATOM     12  O   UNL     1       3.332   2.112   0.014  0.00  0.00    -0.439 OA
ATOM     13  H   UNL     1       6.009   2.057   1.773  0.00  0.00    +0.169 HD
ENDROOT
BRANCH   9  14
ATOM     14  C   UNL     1       6.342  -0.100   0.256  0.00  0.00    +0.255 C 
ATOM     15  O   UNL     1       7.196   0.744   0.450  0.00  0.00    -0.270 OA
ATOM     16  N   UNL     1       6.695  -1.388   0.076  0.00  0.00    -0.261 N 
ATOM     17  C   UNL     1       8.024  -1.768   0.210  0.00  0.00    +0.165 A 
ATOM     18  N   UNL     1       9.063  -1.019   0.510  0.00  0.00    -0.233 NA
ATOM     19  C   UNL     1      10.274  -1.536   0.600  0.00  0.00    +0.120 A 
ATOM     20  C   UNL     1      10.395  -2.866   0.370  0.00  0.00    +0.068 A 
ATOM     21  S   UNL     1       8.696  -3.301   0.034  0.00  0.00    -0.061 S 
ATOM     22  H   UNL     1       6.022  -2.050  -0.147  0.00  0.00    +0.157 HD
ENDBRANCH   9  14
BRANCH  11  23
ATOM     23  C   UNL     1       4.770   3.668   1.685  0.00  0.00    +0.047 A 
ATOM     24  C   UNL     1       4.312   4.515   0.673  0.00  0.00    +0.064 A 
ATOM     25  C   UNL     1       3.889   5.792   0.984  0.00  0.00    +0.128 A 
ATOM     26  C   UNL     1       3.918   6.235   2.297  0.00  0.00    +0.076 A 
ATOM     27  C   UNL     1       4.371   5.399   3.306  0.00  0.00    +0.128 A 
ATOM     28  C   UNL     1       4.791   4.117   3.008  0.00  0.00    +0.064 A 
ATOM     29  F   UNL     1       4.397   5.838   4.583  0.00  0.00    -0.205 F 
ATOM     30  F   UNL     1       3.446   6.613   0.007  0.00  0.00    -0.205 F 
ENDBRANCH  11  23
TORSDOF 2
