REMARK  Name = ZINC20060218
REMARK  4 active torsions:
REMARK  status: ('A' for Active; 'I' for Inactive)
REMARK    1  A    between atoms: C_4  and  N_7
REMARK    2  A    between atoms: C_8  and  C_27
REMARK    3  A    between atoms: N_17  and  C_20
REMARK    4  A    between atoms: C_32  and  O_33
REMARK                            x       y       z     vdW  Elec       q    Type
REMARK                         _______ _______ _______ _____ _____    ______ ____
ROOT
ATOM      1  N   UNL     1       3.620  -0.649  -0.036  0.00  0.00    -0.244 N 
ATOM      2  C   UNL     1       3.798  -2.131  -0.052  0.00  0.00    +0.160 C 
ATOM      3  C   UNL     1       5.303  -2.307   0.094  0.00  0.00    +0.146 C 
ATOM      4  C   UNL     1       5.732  -0.978  -0.639  0.00  0.00    +0.249 C 
ATOM      5  O   UNL     1       4.935  -0.040  -0.047  0.00  0.00    -0.257 OA
ATOM      6  C   UNL     1       7.128  -1.250  -0.924  0.00  0.00    +0.259 C 
ATOM      7  O   UNL     1       8.043  -0.455  -0.947  0.00  0.00    -0.272 OA
ATOM      8  N   UNL     1       7.193  -2.599  -1.160  0.00  0.00    -0.208 N 
ATOM      9  C   UNL     1       6.053  -3.269  -0.771  0.00  0.00    +0.235 C 
ATOM     10  O   UNL     1       5.720  -4.396  -1.068  0.00  0.00    -0.274 OA
ENDROOT
BRANCH   8  11
ATOM     11  C   UNL     1       8.306  -3.235  -1.728  0.00  0.00    +0.044 A 
ATOM     12  C   UNL     1       8.288  -4.607  -1.941  0.00  0.00    +0.025 A 
ATOM     13  C   UNL     1       9.386  -5.231  -2.501  0.00  0.00    +0.017 A 
ATOM     14  C   UNL     1      10.501  -4.491  -2.849  0.00  0.00    +0.018 A 
ATOM     15  C   UNL     1      10.521  -3.124  -2.639  0.00  0.00    +0.017 A 
ATOM     16  C   UNL     1       9.424  -2.494  -2.084  0.00  0.00    +0.025 A 
ATOM     17 BR   UNL     1      12.002  -5.350  -3.615  0.00  0.00    -0.050 Br
ENDBRANCH   8  11
BRANCH   1  21
ATOM     18  C   UNL     1      -0.017   1.379   0.010  0.00  0.00    +0.000 A 
ATOM     19  C   UNL     1       1.169   2.089   0.002  0.00  0.00    +0.002 A 
ATOM     20  C   UNL     1       2.377   1.420  -0.013  0.00  0.00    +0.028 A 
ATOM     21  C   UNL     1       2.400   0.031  -0.021  0.00  0.00    +0.065 A 
ATOM     22  C   UNL     1       1.206  -0.680  -0.013  0.00  0.00    +0.028 A 
ATOM     23  C   UNL     1       0.002  -0.004   0.002  0.00  0.00    +0.002 A 
ENDBRANCH   1  21
BRANCH   2  24
ATOM     24  C   UNL     1       3.316  -2.709  -1.357  0.00  0.00    +0.020 A 
ATOM     25  C   UNL     1       3.265  -1.917  -2.488  0.00  0.00    +0.009 A 
ATOM     26  C   UNL     1       2.823  -2.448  -3.686  0.00  0.00    +0.001 A 
ATOM     27  C   UNL     1       2.431  -3.772  -3.755  0.00  0.00    +0.004 A 
ATOM     28  C   UNL     1       2.480  -4.568  -2.628  0.00  0.00    +0.046 A 
ATOM     29  C   UNL     1       2.928  -4.040  -1.426  0.00  0.00    +0.122 A 
BRANCH  29  30
ATOM     30  O   UNL     1       2.983  -4.822  -0.316  0.00  0.00    -0.506 OA
ATOM     31  H   UNL     1       2.171  -4.818   0.209  0.00  0.00    +0.292 HD
ENDBRANCH  29  30
ENDBRANCH   2  24
TORSDOF 4
