REMARK  Name = ZINC39012749
REMARK  8 active torsions:
REMARK  status: ('A' for Active; 'I' for Inactive)
REMARK    1  A    between atoms: C_4  and  N_11
REMARK    2  A    between atoms: C_5  and  C_7
REMARK    3  A    between atoms: C_12  and  C_14
REMARK    4  A    between atoms: C_14  and  S_15
REMARK    5  A    between atoms: S_15  and  C_16
REMARK    6  A    between atoms: C_20  and  C_24
REMARK    7  A    between atoms: N_22  and  N_23
REMARK    8  A    between atoms: C_27  and  C_30
REMARK                            x       y       z     vdW  Elec       q    Type
REMARK                         _______ _______ _______ _____ _____    ______ ____
ROOT
ATOM      1  C   UNL     1       8.707  -0.845   0.383  0.00  0.00    +0.214 C 
ATOM      2  N   UNL     1       8.594  -1.574   1.674  0.00  0.00    -0.228 NA
ATOM      3  N   UNL     1       9.358  -2.807   1.426  0.00  0.00    -0.234 NA
ATOM      4  C   UNL     1       9.044  -3.161   0.023  0.00  0.00    +0.185 C 
ATOM      5  N   UNL     1       8.632  -1.907  -0.646  0.00  0.00    -0.197 NA
ATOM      6  H   UNL     1       7.630  -1.782   1.888  0.00  0.00    +0.143 HD
ATOM      7  H   UNL     1       9.073  -3.541   2.057  0.00  0.00    +0.143 HD
ENDROOT
BRANCH   4   8
ATOM      8  C   UNL     1      10.286  -3.736  -0.662  0.00  0.00    +0.187 C 
ATOM      9  C   UNL     1      10.705  -5.039  -0.006  0.00  0.00    +0.034 C 
ATOM     10  C   UNL     1      11.941  -4.781   0.462  0.00  0.00    +0.091 C 
ATOM     11  N   UNL     1      12.303  -3.505   0.170  0.00  0.00    -0.154 NA
ATOM     12  N   UNL     1      11.449  -2.859  -0.450  0.00  0.00    -0.176 NA
BRANCH  10  13
ATOM     13  C   UNL     1      12.789  -5.754   1.194  0.00  0.00    +0.002 A 
ATOM     14  C   UNL     1      12.322  -7.045   1.437  0.00  0.00    +0.013 A 
ATOM     15  C   UNL     1      13.113  -7.946   2.118  0.00  0.00    +0.039 A 
ATOM     16  C   UNL     1      14.371  -7.570   2.561  0.00  0.00    +0.123 A 
ATOM     17  C   UNL     1      14.840  -6.288   2.322  0.00  0.00    +0.039 A 
ATOM     18  C   UNL     1      14.057  -5.382   1.636  0.00  0.00    +0.013 A 
ATOM     19  F   UNL     1      15.143  -8.456   3.228  0.00  0.00    -0.205 F 
ENDBRANCH  10  13
ENDBRANCH   4   8
BRANCH   5  20
ATOM     20  N   UNL     1       7.285  -2.021  -1.180  0.00  0.00    -0.264 NA
ATOM     21  H   UNL     1       7.021  -1.184  -1.678  0.00  0.00    +0.137 HD
ATOM     22  H   UNL     1       7.197  -2.835  -1.770  0.00  0.00    +0.137 HD
ENDBRANCH   5  20
BRANCH   1  23
ATOM     23  S   UNL     1       7.332   0.323   0.192  0.00  0.00    -0.115 S 
BRANCH  23  24
ATOM     24  C   UNL     1       7.765   1.697   1.294  0.00  0.00    +0.168 C 
BRANCH  24  26
ATOM     25  N   UNL     1       6.735   3.803   2.081  0.00  0.00    -0.284 N 
ATOM     26  C   UNL     1       6.635   2.693   1.323  0.00  0.00    +0.227 C 
ATOM     27  O   UNL     1       5.635   2.496   0.665  0.00  0.00    -0.275 OA
ATOM     28  H   UNL     1       7.566   4.004   2.540  0.00  0.00    +0.155 HD
BRANCH  25  32
ATOM     29  C   UNL     1       3.478   6.375   2.449  0.00  0.00    +0.001 A 
ATOM     30  C   UNL     1       3.274   5.043   2.136  0.00  0.00    +0.002 A 
ATOM     31  C   UNL     1       4.351   4.188   2.013  0.00  0.00    +0.024 A 
ATOM     32  C   UNL     1       5.641   4.667   2.204  0.00  0.00    +0.045 A 
ATOM     33  C   UNL     1       5.843   6.005   2.518  0.00  0.00    +0.076 A 
ATOM     34  C   UNL     1       4.761   6.854   2.639  0.00  0.00    +0.014 A 
BRANCH  33  35
ATOM     35  C   UNL     1       7.240   6.528   2.725  0.00  0.00    +0.419 C 
ATOM     36  F   UNL     1       7.187   7.893   3.028  0.00  0.00    -0.166 F 
ATOM     37  F   UNL     1       7.844   5.839   3.782  0.00  0.00    -0.166 F 
ATOM     38  F   UNL     1       7.987   6.339   1.558  0.00  0.00    -0.166 F 
ENDBRANCH  33  35
ENDBRANCH  25  32
ENDBRANCH  24  26
ENDBRANCH  23  24
ENDBRANCH   1  23
TORSDOF 8
