REMARK  Name = ZINC03410796
REMARK  6 active torsions:
REMARK  status: ('A' for Active; 'I' for Inactive)
REMARK    1  A    between atoms: C_1  and  C_2
REMARK    2  A    between atoms: C_5  and  N_8
REMARK    3  A    between atoms: C_18  and  S_19
REMARK    4  A    between atoms: S_19  and  C_20
REMARK    5  A    between atoms: C_20  and  C_22
REMARK    6  A    between atoms: C_20  and  C_23
REMARK                            x       y       z     vdW  Elec       q    Type
REMARK                         _______ _______ _______ _____ _____    ______ ____
ROOT
ATOM      1  N   UNL     1      -3.390   1.021  -2.215  0.00  0.00    -0.255 N 
ATOM      2  C   UNL     1      -4.134  -0.094  -2.401  0.00  0.00    +0.267 A 
ATOM      3  O   UNL     1      -4.606  -0.362  -3.490  0.00  0.00    -0.267 OA
ATOM      4  C   UNL     1      -4.355  -0.966  -1.240  0.00  0.00    +0.065 A 
ATOM      5  C   UNL     1      -5.111  -2.134  -1.331  0.00  0.00    +0.017 A 
ATOM      6  C   UNL     1      -5.288  -2.913  -0.223  0.00  0.00    +0.021 A 
ATOM      7  C   UNL     1      -4.723  -2.554   0.996  0.00  0.00    +0.043 A 
ATOM      8  C   UNL     1      -3.971  -1.406   1.114  0.00  0.00    +0.048 A 
ATOM      9  C   UNL     1      -3.776  -0.593  -0.005  0.00  0.00    +0.080 A 
ATOM     10  N   UNL     1      -3.045   0.544   0.064  0.00  0.00    -0.223 NA
ATOM     11  C   UNL     1      -2.861   1.306  -0.986  0.00  0.00    +0.177 A 
ATOM     12 CL   UNL     1      -4.968  -3.566   2.386  0.00  0.00    -0.083 Cl
ENDROOT
BRANCH   1  17
ATOM     13  C   UNL     1      -2.439   4.531  -6.571  0.00  0.00    +0.044 C 
ATOM     14  C   UNL     1      -2.692   3.599  -5.414  0.00  0.00    -0.050 A 
ATOM     15  C   UNL     1      -3.795   3.790  -4.603  0.00  0.00    +0.005 A 
ATOM     16  C   UNL     1      -4.029   2.938  -3.541  0.00  0.00    +0.026 A 
ATOM     17  C   UNL     1      -3.156   1.888  -3.290  0.00  0.00    +0.052 A 
ATOM     18  C   UNL     1      -2.046   1.702  -4.104  0.00  0.00    +0.026 A 
ATOM     19  C   UNL     1      -1.820   2.554  -5.167  0.00  0.00    +0.005 A 
ENDBRANCH   1  17
BRANCH  11  20
ATOM     20  S   UNL     1      -1.895   2.769  -0.806  0.00  0.00    -0.075 S 
BRANCH  20  21
ATOM     21  C   UNL     1      -1.476   2.653   0.951  0.00  0.00    +0.137 C 
ATOM     22  C   UNL     1      -2.751   2.775   1.789  0.00  0.00    +0.029 C 
BRANCH  21  23
ATOM     23  C   UNL     1      -0.527   3.766   1.315  0.00  0.00    +0.233 C 
ATOM     24  O   UNL     1      -0.512   4.788   0.663  0.00  0.00    -0.274 OA
ATOM     25  N   UNL     1       0.305   3.626   2.366  0.00  0.00    -0.239 N 
ATOM     26  C   UNL     1       1.153   4.621   2.692  0.00  0.00    +0.303 C 
ATOM     27  O   UNL     1       1.168   5.645   2.038  0.00  0.00    -0.253 OA
ATOM     28  N   UNL     1       1.985   4.481   3.743  0.00  0.00    -0.313 N 
ATOM     29  H   UNL     1       0.293   2.808   2.889  0.00  0.00    +0.159 HD
ATOM     30  H   UNL     1       1.973   3.663   4.265  0.00  0.00    +0.146 HD
ATOM     31  H   UNL     1       2.595   5.197   3.977  0.00  0.00    +0.146 HD
ENDBRANCH  21  23
ENDBRANCH  20  21
ENDBRANCH  11  20
TORSDOF 4
