REMARK  Name = ZINC06507891
REMARK  9 active torsions:
REMARK  status: ('A' for Active; 'I' for Inactive)
REMARK    1  A    between atoms: C_1  and  C_2
REMARK    2  A    between atoms: C_2  and  C_3
REMARK    3  A    between atoms: C_2  and  C_4
REMARK    4  A    between atoms: C_4  and  C_6
REMARK    5  A    between atoms: C_4  and  N_20
REMARK    6  A    between atoms: N_8  and  N_9
REMARK    7  A    between atoms: N_9  and  C_10
REMARK    8  A    between atoms: C_10  and  N_12
REMARK    9  A    between atoms: N_12  and  C_13
REMARK                            x       y       z     vdW  Elec       q    Type
REMARK                         _______ _______ _______ _____ _____    ______ ____
ROOT
ATOM      1  C   UNL     1      -2.759   4.967   0.646  0.00  0.00    +0.250 C 
ATOM      2  O   UNL     1      -1.631   5.405   0.729  0.00  0.00    -0.272 OA
ATOM      3  N   UNL     1      -3.814   5.780   0.851  0.00  0.00    -0.234 N 
ATOM      4  H   UNL     1      -4.716   5.448   0.716  0.00  0.00    +0.173 HD
ENDROOT
BRANCH   3   5
ATOM      5  N   UNL     1      -3.610   7.104   1.261  0.00  0.00    -0.246 N 
ATOM      6  H   UNL     1      -2.708   7.436   1.396  0.00  0.00    +0.172 HD
BRANCH   5   7
ATOM      7  C   UNL     1      -4.665   7.916   1.466  0.00  0.00    +0.151 C 
ATOM      8  S   UNL     1      -4.415   9.534   1.967  0.00  0.00    -0.017 S 
BRANCH   7   9
ATOM      9  N   UNL     1      -5.917   7.455   1.278  0.00  0.00    -0.296 N 
ATOM     10  H   UNL     1      -6.064   6.517   1.080  0.00  0.00    +0.154 HD
BRANCH   9  11
ATOM     11  C   UNL     1      -7.006   8.330   1.369  0.00  0.00    +0.033 A 
ATOM     12  C   UNL     1      -8.187   7.911   1.968  0.00  0.00    +0.026 A 
ATOM     13  C   UNL     1      -9.258   8.777   2.062  0.00  0.00    +0.040 A 
ATOM     14  C   UNL     1      -9.160  10.060   1.549  0.00  0.00    +0.124 A 
ATOM     15  C   UNL     1      -7.986  10.478   0.946  0.00  0.00    +0.040 A 
ATOM     16  C   UNL     1      -6.910   9.617   0.856  0.00  0.00    +0.026 A 
ATOM     17  F   UNL     1     -10.211  10.904   1.637  0.00  0.00    -0.205 F 
ENDBRANCH   9  11
ENDBRANCH   7   9
ENDBRANCH   5   7
ENDBRANCH   3   5
BRANCH   1  18
ATOM     18  C   UNL     1      -2.980   3.514   0.312  0.00  0.00    +0.164 C 
BRANCH  18  19
ATOM     19  N   UNL     1      -1.725   2.778   0.482  0.00  0.00    -0.288 N 
ATOM     20  C   UNL     1      -1.750   1.455   0.739  0.00  0.00    +0.298 C 
ATOM     21  O   UNL     1      -2.814   0.873   0.830  0.00  0.00    -0.253 OA
ATOM     22  N   UNL     1      -0.596   0.777   0.895  0.00  0.00    -0.313 N 
ATOM     23  H   UNL     1      -0.877   3.242   0.409  0.00  0.00    +0.151 HD
ATOM     24  H   UNL     1      -0.613  -0.175   1.080  0.00  0.00    +0.146 HD
ATOM     25  H   UNL     1       0.253   1.240   0.818  0.00  0.00    +0.146 HD
ENDBRANCH  18  19
BRANCH  18  27
ATOM     26  C   UNL     1      -2.328   3.827  -2.079  0.00  0.00    +0.009 C 
ATOM     27  C   UNL     1      -3.452   3.390  -1.138  0.00  0.00    +0.012 C 
ATOM     28  C   UNL     1      -3.826   1.935  -1.430  0.00  0.00    +0.009 C 
ENDBRANCH  18  27
ENDBRANCH   1  18
TORSDOF 7
