REMARK  Name = ZINC20366498
REMARK  2 active torsions:
REMARK  status: ('A' for Active; 'I' for Inactive)
REMARK    1  A    between atoms: C_2  and  C_27
REMARK    2  A    between atoms: C_15  and  C_25
REMARK                            x       y       z     vdW  Elec       q    Type
REMARK                         _______ _______ _______ _____ _____    ______ ____
ROOT
ATOM      1  C   UNL     1       1.606   1.376   1.131  0.00  0.00    +0.037 A 
ATOM      2  C   UNL     1       1.057   2.042   0.043  0.00  0.00    +0.074 A 
ATOM      3  C   UNL     1       0.511   1.311  -0.993  0.00  0.00    +0.125 A 
ATOM      4  N   UNL     1       0.504  -0.009  -0.960  0.00  0.00    -0.238 NA
ATOM      5  C   UNL     1       1.017  -0.681   0.058  0.00  0.00    +0.140 A 
ATOM      6  C   UNL     1       1.585  -0.008   1.137  0.00  0.00    +0.081 A 
ATOM      7 CL   UNL     1       2.257  -0.892   2.471  0.00  0.00    -0.080 Cl
ATOM      8  N   UNL     1       0.990  -2.071   0.051  0.00  0.00    -0.311 N 
ATOM      9  C   UNL     1       1.765  -2.607  -1.077  0.00  0.00    +0.125 C 
ATOM     10  C   UNL     1       1.775  -4.136  -1.004  0.00  0.00    +0.125 C 
ATOM     11  N   UNL     1       0.394  -4.635  -1.034  0.00  0.00    -0.311 N 
ATOM     12  C   UNL     1      -0.382  -4.099   0.093  0.00  0.00    +0.125 C 
ATOM     13  C   UNL     1      -0.392  -2.570   0.020  0.00  0.00    +0.125 C 
ATOM     14  C   UNL     1       0.366  -6.015  -1.042  0.00  0.00    +0.141 A 
ATOM     15  C   UNL     1      -0.208  -6.691  -2.144  0.00  0.00    +0.092 A 
ATOM     16  C   UNL     1      -0.230  -8.082  -2.154  0.00  0.00    +0.037 A 
ATOM     17  C   UNL     1       0.313  -8.754  -1.053  0.00  0.00    +0.060 A 
ATOM     18  C   UNL     1       0.329 -10.167  -0.972  0.00  0.00    +0.129 A 
ATOM     19  N   UNL     1       0.863 -10.727   0.108  0.00  0.00    -0.220 NA
ATOM     20  C   UNL     1       1.368  -9.993   1.084  0.00  0.00    +0.225 A 
ATOM     21  N   UNL     1       1.380  -8.680   1.062  0.00  0.00    -0.216 NA
ATOM     22  C   UNL     1       0.867  -8.010   0.019  0.00  0.00    +0.167 A 
ATOM     23  N   UNL     1       0.870  -6.677  -0.019  0.00  0.00    -0.211 NA
ATOM     24  N   UNL     1      -0.195 -10.940  -1.984  0.00  0.00    -0.343 N 
ATOM     25  H   UNL     1      -0.175 -12.037  -1.905  0.00  0.00    +0.144 HD
ATOM     26  H   UNL     1      -0.634 -10.460  -2.871  0.00  0.00    +0.144 HD
ENDROOT
BRANCH   2  27
ATOM     27  C   UNL     1       1.058   3.548  -0.007  0.00  0.00    +0.419 C 
ATOM     28  F   UNL     1       0.454   3.976  -1.195  0.00  0.00    -0.166 F 
ATOM     29  F   UNL     1       0.345   4.051   1.086  0.00  0.00    -0.166 F 
ATOM     30  F   UNL     1       2.376   4.015   0.040  0.00  0.00    -0.166 F 
ENDBRANCH   2  27
BRANCH  15  31
ATOM     31  C   UNL     1      -0.755  -5.951  -3.241  0.00  0.00    +0.103 C 
ATOM     32  N   UNL     1      -1.189  -5.364  -4.112  0.00  0.00    -0.191 NA
ENDBRANCH  15  31
TORSDOF 2
