REMARK  Name = ZINC12400947
REMARK  9 active torsions:
REMARK  status: ('A' for Active; 'I' for Inactive)
REMARK    1  A    between atoms: C_1  and  C_2
REMARK    2  A    between atoms: C_2  and  N_3
REMARK    3  A    between atoms: C_7  and  C_34
REMARK    4  A    between atoms: C_8  and  C_33
REMARK    5  A    between atoms: C_12  and  S_13
REMARK    6  A    between atoms: S_13  and  C_14
REMARK    7  A    between atoms: C_14  and  C_15
REMARK    8  A    between atoms: N_17  and  C_18
REMARK    9  A    between atoms: C_18  and  C_23
REMARK                            x       y       z     vdW  Elec       q    Type
REMARK                         _______ _______ _______ _____ _____    ______ ____
ROOT
ATOM      1  C   UNL     1       4.987   1.357   0.007  0.00  0.00    +0.224 C 
ATOM      2  O   UNL     1       4.248   1.804  -0.844  0.00  0.00    -0.275 OA
ATOM      3  N   UNL     1       4.770   0.125   0.509  0.00  0.00    -0.305 N 
ATOM      4  H   UNL     1       5.315  -0.204   1.241  0.00  0.00    +0.150 HD
ENDROOT
BRANCH   3   5
ATOM      5  C   UNL     1       3.711  -0.718  -0.051  0.00  0.00    +0.060 C 
ATOM      6  C   UNL     1       3.937  -0.914  -1.564  0.00  0.00    +0.030 C 
ATOM      7  C   UNL     1       4.689  -2.265  -1.663  0.00  0.00    +0.002 C 
ATOM      8  C   UNL     1       4.011  -3.117  -0.561  0.00  0.00    +0.002 C 
ATOM      9  C   UNL     1       3.759  -2.118   0.587  0.00  0.00    +0.030 C 
BRANCH   5  10
ATOM     10  C   UNL     1       2.365  -0.086   0.193  0.00  0.00    -0.020 A 
ATOM     11  C   UNL     1       2.231   0.905   1.148  0.00  0.00    +0.009 A 
ATOM     12  C   UNL     1       0.998   1.486   1.376  0.00  0.00    +0.050 A 
ATOM     13  C   UNL     1      -0.108   1.077   0.647  0.00  0.00    +0.162 A 
ATOM     14  C   UNL     1       0.027   0.084  -0.316  0.00  0.00    +0.162 A 
ATOM     15  C   UNL     1       1.267  -0.497  -0.539  0.00  0.00    +0.055 A 
ATOM     16  O   UNL     1      -1.044  -0.327  -1.049  0.00  0.00    -0.485 OA
ATOM     17  C   UNL     1      -2.339   0.010  -0.540  0.00  0.00    +0.270 C 
ATOM     18  C   UNL     1      -2.322   1.486  -0.120  0.00  0.00    +0.270 C 
ATOM     19  O   UNL     1      -1.318   1.652   0.888  0.00  0.00    -0.485 OA
ENDBRANCH   5  10
ENDBRANCH   3   5
BRANCH   1  20
ATOM     20  C   UNL     1       6.149   2.178   0.504  0.00  0.00    +0.173 C 
BRANCH  20  21
ATOM     21  S   UNL     1       6.172   3.771  -0.356  0.00  0.00    -0.078 S 
BRANCH  21  31
ATOM     22  N   UNL     1       7.974   5.758   0.022  0.00  0.00    -0.288 N 
ATOM     23  C   UNL     1       9.049   6.351   0.575  0.00  0.00    +0.263 A 
ATOM     24  O   UNL     1       9.382   7.471   0.229  0.00  0.00    -0.267 OA
ATOM     25  C   UNL     1       9.795   5.649   1.573  0.00  0.00    +0.075 A 
ATOM     26  C   UNL     1      10.976   6.072   2.306  0.00  0.00    -0.026 A 
ATOM     27  C   UNL     1      11.520   5.242   3.208  0.00  0.00    -0.008 A 
ATOM     28  S   UNL     1      10.466   3.806   3.137  0.00  0.00    -0.073 S 
ATOM     29  C   UNL     1       9.325   4.362   1.897  0.00  0.00    +0.117 A 
ATOM     30  N   UNL     1       8.253   3.837   1.317  0.00  0.00    -0.216 NA
ATOM     31  C   UNL     1       7.587   4.504   0.397  0.00  0.00    +0.173 A 
ATOM     32  C   UNL     1      12.732   5.468   4.074  0.00  0.00    +0.052 C 
ATOM     33  C   UNL     1      11.583   7.428   2.055  0.00  0.00    +0.045 C 
BRANCH  22  35
ATOM     34  C   UNL     1       6.099   7.288  -0.330  0.00  0.00    +0.027 C 
ATOM     35  C   UNL     1       7.206   6.473  -1.000  0.00  0.00    +0.124 C 
ENDBRANCH  22  35
ENDBRANCH  21  31
ENDBRANCH  20  21
ENDBRANCH   1  20
TORSDOF 6
