REMARK  Name = ZINC44823485
REMARK  7 active torsions:
REMARK  status: ('A' for Active; 'I' for Inactive)
REMARK    1  A    between atoms: C_1  and  C_2
REMARK    2  A    between atoms: C_2  and  C_3
REMARK    3  A    between atoms: C_10  and  C_12
REMARK    4  A    between atoms: C_12  and  C_14
REMARK    5  A    between atoms: C_12  and  C_16
REMARK    6  A    between atoms: C_16  and  C_17
REMARK    7  A    between atoms: C_16  and  C_18
REMARK                            x       y       z     vdW  Elec       q    Type
REMARK                         _______ _______ _______ _____ _____    ______ ____
ROOT
ATOM      1  C   UNL     1       0.759  -0.395  -1.266  0.00  0.00    +0.101 C 
ATOM      2  C   UNL     1       0.879  -1.919  -1.374  0.00  0.00    +0.182 C 
ATOM      3  O   UNL     1       1.438  -2.258  -2.646  0.00  0.00    -0.376 OA
ATOM      4  C   UNL     1       0.635  -1.865  -3.761  0.00  0.00    +0.179 C 
ATOM      5  C   UNL     1       0.503  -0.338  -3.775  0.00  0.00    +0.136 C 
ATOM      6  N   UNL     1       0.039   0.101  -2.450  0.00  0.00    -0.293 N 
ATOM      7  C   UNL     1      -1.015   0.931  -2.323  0.00  0.00    +0.233 C 
ATOM      8  O   UNL     1      -1.320   1.362  -1.231  0.00  0.00    -0.274 OA
ENDROOT
BRANCH   1  10
ATOM      9  C   UNL     1       0.706  -0.595   1.224  0.00  0.00    +0.006 C 
ATOM     10  C   UNL     1      -0.016  -0.027   0.001  0.00  0.00    +0.021 C 
ENDBRANCH   1  10
BRANCH   7  11
ATOM     11  C   UNL     1      -1.816   1.322  -3.538  0.00  0.00    +0.180 C 
BRANCH  11  12
ATOM     12  C   UNL     1      -2.947   2.264  -3.122  0.00  0.00    +0.009 C 
ATOM     13  C   UNL     1      -2.355   3.518  -2.475  0.00  0.00    +0.009 C 
ATOM     14  C   UNL     1      -3.760   2.662  -4.355  0.00  0.00    +0.009 C 
ENDBRANCH  11  12
BRANCH  11  15
ATOM     15  C   UNL     1      -2.385   0.116  -4.160  0.00  0.00    +0.076 C 
ATOM     16  N   UNL     1      -2.825  -0.815  -4.641  0.00  0.00    -0.196 NA
ENDBRANCH  11  15
ENDBRANCH   7  11
TORSDOF 4
