REMARK  Name = ZINC20714072
REMARK  4 active torsions:
REMARK  status: ('A' for Active; 'I' for Inactive)
REMARK    1  A    between atoms: C_1  and  C_2
REMARK    2  A    between atoms: C_7  and  C_8
REMARK    3  A    between atoms: C_19  and  N_25
REMARK    4  A    between atoms: C_21  and  C_24
REMARK                            x       y       z     vdW  Elec       q    Type
REMARK                         _______ _______ _______ _____ _____    ______ ____
ROOT
ATOM      1  C   UNL     1      -0.946   1.510  -1.002  0.00  0.00    +0.105 C 
ATOM      2  C   UNL     1      -0.642   2.990  -1.112  0.00  0.00    +0.029 C 
ATOM      3  C   UNL     1      -1.387   3.799  -2.179  0.00  0.00    +0.033 C 
ATOM      4  C   UNL     1      -0.366   4.894  -2.499  0.00  0.00    -0.030 C 
ATOM      5  C   UNL     1       0.861   4.458  -2.237  0.00  0.00    -0.023 C 
ATOM      6  C   UNL     1       0.773   3.054  -1.767  0.00  0.00    +0.049 C 
ATOM      7  C   UNL     1       1.721   2.478  -0.788  0.00  0.00    -0.017 A 
ATOM      8  C   UNL     1       3.024   2.920  -0.695  0.00  0.00    +0.038 A 
ATOM      9  C   UNL     1       3.899   2.338   0.203  0.00  0.00    +0.127 A 
ATOM     10  C   UNL     1       3.462   1.306   1.013  0.00  0.00    +0.038 A 
ATOM     11  C   UNL     1       2.160   0.865   0.932  0.00  0.00    -0.027 A 
ATOM     12  C   UNL     1       1.262   1.446   0.035  0.00  0.00    +0.034 A 
ATOM     13  N   UNL     1      -0.043   0.958   0.021  0.00  0.00    -0.336 N 
ATOM     14  C   UNL     1       1.698  -0.259   1.823  0.00  0.00    +0.046 C 
ATOM     15  H   UNL     1      -0.410   0.199   0.727  0.00  0.00    +0.147 HD
ENDROOT
BRANCH   1  22
ATOM     16  C   UNL     1      -3.058   1.357  -2.967  0.00  0.00    +0.044 C 
ATOM     17  C   UNL     1      -1.706   0.761  -3.265  0.00  0.00    -0.045 A 
ATOM     18  C   UNL     1      -1.477   0.142  -4.480  0.00  0.00    +0.004 A 
ATOM     19  C   UNL     1      -0.237  -0.405  -4.754  0.00  0.00    +0.000 A 
ATOM     20  C   UNL     1       0.773  -0.332  -3.813  0.00  0.00    +0.000 A 
ATOM     21  C   UNL     1       0.546   0.292  -2.601  0.00  0.00    +0.006 A 
ATOM     22  C   UNL     1      -0.696   0.834  -2.325  0.00  0.00    -0.024 A 
ENDBRANCH   1  22
BRANCH   9  23
ATOM     23  N   UNL     1       5.297   2.816   0.296  0.00  0.00    +0.056 N 
ATOM     24  O   UNL     1       5.678   3.725  -0.420  0.00  0.00    -0.126 OA
ATOM     25  O   UNL     1       6.065   2.301   1.088  0.00  0.00    -0.126 OA
ENDBRANCH   9  23
TORSDOF 2
