REMARK  Name = ZINC66708260
REMARK  2 active torsions:
REMARK  status: ('A' for Active; 'I' for Inactive)
REMARK    1  A    between atoms: C_6  and  C_7
REMARK    2  A    between atoms: C_14  and  C_16
REMARK                            x       y       z     vdW  Elec       q    Type
REMARK                         _______ _______ _______ _____ _____    ______ ____
ROOT
ATOM      1  C   UNL     1      -1.063  -1.021  -0.158  0.00  0.00    +0.166 C 
ATOM      2  C   UNL     1      -1.543  -1.333  -1.580  0.00  0.00    +0.144 C 
ATOM      3  N   UNL     1      -2.700  -2.237  -1.491  0.00  0.00    -0.292 N 
ATOM      4  C   UNL     1      -2.572  -3.445  -0.660  0.00  0.00    +0.136 C 
ATOM      5  C   UNL     1      -2.042  -3.030   0.717  0.00  0.00    +0.179 C 
ATOM      6  O   UNL     1      -0.859  -2.246   0.550  0.00  0.00    -0.369 OA
ATOM      7  C   UNL     1      -3.844  -1.967  -2.151  0.00  0.00    +0.249 C 
ATOM      8  O   UNL     1      -3.966  -0.916  -2.750  0.00  0.00    -0.270 OA
ENDROOT
BRANCH   7   9
ATOM      9  C   UNL     1      -4.946  -2.946  -2.148  0.00  0.00    +0.067 A 
ATOM     10  C   UNL     1      -4.688  -4.295  -2.382  0.00  0.00    +0.053 A 
ATOM     11  C   UNL     1      -5.722  -5.215  -2.379  0.00  0.00    +0.126 A 
ATOM     12  C   UNL     1      -7.024  -4.811  -2.144  0.00  0.00    +0.066 A 
ATOM     13  C   UNL     1      -7.306  -3.474  -1.907  0.00  0.00    +0.069 A 
ATOM     14  C   UNL     1      -6.269  -2.526  -1.901  0.00  0.00    +0.101 A 
ATOM     15  N   UNL     1      -6.830  -1.327  -1.641  0.00  0.00    -0.235 NA
ATOM     16  C   UNL     1      -8.115  -1.467  -1.484  0.00  0.00    +0.197 A 
ATOM     17  N   UNL     1      -8.466  -2.770  -1.646  0.00  0.00    -0.344 N 
ATOM     18  H   UNL     1      -9.361  -3.138  -1.581  0.00  0.00    +0.167 HD
ATOM     19  F   UNL     1      -5.457  -6.520  -2.609  0.00  0.00    -0.205 F 
ENDBRANCH   7   9
BRANCH   1  25
ATOM     20  C   UNL     1       0.231   1.119  -0.059  0.00  0.00    +0.008 A 
ATOM     21  C   UNL     1       1.419   1.824  -0.116  0.00  0.00    +0.022 A 
ATOM     22  C   UNL     1       2.610   1.155  -0.335  0.00  0.00    +0.059 A 
ATOM     23  C   UNL     1       2.612  -0.220  -0.496  0.00  0.00    +0.060 A 
ATOM     24  C   UNL     1       1.422  -0.924  -0.439  0.00  0.00    +0.027 A 
ATOM     25  C   UNL     1       0.233  -0.254  -0.220  0.00  0.00    -0.016 A 
ATOM     26 CL   UNL     1       4.105  -1.061  -0.772  0.00  0.00    -0.082 Cl
ATOM     27 CL   UNL     1       4.102   2.040  -0.407  0.00  0.00    -0.082 Cl
ENDBRANCH   1  25
TORSDOF 2
