REMARK  Name = ZINC04915606
REMARK  2 active torsions:
REMARK  status: ('A' for Active; 'I' for Inactive)
REMARK    1  A    between atoms: C_6  and  C_7
REMARK    2  A    between atoms: C_12  and  C_18
REMARK                            x       y       z     vdW  Elec       q    Type
REMARK                         _______ _______ _______ _____ _____    ______ ____
ROOT
ATOM      1  C   UNL     1      -2.513   0.978   0.019  0.00  0.00    +0.032 C 
ATOM      2  C   UNL     1      -3.328   1.344   1.262  0.00  0.00    +0.059 C 
ATOM      3  C   UNL     1      -4.646   0.610   1.239  0.00  0.00    +0.018 C 
ATOM      4  C   UNL     1      -5.242   0.296   0.069  0.00  0.00    +0.020 C 
ATOM      5  C   UNL     1      -6.566  -0.431   0.070  0.00  0.00    +0.063 C 
ATOM      6  C   UNL     1      -7.399   0.033   1.266  0.00  0.00    +0.109 C 
ATOM      7  C   UNL     1      -6.546  -0.004   2.507  0.00  0.00    +0.218 C 
ATOM      8  O   UNL     1      -7.045  -0.281   3.577  0.00  0.00    -0.275 OA
ATOM      9  N   UNL     1      -5.231   0.269   2.431  0.00  0.00    -0.289 N 
ATOM     10  C   UNL     1      -4.656   0.631  -1.163  0.00  0.00    +0.162 C 
ATOM     11  O   UNL     1      -5.229   0.343  -2.195  0.00  0.00    -0.292 OA
ATOM     12  C   UNL     1      -3.331   1.341  -1.225  0.00  0.00    +0.088 C 
ATOM     13  H   UNL     1      -4.688   0.223   3.233  0.00  0.00    +0.155 HD
ENDROOT
BRANCH   5  14
ATOM     14  C   UNL     1      -6.324  -1.915   0.172  0.00  0.00    -0.036 A 
ATOM     15  C   UNL     1      -5.652  -2.432   1.265  0.00  0.00    +0.008 A 
ATOM     16  C   UNL     1      -5.432  -3.793   1.365  0.00  0.00    +0.050 A 
ATOM     17  C   UNL     1      -5.875  -4.642   0.364  0.00  0.00    +0.166 A 
ATOM     18  C   UNL     1      -6.547  -4.122  -0.739  0.00  0.00    +0.167 A 
ATOM     19  C   UNL     1      -6.769  -2.757  -0.830  0.00  0.00    +0.053 A 
ATOM     20  O   UNL     1      -6.877  -5.150  -1.574  0.00  0.00    -0.453 OA
ATOM     21  C   UNL     1      -6.762  -6.344  -0.778  0.00  0.00    +0.466 C 
ATOM     22  O   UNL     1      -5.784  -5.996   0.220  0.00  0.00    -0.453 OA
ENDBRANCH   5  14
BRANCH   1  28
ATOM     23  C   UNL     1      -0.013   1.076   0.008  0.00  0.00    +0.007 A 
ATOM     24  C   UNL     1       1.175   1.783   0.000  0.00  0.00    +0.038 A 
ATOM     25  C   UNL     1       1.156   3.167   0.008  0.00  0.00    +0.123 A 
ATOM     26  C   UNL     1      -0.053   3.842   0.022  0.00  0.00    +0.038 A 
ATOM     27  C   UNL     1      -1.240   3.133   0.030  0.00  0.00    +0.007 A 
ATOM     28  C   UNL     1      -1.219   1.750   0.017  0.00  0.00    -0.043 A 
ATOM     29  F   UNL     1       2.316   3.859   0.001  0.00  0.00    -0.205 F 
ENDBRANCH   1  28
TORSDOF 2
