REMARK  Name = ZINC05724358
REMARK  17 active torsions:
REMARK  status: ('A' for Active; 'I' for Inactive)
REMARK    1  A    between atoms: C_1  and  C_2
REMARK    2  A    between atoms: C_2  and  C_3
REMARK    3  A    between atoms: C_7  and  C_36
REMARK    4  A    between atoms: C_8  and  N_9
REMARK    5  A    between atoms: C_10  and  C_12
REMARK    6  A    between atoms: C_14  and  C_15
REMARK    7  A    between atoms: C_15  and  C_17
REMARK    8  A    between atoms: C_18  and  C_35
REMARK    9  A    between atoms: N_22  and  C_23
REMARK   10  A    between atoms: C_24  and  C_33
REMARK   11  A    between atoms: C_28  and  C_29
REMARK   12  A    between atoms: C_29  and  C_30
REMARK   13  A    between atoms: C_29  and  C_31
REMARK   14  A    between atoms: C_29  and  C_32
REMARK   15  A    between atoms: C_33  and  C_34
REMARK   16  A    between atoms: C_36  and  C_37
REMARK   17  A    between atoms: C_36  and  C_38
REMARK                            x       y       z     vdW  Elec       q    Type
REMARK                         _______ _______ _______ _____ _____    ______ ____
ROOT
ATOM      1  C   UNL     1       0.174  13.479  -0.117  0.00  0.00    +0.198 C 
ATOM      2  O   UNL     1       0.795  14.490  -0.379  0.00  0.00    -0.287 OA
ENDROOT
BRANCH   1   3
ATOM      3  C   UNL     1      -1.179  13.561   0.263  0.00  0.00    +0.083 A 
ATOM      4  C   UNL     1      -1.998  14.681   0.402  0.00  0.00    +0.058 A 
ATOM      5  N   UNL     1      -3.233  14.485   0.772  0.00  0.00    -0.229 NA
ATOM      6  C   UNL     1      -3.704  13.268   1.009  0.00  0.00    +0.163 A 
ATOM      7  S   UNL     1      -2.322  12.261   0.707  0.00  0.00    -0.049 S 
ATOM      8  N   UNL     1      -4.971  12.896   1.403  0.00  0.00    -0.293 N 
ATOM      9  C   UNL     1      -1.474  16.068   0.135  0.00  0.00    +0.067 C 
ATOM     10  H   UNL     1      -5.133  11.920   1.884  0.00  0.00    +0.154 HD
BRANCH   8  11
ATOM     11  C   UNL     1      -6.050  13.758   1.190  0.00  0.00    +0.040 A 
ATOM     12  C   UNL     1      -5.952  15.098   1.546  0.00  0.00    -0.026 A 
ATOM     13  C   UNL     1      -7.022  15.946   1.339  0.00  0.00    +0.005 A 
ATOM     14  C   UNL     1      -8.187  15.465   0.769  0.00  0.00    +0.001 A 
ATOM     15  C   UNL     1      -8.288  14.133   0.414  0.00  0.00    +0.006 A 
ATOM     16  C   UNL     1      -7.223  13.278   0.623  0.00  0.00    -0.021 A 
BRANCH  16  17
ATOM     17  C   UNL     1      -7.334  11.826   0.235  0.00  0.00    -0.011 C 
ATOM     18  C   UNL     1      -8.559  11.630  -0.662  0.00  0.00    +0.015 C 
ATOM     19  C   UNL     1      -6.074  11.402  -0.522  0.00  0.00    +0.015 C 
ATOM     20  C   UNL     1      -7.483  10.972   1.495  0.00  0.00    +0.015 C 
ENDBRANCH  16  17
BRANCH  12  21
ATOM     21  C   UNL     1      -4.681  15.623   2.163  0.00  0.00    +0.033 C 
ATOM     22  C   UNL     1      -4.063  16.675   1.239  0.00  0.00    +0.009 C 
ENDBRANCH  12  21
ENDBRANCH   8  11
ENDBRANCH   1   3
BRANCH   1  25
ATOM     23  C   UNL     1       2.287  12.322  -0.623  0.00  0.00    +0.244 C 
ATOM     24  O   UNL     1       3.010  11.363  -0.748  0.00  0.00    -0.282 OA
ATOM     25  C   UNL     1       0.853  12.136  -0.198  0.00  0.00    +0.108 C 
BRANCH  23  27
ATOM     26  N   UNL     1       4.095  13.858  -1.268  0.00  0.00    -0.278 N 
ATOM     27  C   UNL     1       2.813  13.691  -0.888  0.00  0.00    +0.288 C 
ATOM     28  O   UNL     1       2.087  14.655  -0.761  0.00  0.00    -0.266 OA
ATOM     29  H   UNL     1       4.697  12.988  -1.569  0.00  0.00    +0.155 HD
BRANCH  26  35
ATOM     30  C   UNL     1       4.271  16.060  -2.241  0.00  0.00    -0.026 A 
ATOM     31  C   UNL     1       4.827  17.324  -2.246  0.00  0.00    +0.005 A 
ATOM     32  C   UNL     1       5.778  17.666  -1.302  0.00  0.00    +0.001 A 
ATOM     33  C   UNL     1       6.171  16.747  -0.346  0.00  0.00    +0.006 A 
ATOM     34  C   UNL     1       5.615  15.483  -0.332  0.00  0.00    -0.023 A 
ATOM     35  C   UNL     1       4.660  15.136  -1.279  0.00  0.00    +0.040 A 
BRANCH  34  36
ATOM     36  C   UNL     1       6.044  14.483   0.710  0.00  0.00    +0.015 C 
ATOM     37  C   UNL     1       7.546  14.223   0.581  0.00  0.00    +0.012 C 
ATOM     38  C   UNL     1       5.740  15.036   2.104  0.00  0.00    +0.012 C 
ENDBRANCH  34  36
BRANCH  30  40
ATOM     39  C   UNL     1       3.205  16.752  -4.370  0.00  0.00    +0.009 C 
ATOM     40  C   UNL     1       3.240  15.685  -3.274  0.00  0.00    +0.033 C 
ENDBRANCH  30  40
ENDBRANCH  26  35
ENDBRANCH  23  27
ENDBRANCH   1  25
TORSDOF 9
