REMARK  Name = ZINC40760454
REMARK  9 active torsions:
REMARK  status: ('A' for Active; 'I' for Inactive)
REMARK    1  A    between atoms: C_1  and  C_2
REMARK    2  A    between atoms: C_2  and  C_4
REMARK    3  A    between atoms: C_2  and  N_10
REMARK    4  A    between atoms: C_12  and  N_31
REMARK    5  A    between atoms: C_13  and  N_17
REMARK    6  A    between atoms: N_17  and  N_18
REMARK    7  A    between atoms: C_19  and  C_21
REMARK    8  A    between atoms: C_21  and  O_22
REMARK    9  A    between atoms: O_22  and  C_23
REMARK                            x       y       z     vdW  Elec       q    Type
REMARK                         _______ _______ _______ _____ _____    ______ ____
ROOT
ATOM      1  N   UNL     1       0.711  -0.489   1.189  0.00  0.00    -0.321 N 
ATOM      2  C   UNL     1       2.096  -0.603   1.173  0.00  0.00    +0.145 A 
ATOM      3  C   UNL     1       2.781  -1.070   2.296  0.00  0.00    +0.107 A 
ATOM      4  C   UNL     1       4.172  -1.165   2.227  0.00  0.00    +0.161 A 
ATOM      5  N   UNL     1       4.787  -0.810   1.101  0.00  0.00    -0.217 NA
ATOM      6  C   UNL     1       4.102  -0.375   0.063  0.00  0.00    +0.225 A 
ATOM      7  N   UNL     1       2.788  -0.274   0.086  0.00  0.00    -0.219 NA
ATOM      8  H   UNL     1       0.213  -0.731   1.986  0.00  0.00    +0.148 HD
ENDROOT
BRANCH   3   9
ATOM      9  N   UNL     1       2.091  -1.433   3.464  0.00  0.00    -0.353 N 
ATOM     10  H   UNL     1       1.124  -1.361   3.498  0.00  0.00    +0.143 HD
ATOM     11  H   UNL     1       2.580  -1.756   4.237  0.00  0.00    +0.143 HD
ENDBRANCH   3   9
BRANCH   1  13
ATOM     12  C   UNL     1      -0.019   1.526   0.010  0.00  0.00    +0.033 C 
ATOM     13  C   UNL     1       0.002  -0.004   0.002  0.00  0.00    +0.099 C 
BRANCH  13  14
ATOM     14  C   UNL     1      -1.412  -0.526   0.013  0.00  0.00    -0.028 A 
ATOM     15  C   UNL     1      -2.123  -0.571   1.197  0.00  0.00    +0.005 A 
ATOM     16  C   UNL     1      -3.420  -1.049   1.207  0.00  0.00    +0.000 A 
ATOM     17  C   UNL     1      -4.006  -1.482   0.032  0.00  0.00    +0.000 A 
ATOM     18  C   UNL     1      -3.295  -1.436  -1.153  0.00  0.00    +0.000 A 
ATOM     19  C   UNL     1      -2.000  -0.954  -1.163  0.00  0.00    +0.005 A 
ENDBRANCH  13  14
ENDBRANCH   1  13
BRANCH   4  20
ATOM     20  N   UNL     1       4.903  -1.623   3.316  0.00  0.00    -0.247 N 
ATOM     21  H   UNL     1       4.447  -1.880   4.133  0.00  0.00    +0.172 HD
BRANCH  20  22
ATOM     22  N   UNL     1       6.299  -1.715   3.235  0.00  0.00    -0.232 N 
ATOM     23  C   UNL     1       7.008  -2.159   4.292  0.00  0.00    +0.267 C 
ATOM     24  O   UNL     1       6.438  -2.480   5.313  0.00  0.00    -0.271 OA
ATOM     25  H   UNL     1       6.755  -1.458   2.418  0.00  0.00    +0.173 HD
BRANCH  23  26
ATOM     26  C   UNL     1       8.509  -2.257   4.204  0.00  0.00    +0.326 C 
BRANCH  26  27
ATOM     27  O   UNL     1       9.027  -2.751   5.441  0.00  0.00    -0.481 OA
BRANCH  27  28
ATOM     28  C   UNL     1      10.376  -2.900   5.530  0.00  0.00    +0.140 A 
ATOM     29  C   UNL     1      11.183  -2.572   4.451  0.00  0.00    +0.048 A 
ATOM     30  C   UNL     1      12.553  -2.725   4.543  0.00  0.00    +0.023 A 
ATOM     31  C   UNL     1      13.120  -3.203   5.710  0.00  0.00    +0.043 A 
ATOM     32  C   UNL     1      12.318  -3.530   6.789  0.00  0.00    +0.043 A 
ATOM     33  C   UNL     1      10.947  -3.374   6.703  0.00  0.00    +0.084 A 
ATOM     34 CL   UNL     1       9.940  -3.778   8.058  0.00  0.00    -0.080 Cl
ATOM     35 CL   UNL     1      14.842  -3.394   5.823  0.00  0.00    -0.083 Cl
ENDBRANCH  27  28
ENDBRANCH  26  27
ENDBRANCH  23  26
ENDBRANCH  20  22
ENDBRANCH   4  20
TORSDOF 8
