REMARK  Name = ZINC13776531
REMARK  15 active torsions:
REMARK  status: ('A' for Active; 'I' for Inactive)
REMARK    1  A    between atoms: C_1  and  C_2
REMARK    2  A    between atoms: C_2  and  N_3
REMARK    3  A    between atoms: N_3  and  C_4
REMARK    4  A    between atoms: N_3  and  C_6
REMARK    5  A    between atoms: C_4  and  C_5
REMARK    6  A    between atoms: C_9  and  C_12
REMARK    7  A    between atoms: C_20  and  O_38
REMARK    8  A    between atoms: C_23  and  C_24
REMARK    9  A    between atoms: C_23  and  N_78
REMARK   10  A    between atoms: N_26  and  C_27
REMARK   11  A    between atoms: C_28  and  C_34
REMARK   12  A    between atoms: C_29  and  C_33
REMARK   13  A    between atoms: C_30  and  C_32
REMARK   14  A    between atoms: C_34  and  O_36
REMARK   15  A    between atoms: O_36  and  C_37
REMARK                            x       y       z     vdW  Elec       q    Type
REMARK                         _______ _______ _______ _____ _____    ______ ____
ROOT
ATOM      1  C   UNL     1       3.400   2.258  -1.375  0.00  0.00    -0.031 C 
ATOM      2  C   UNL     1       2.039   1.567  -1.276  0.00  0.00    +0.011 C 
ATOM      3  C   UNL     1       1.209   2.201  -0.160  0.00  0.00    +0.005 C 
ATOM      4  C   UNL     1      -0.150   1.503  -0.082  0.00  0.00    +0.000 C 
ATOM      5  C   UNL     1       0.051   0.015   0.209  0.00  0.00    +0.003 C 
ATOM      6  C   UNL     1       0.892  -0.618  -0.903  0.00  0.00    +0.035 C 
ATOM      7  C   UNL     1       2.250   0.082  -0.968  0.00  0.00    +0.066 C 
ATOM      8  C   UNL     1       3.108  -0.541  -2.071  0.00  0.00    +0.016 C 
ATOM      9  C   UNL     1       4.439   0.209  -2.155  0.00  0.00    -0.075 C 
ATOM     10  N   UNL     1       4.175   1.631  -2.468  0.00  0.00    +0.390 N 
ATOM     11  H   UNL     1       3.630   1.684  -3.336  0.00  0.00    -0.080 HD
ENDROOT
BRANCH   1  15
ATOM     12  C   UNL     1       5.465   1.879   2.348  0.00  0.00    +0.030 A 
ATOM     13  C   UNL     1       6.029   1.373   1.184  0.00  0.00    +0.023 A 
ATOM     14  C   UNL     1       5.359   1.497  -0.018  0.00  0.00    +0.004 A 
ATOM     15  C   UNL     1       4.128   2.125  -0.063  0.00  0.00    -0.060 A 
ATOM     16  C   UNL     1       3.566   2.635   1.093  0.00  0.00    +0.004 A 
ATOM     17  C   UNL     1       4.227   2.509   2.299  0.00  0.00    +0.023 A 
BRANCH  12  18
ATOM     18  N   UNL     1       6.140   1.756   3.564  0.00  0.00    -0.330 N 
BRANCH  18  20
ATOM     19  C   UNL     1       4.760   1.068   5.463  0.00  0.00    +0.024 C 
ATOM     20  C   UNL     1       5.511   2.225   4.801  0.00  0.00    +0.102 C 
ENDBRANCH  18  20
BRANCH  18  21
ATOM     21  C   UNL     1       7.476   1.156   3.603  0.00  0.00    +0.102 C 
ATOM     22  C   UNL     1       8.531   2.249   3.421  0.00  0.00    +0.024 C 
ENDBRANCH  18  21
ENDBRANCH  12  18
ENDBRANCH   1  15
BRANCH   7  23
ATOM     23  O   UNL     1       2.917  -0.054   0.288  0.00  0.00    -0.388 OA
ATOM     24  H   UNL     1       3.081  -0.970   0.549  0.00  0.00    +0.210 HD
ENDBRANCH   7  23
BRANCH  10  25
ATOM     25  C   UNL     1       5.451   2.350  -2.659  0.00  0.00    +0.020 C 
BRANCH  25  26
ATOM     26  C   UNL     1       6.117   1.832  -3.908  0.00  0.00    +0.201 C 
ATOM     27  O   UNL     1       5.562   0.997  -4.590  0.00  0.00    -0.278 OA
ATOM     28  N   UNL     1       7.330   2.298  -4.267  0.00  0.00    -0.281 N 
ATOM     29  H   UNL     1       7.805   2.913  -3.687  0.00  0.00    +0.155 HD
BRANCH  28  30
ATOM     30  C   UNL     1       7.898   1.898  -5.467  0.00  0.00    +0.086 A 
ATOM     31  C   UNL     1       9.079   2.341  -6.053  0.00  0.00    +0.091 A 
ATOM     32  C   UNL     1       9.438   1.744  -7.319  0.00  0.00    -0.025 A 
ATOM     33  C   UNL     1       8.598   0.823  -7.824  0.00  0.00    -0.008 A 
ATOM     34  S   UNL     1       7.306   0.732  -6.602  0.00  0.00    -0.078 S 
ATOM     35  C   UNL     1       8.721   0.053  -9.113  0.00  0.00    +0.052 C 
ATOM     36  C   UNL     1      10.697   2.141  -8.045  0.00  0.00    +0.045 C 
BRANCH  31  37
ATOM     37  C   UNL     1       9.918   3.358  -5.418  0.00  0.00    +0.342 C 
ATOM     38  O   UNL     1      10.801   3.025  -4.650  0.00  0.00    -0.245 OA
BRANCH  37  39
ATOM     39  O   UNL     1       9.713   4.665  -5.684  0.00  0.00    -0.464 OA
ATOM     40  C   UNL     1      10.583   5.617  -5.018  0.00  0.00    +0.280 C 
ENDBRANCH  37  39
ENDBRANCH  31  37
ENDBRANCH  28  30
ENDBRANCH  25  26
ENDBRANCH  10  25
TORSDOF 10
