REMARK  Name = ZINC14022157
REMARK  12 active torsions:
REMARK  status: ('A' for Active; 'I' for Inactive)
REMARK    1  A    between atoms: C_1  and  C_2
REMARK    2  A    between atoms: C_2  and  C_3
REMARK    3  A    between atoms: C_2  and  C_4
REMARK    4  A    between atoms: C_4  and  C_5
REMARK    5  A    between atoms: C_5  and  O_6
REMARK    6  A    between atoms: O_6  and  C_7
REMARK    7  A    between atoms: C_10  and  C_13
REMARK    8  A    between atoms: N_15  and  N_16
REMARK    9  A    between atoms: N_16  and  C_17
REMARK   10  A    between atoms: C_17  and  N_19
REMARK   11  A    between atoms: C_20  and  C_22
REMARK   12  A    between atoms: C_23  and  C_24
REMARK                            x       y       z     vdW  Elec       q    Type
REMARK                         _______ _______ _______ _____ _____    ______ ____
ROOT
ATOM      1  N   UNL     1       2.449  -4.215  -0.043  0.00  0.00    -0.245 N 
ATOM      2  H   UNL     1       1.617  -4.714  -0.037  0.00  0.00    +0.172 HD
ENDROOT
BRANCH   1   5
ATOM      3  C   UNL     1       1.247  -2.160  -0.021  0.00  0.00    +0.260 C 
ATOM      4  O   UNL     1       0.204  -2.785  -0.014  0.00  0.00    -0.269 OA
ATOM      5  N   UNL     1       2.425  -2.814  -0.036  0.00  0.00    -0.231 N 
ATOM      6  H   UNL     1       3.257  -2.315  -0.041  0.00  0.00    +0.173 HD
BRANCH   3  10
ATOM      7  C   UNL     1       1.177   2.086   0.002  0.00  0.00    +0.121 A 
ATOM      8  C   UNL     1      -0.017   1.373   0.010  0.00  0.00    +0.046 A 
ATOM      9  C   UNL     1       0.002  -0.004   0.002  0.00  0.00    +0.016 A 
ATOM     10  C   UNL     1       1.223  -0.684  -0.013  0.00  0.00    +0.038 A 
ATOM     11  C   UNL     1       2.420   0.036  -0.021  0.00  0.00    +0.016 A 
ATOM     12  C   UNL     1       2.393   1.413  -0.013  0.00  0.00    +0.046 A 
BRANCH   7  13
ATOM     13  O   UNL     1       1.154   3.443   0.009  0.00  0.00    -0.492 OA
BRANCH  13  14
ATOM     14  C   UNL     1       2.416   4.113   0.001  0.00  0.00    +0.229 C 
BRANCH  14  15
ATOM     15  C   UNL     1       2.190   5.626   0.011  0.00  0.00    +0.044 C 
BRANCH  15  17
ATOM     16  C   UNL     1       4.266   6.051  -1.314  0.00  0.00    +0.007 C 
ATOM     17  C   UNL     1       3.542   6.343   0.002  0.00  0.00    -0.014 C 
ATOM     18  C   UNL     1       3.320   7.851   0.137  0.00  0.00    +0.007 C 
ENDBRANCH  15  17
ENDBRANCH  14  15
ENDBRANCH  13  14
ENDBRANCH   7  13
ENDBRANCH   3  10
ENDBRANCH   1   5
BRANCH   1  19
ATOM     19  C   UNL     1       3.627  -4.870  -0.058  0.00  0.00    +0.153 C 
ATOM     20  S   UNL     1       3.655  -6.581  -0.067  0.00  0.00    -0.017 S 
BRANCH  19  21
ATOM     21  N   UNL     1       4.783  -4.176  -0.066  0.00  0.00    -0.263 N 
ATOM     22  C   UNL     1       5.961  -4.830  -0.081  0.00  0.00    +0.242 C 
ATOM     23  O   UNL     1       5.981  -6.047  -0.087  0.00  0.00    -0.270 OA
ATOM     24  H   UNL     1       4.766  -3.206  -0.061  0.00  0.00    +0.157 HD
BRANCH  22  25
ATOM     25  C   UNL     1       7.215  -4.078  -0.089  0.00  0.00    +0.068 C 
ATOM     26  C   UNL     1       8.395  -4.733  -0.104  0.00  0.00    +0.014 C 
BRANCH  26  27
ATOM     27  C   UNL     1       9.656  -3.976  -0.112  0.00  0.00    -0.007 A 
ATOM     28  C   UNL     1       9.637  -2.578  -0.105  0.00  0.00    +0.009 A 
ATOM     29  C   UNL     1      10.824  -1.876  -0.113  0.00  0.00    +0.001 A 
ATOM     30  C   UNL     1      12.032  -2.551  -0.128  0.00  0.00    +0.001 A 
ATOM     31  C   UNL     1      12.061  -3.934  -0.136  0.00  0.00    +0.020 A 
ATOM     32  C   UNL     1      10.882  -4.652  -0.122  0.00  0.00    +0.048 A 
ATOM     33 CL   UNL     1      10.920  -6.388  -0.124  0.00  0.00    -0.083 Cl
ENDBRANCH  26  27
ENDBRANCH  22  25
ENDBRANCH  19  21
ENDBRANCH   1  19
TORSDOF 10
