REMARK  Name = ZINC13359789
REMARK  4 active torsions:
REMARK  status: ('A' for Active; 'I' for Inactive)
REMARK    1  A    between atoms: C_1  and  C_2
REMARK    2  A    between atoms: C_13  and  O_15
REMARK    3  A    between atoms: C_20  and  C_27
REMARK    4  A    between atoms: C_23  and  O_26
REMARK                            x       y       z     vdW  Elec       q    Type
REMARK                         _______ _______ _______ _____ _____    ______ ____
ROOT
ATOM      1  C   UNL     1       0.943   3.741   1.315  0.00  0.00    +0.014 C 
ATOM      2  C   UNL     1       1.098   3.118  -0.079  0.00  0.00    -0.003 C 
ATOM      3  C   UNL     1      -0.110   3.404  -0.965  0.00  0.00    +0.010 C 
ATOM      4  C   UNL     1      -0.151   4.833  -1.462  0.00  0.00    +0.005 C 
ATOM      5  C   UNL     1       1.121   5.269  -2.171  0.00  0.00    +0.002 C 
ATOM      6  C   UNL     1       2.375   4.871  -1.444  0.00  0.00    -0.003 C 
ATOM      7  C   UNL     1       2.406   3.542  -0.750  0.00  0.00    +0.001 C 
ATOM      8  C   UNL     1       2.898   2.370  -1.601  0.00  0.00    +0.007 C 
ATOM      9  C   UNL     1       1.995   1.168  -1.254  0.00  0.00    +0.032 C 
ATOM     10  C   UNL     1       1.216   1.570   0.010  0.00  0.00    +0.121 C 
ATOM     11  C   UNL     1       3.665   5.143  -2.207  0.00  0.00    +0.004 C 
ATOM     12  C   UNL     1       3.575   4.773  -3.684  0.00  0.00    +0.005 C 
ATOM     13  C   UNL     1       2.382   5.482  -4.313  0.00  0.00    +0.002 C 
ATOM     14  C   UNL     1       1.085   5.004  -3.661  0.00  0.00    -0.008 C 
ATOM     15  C   UNL     1      -0.045   5.779  -4.301  0.00  0.00    -0.022 C 
ATOM     16  C   UNL     1       0.030   6.230  -5.511  0.00  0.00    +0.000 C 
ATOM     17  C   UNL     1       1.195   6.070  -6.436  0.00  0.00    +0.137 C 
ATOM     18  C   UNL     1       2.329   5.256  -5.819  0.00  0.00    +0.040 C 
ATOM     19  C   UNL     1       0.846   3.533  -3.975  0.00  0.00    +0.016 C 
ENDROOT
BRANCH  10  20
ATOM     20  O   UNL     1      -0.083   0.976  -0.000  0.00  0.00    -0.391 OA
ATOM     21  H   UNL     1      -0.073   0.009  -0.003  0.00  0.00    +0.210 HD
ENDBRANCH  10  20
BRANCH  17  22
ATOM     22  O   UNL     1       0.750   5.420  -7.633  0.00  0.00    -0.388 OA
ATOM     23  H   UNL     1       0.063   5.904  -8.111  0.00  0.00    +0.210 HD
ENDBRANCH  17  22
TORSDOF 2
