REMARK  Name = ZINC27995287
REMARK  5 active torsions:
REMARK  status: ('A' for Active; 'I' for Inactive)
REMARK    1  A    between atoms: C_1  and  C_2
REMARK    2  A    between atoms: C_7  and  C_12
REMARK    3  A    between atoms: C_14  and  C_17
REMARK    4  A    between atoms: C_25  and  S_29
REMARK    5  A    between atoms: S_29  and  C_32
REMARK                            x       y       z     vdW  Elec       q    Type
REMARK                         _______ _______ _______ _____ _____    ______ ____
ROOT
ATOM      1  C   UNL     1      -9.129  -1.184   0.652  0.00  0.00    +0.271 C 
ATOM      2  O   UNL     1      -8.441  -1.990   1.247  0.00  0.00    -0.268 OA
ATOM      3  N   UNL     1      -8.591  -0.027   0.220  0.00  0.00    -0.259 N 
ATOM      4  C   UNL     1      -7.254   0.244   0.454  0.00  0.00    +0.166 A 
ATOM      5  N   UNL     1      -6.359  -0.493   1.070  0.00  0.00    -0.225 NA
ATOM      6  C   UNL     1      -5.077  -0.100   1.227  0.00  0.00    +0.080 A 
ATOM      7  C   UNL     1      -4.022  -0.793   1.865  0.00  0.00    +0.031 A 
ATOM      8  C   UNL     1      -2.768  -0.246   1.937  0.00  0.00    +0.029 A 
ATOM      9  C   UNL     1      -2.486   0.998   1.391  0.00  0.00    +0.089 A 
ATOM     10  C   UNL     1      -3.495   1.706   0.764  0.00  0.00    +0.044 A 
ATOM     11  C   UNL     1      -4.753   1.164   0.682  0.00  0.00    +0.043 A 
ATOM     12  S   UNL     1      -6.305   1.687  -0.008  0.00  0.00    -0.052 S 
ATOM     13  H   UNL     1      -9.214   0.703  -0.318  0.00  0.00    +0.157 HD
ENDROOT
BRANCH   1  16
ATOM     14  C   UNL     1     -12.542  -2.416   0.327  0.00  0.00    +0.168 A 
ATOM     15  C   UNL     1     -11.274  -2.639   0.789  0.00  0.00    +0.086 A 
ATOM     16  C   UNL     1     -10.562  -1.475   0.402  0.00  0.00    +0.169 A 
ATOM     17  N   UNL     1     -11.424  -0.704  -0.216  0.00  0.00    -0.073 NA
ATOM     18  O   UNL     1     -12.520  -1.211  -0.271  0.00  0.00    -0.354 OA
BRANCH  14  24
ATOM     19  C   UNL     1     -19.408  -5.193   0.173  0.00  0.00    +0.052 C 
ATOM     20  C   UNL     1     -17.948  -5.150  -0.281  0.00  0.00    +0.175 C 
ATOM     21  C   UNL     1     -17.458  -3.689  -0.415  0.00  0.00    +0.083 C 
ATOM     22  C   UNL     1     -16.020  -3.796   0.058  0.00  0.00    -0.002 A 
ATOM     23  C   UNL     1     -14.945  -2.950  -0.069  0.00  0.00    +0.019 A 
ATOM     24  C   UNL     1     -13.704  -3.318   0.459  0.00  0.00    +0.020 A 
ATOM     25  C   UNL     1     -13.571  -4.548   1.106  0.00  0.00    +0.015 A 
ATOM     26  C   UNL     1     -14.656  -5.384   1.235  0.00  0.00    +0.046 A 
ATOM     27  C   UNL     1     -15.896  -5.017   0.712  0.00  0.00    +0.124 A 
ATOM     28  O   UNL     1     -17.082  -5.684   0.735  0.00  0.00    -0.488 OA
ENDBRANCH  14  24
ENDBRANCH   1  16
BRANCH   9  29
ATOM     29  S   UNL     1      -0.862   1.671   1.500  0.00  0.00    -0.006 S 
ATOM     30  O   UNL     1      -0.296   1.065   2.655  0.00  0.00    -0.170 OA
ATOM     31  O   UNL     1      -1.048   3.078   1.438  0.00  0.00    -0.170 OA
ATOM     32  C   UNL     1      -0.013   1.086   0.008  0.00  0.00    +0.200 C 
ENDBRANCH   9  29
TORSDOF 3
