REMARK  Name = ZINC35379063
REMARK  7 active torsions:
REMARK  status: ('A' for Active; 'I' for Inactive)
REMARK    1  A    between atoms: C_1  and  C_2
REMARK    2  A    between atoms: C_7  and  N_8
REMARK    3  A    between atoms: C_9  and  C_11
REMARK    4  A    between atoms: N_16  and  S_18
REMARK    5  A    between atoms: S_18  and  C_21
REMARK    6  A    between atoms: C_26  and  C_27
REMARK    7  A    between atoms: C_31  and  C_34
REMARK                            x       y       z     vdW  Elec       q    Type
REMARK                         _______ _______ _______ _____ _____    ______ ____
ROOT
ATOM      1  C   UNL     1      -0.168   0.054   4.882  0.00  0.00    +0.091 C 
ATOM      2  C   UNL     1      -1.432   0.916   4.870  0.00  0.00    +0.015 C 
ATOM      3  C   UNL     1      -1.529   1.700   6.181  0.00  0.00    +0.018 C 
ATOM      4  C   UNL     1      -1.624   0.719   7.353  0.00  0.00    +0.109 C 
ATOM      5  N   UNL     1      -0.486  -0.208   7.287  0.00  0.00    -0.176 NA
ATOM      6  C   UNL     1      -0.246  -0.947   6.040  0.00  0.00    +0.122 C 
ENDROOT
BRANCH   1   8
ATOM      7  N   UNL     1       0.025  -0.014   2.417  0.00  0.00    -0.285 N 
ATOM      8  C   UNL     1      -0.056  -0.693   3.578  0.00  0.00    +0.222 C 
ATOM      9  O   UNL     1      -0.040  -1.906   3.574  0.00  0.00    -0.275 OA
ATOM     10  H   UNL     1       0.078   0.955   2.424  0.00  0.00    +0.155 HD
BRANCH   7  17
ATOM     11  C   UNL     1      -1.264   1.183   0.181  0.00  0.00    +0.045 C 
ATOM     12  C   UNL     1      -0.584  -0.158   0.084  0.00  0.00    -0.029 A 
ATOM     13  C   UNL     1      -0.570  -0.840  -1.117  0.00  0.00    +0.006 A 
ATOM     14  C   UNL     1       0.054  -2.070  -1.207  0.00  0.00    +0.020 A 
ATOM     15  C   UNL     1       0.666  -2.622  -0.095  0.00  0.00    +0.043 A 
ATOM     16  C   UNL     1       0.655  -1.944   1.109  0.00  0.00    +0.043 A 
ATOM     17  C   UNL     1       0.034  -0.706   1.201  0.00  0.00    +0.038 A 
ATOM     18 CL   UNL     1       1.448  -4.168  -0.213  0.00  0.00    -0.083 Cl
ENDBRANCH   7  17
ENDBRANCH   1   8
BRANCH   5  19
ATOM     19  S   UNL     1       0.509  -0.416   8.594  0.00  0.00    +0.061 S 
ATOM     20  O   UNL     1       1.754  -0.879   8.088  0.00  0.00    -0.153 OA
ATOM     21  O   UNL     1       0.398   0.761   9.382  0.00  0.00    -0.153 OA
BRANCH  19  22
ATOM     22  C   UNL     1      -0.162  -1.731   9.556  0.00  0.00    +0.112 A 
ATOM     23  C   UNL     1       0.548  -2.909   9.706  0.00  0.00    +0.076 A 
ATOM     24  C   UNL     1       0.021  -3.941  10.461  0.00  0.00    +0.145 A 
ATOM     25  C   UNL     1      -1.224  -3.790  11.069  0.00  0.00    +0.076 A 
ATOM     26  C   UNL     1      -1.931  -2.609  10.917  0.00  0.00    +0.032 A 
ATOM     27  C   UNL     1      -1.395  -1.579  10.164  0.00  0.00    -0.022 A 
ATOM     28  C   UNL     1      -2.159  -0.291  10.001  0.00  0.00    +0.046 C 
ATOM     29  N   UNL     1      -1.747  -4.845  11.831  0.00  0.00    -0.280 N 
ATOM     30  C   UNL     1      -0.924  -5.841  12.222  0.00  0.00    +0.258 C 
ATOM     31  O   UNL     1      -1.360  -6.779  12.855  0.00  0.00    -0.271 OA
ATOM     32  C   UNL     1       0.540  -5.784  11.867  0.00  0.00    +0.256 C 
ATOM     33  O   UNL     1       0.706  -5.105  10.620  0.00  0.00    -0.478 OA
ATOM     34  C   UNL     1       1.300  -5.031  12.961  0.00  0.00    +0.062 C 
ATOM     35  H   UNL     1      -2.686  -4.858  12.074  0.00  0.00    +0.155 HD
ENDBRANCH  19  22
ENDBRANCH   5  19
TORSDOF 4
