REMARK  Name = ZINC30937605
REMARK  5 active torsions:
REMARK  status: ('A' for Active; 'I' for Inactive)
REMARK    1  A    between atoms: C_1  and  C_2
REMARK    2  A    between atoms: C_5  and  C_31
REMARK    3  A    between atoms: N_7  and  C_25
REMARK    4  A    between atoms: N_10  and  C_19
REMARK    5  A    between atoms: C_11  and  C_13
REMARK                            x       y       z     vdW  Elec       q    Type
REMARK                         _______ _______ _______ _____ _____    ______ ____
ROOT
ATOM      1  C   UNL     1       1.870   2.521  -0.777  0.00  0.00    +0.110 C 
ATOM      2  C   UNL     1       0.750   1.546  -0.518  0.00  0.00    +0.224 C 
ATOM      3  O   UNL     1       0.958   0.353  -0.581  0.00  0.00    -0.275 OA
ATOM      4  N   UNL     1      -0.481   2.000  -0.212  0.00  0.00    -0.209 N 
ATOM      5  C   UNL     1      -1.033   3.391  -0.125  0.00  0.00    +0.233 C 
ATOM      6  N   UNL     1      -2.429   3.317  -0.604  0.00  0.00    -0.257 N 
ATOM      7  C   UNL     1      -2.899   2.060  -0.664  0.00  0.00    +0.159 C 
ATOM      8  S   UNL     1      -1.886   1.194   0.201  0.00  0.00    +0.036 S 
ATOM      9  N   UNL     1      -1.937  -0.200  -0.706  0.00  0.00    -0.218 N 
ATOM     10  C   UNL     1      -3.249  -0.094  -1.212  0.00  0.00    +0.114 C 
ATOM     11  N   UNL     1      -3.647   1.175  -1.258  0.00  0.00    -0.282 N 
ATOM     12  H   UNL     1      -4.576   1.442  -1.783  0.00  0.00    +0.155 HD
ENDROOT
BRANCH  10  13
ATOM     13  C   UNL     1      -4.067  -1.232  -1.633  0.00  0.00    +0.012 A 
ATOM     14  C   UNL     1      -3.615  -2.546  -1.419  0.00  0.00    +0.011 A 
ATOM     15  C   UNL     1      -4.395  -3.609  -1.813  0.00  0.00    +0.001 A 
ATOM     16  C   UNL     1      -5.617  -3.388  -2.429  0.00  0.00    +0.000 A 
ATOM     17  C   UNL     1      -6.070  -2.097  -2.649  0.00  0.00    +0.001 A 
ATOM     18  C   UNL     1      -5.308  -1.019  -2.257  0.00  0.00    +0.011 A 
ENDBRANCH  10  13
BRANCH   9  19
ATOM     19  C   UNL     1      -0.968  -1.184  -0.906  0.00  0.00    +0.047 A 
ATOM     20  C   UNL     1      -0.560  -1.509  -2.194  0.00  0.00    +0.024 A 
ATOM     21  C   UNL     1       0.404  -2.479  -2.388  0.00  0.00    +0.002 A 
ATOM     22  C   UNL     1       0.954  -3.135  -1.302  0.00  0.00    +0.000 A 
ATOM     23  C   UNL     1       0.546  -2.819  -0.019  0.00  0.00    +0.002 A 
ATOM     24  C   UNL     1      -0.412  -1.846   0.183  0.00  0.00    +0.024 A 
ENDBRANCH   9  19
BRANCH   6  25
ATOM     25  C   UNL     1      -3.183   4.438  -0.953  0.00  0.00    +0.037 A 
ATOM     26  C   UNL     1      -4.332   4.755  -0.237  0.00  0.00    +0.023 A 
ATOM     27  C   UNL     1      -5.073   5.867  -0.582  0.00  0.00    +0.002 A 
ATOM     28  C   UNL     1      -4.680   6.660  -1.645  0.00  0.00    +0.000 A 
ATOM     29  C   UNL     1      -3.540   6.345  -2.362  0.00  0.00    +0.002 A 
ATOM     30  C   UNL     1      -2.791   5.237  -2.020  0.00  0.00    +0.023 A 
ENDBRANCH   6  25
BRANCH   5  31
ATOM     31  C   UNL     1      -0.997   3.880   1.324  0.00  0.00    +0.226 C 
ATOM     32 CL   UNL     1       0.675   3.707   1.976  0.00  0.00    -0.080 Cl
ATOM     33 CL   UNL     1      -1.491   5.612   1.386  0.00  0.00    -0.080 Cl
ATOM     34 CL   UNL     1      -2.134   2.895   2.318  0.00  0.00    -0.080 Cl
ENDBRANCH   5  31
TORSDOF 4
