REMARK  Name = ZINC35786858
REMARK  11 active torsions:
REMARK  status: ('A' for Active; 'I' for Inactive)
REMARK    1  A    between atoms: C_1  and  C_2
REMARK    2  A    between atoms: C_5  and  C_8
REMARK    3  A    between atoms: C_11  and  C_14
REMARK    4  A    between atoms: C_16  and  O_22
REMARK    5  A    between atoms: C_19  and  O_20
REMARK    6  A    between atoms: O_20  and  C_21
REMARK    7  A    between atoms: O_22  and  C_23
REMARK    8  A    between atoms: C_24  and  C_26
REMARK    9  A    between atoms: C_26  and  N_27
REMARK   10  A    between atoms: C_30  and  C_33
REMARK   11  A    between atoms: C_33  and  C_34
REMARK                            x       y       z     vdW  Elec       q    Type
REMARK                         _______ _______ _______ _____ _____    ______ ____
ROOT
ATOM      1  C   UNL     1       0.058  -4.248  -0.021  0.00  0.00    +0.069 C 
ATOM      2  N   UNL     1       0.068  -4.985  -1.077  0.00  0.00    -0.181 NA
ATOM      3  N   UNL     1       0.086  -6.354  -0.816  0.00  0.00    -0.187 N 
ATOM      4  C   UNL     1       0.088  -6.560   0.641  0.00  0.00    +0.140 C 
ATOM      5  C   UNL     1       0.076  -5.127   1.209  0.00  0.00    +0.087 C 
ATOM      6  C   UNL     1       0.098  -7.329  -1.746  0.00  0.00    +0.219 C 
ATOM      7  O   UNL     1       0.113  -8.493  -1.404  0.00  0.00    -0.276 OA
ENDROOT
BRANCH   1  12
ATOM      8  C   UNL     1      -0.018   1.503   0.010  0.00  0.00    +0.044 C 
ATOM      9  C   UNL     1       0.002  -0.004   0.002  0.00  0.00    -0.050 A 
ATOM     10  C   UNL     1       0.006  -0.686  -1.202  0.00  0.00    +0.004 A 
ATOM     11  C   UNL     1       0.024  -2.065  -1.217  0.00  0.00    +0.010 A 
ATOM     12  C   UNL     1       0.039  -2.773  -0.013  0.00  0.00    -0.002 A 
ATOM     13  C   UNL     1       0.036  -2.078   1.198  0.00  0.00    +0.010 A 
ATOM     14  C   UNL     1       0.023  -0.699   1.198  0.00  0.00    +0.004 A 
ENDBRANCH   1  12
BRANCH   4  15
ATOM     15  C   UNL     1      -1.140  -7.321   1.071  0.00  0.00    +0.020 A 
ATOM     16  C   UNL     1      -2.237  -7.391   0.234  0.00  0.00    +0.054 A 
ATOM     17  C   UNL     1      -3.367  -8.091   0.630  0.00  0.00    +0.121 A 
ATOM     18  C   UNL     1      -3.396  -8.721   1.865  0.00  0.00    +0.049 A 
ATOM     19  C   UNL     1      -2.299  -8.650   2.702  0.00  0.00    +0.049 A 
ATOM     20  C   UNL     1      -1.167  -7.954   2.304  0.00  0.00    +0.125 A 
BRANCH  20  21
ATOM     21  O   UNL     1      -0.085  -7.890   3.125  0.00  0.00    -0.495 OA
ATOM     22  C   UNL     1      -0.182  -8.566   4.380  0.00  0.00    +0.277 C 
ENDBRANCH  20  21
BRANCH  17  23
ATOM     23  O   UNL     1      -4.447  -8.160  -0.194  0.00  0.00    -0.495 OA
ATOM     24  C   UNL     1      -5.576  -8.898   0.278  0.00  0.00    +0.277 C 
ENDBRANCH  17  23
ENDBRANCH   4  15
BRANCH   6  25
ATOM     25  C   UNL     1       0.095  -6.974  -3.211  0.00  0.00    +0.021 C 
BRANCH  25  26
ATOM     26  N   UNL     1       0.111  -8.205  -4.013  0.00  0.00    +0.385 N 
ATOM     27  C   UNL     1       1.370  -8.922  -3.782  0.00  0.00    -0.078 C 
ATOM     28  C   UNL     1       1.358 -10.244  -4.552  0.00  0.00    -0.015 C 
ATOM     29  C   UNL     1       1.200  -9.956  -6.048  0.00  0.00    -0.010 C 
ATOM     30  C   UNL     1      -0.079  -9.143  -6.269  0.00  0.00    -0.015 C 
ATOM     31  C   UNL     1      -0.014  -7.862  -5.435  0.00  0.00    -0.078 C 
ATOM     32  H   UNL     1      -0.663  -8.793  -3.741  0.00  0.00    -0.081 HD
BRANCH  29  33
ATOM     33  C   UNL     1       1.107 -11.275  -6.816  0.00  0.00    +0.038 C 
BRANCH  33  34
ATOM     34  C   UNL     1       1.075 -10.994  -8.296  0.00  0.00    -0.047 A 
ATOM     35  C   UNL     1      -0.134 -10.797  -8.936  0.00  0.00    +0.003 A 
ATOM     36  C   UNL     1      -0.163 -10.538 -10.294  0.00  0.00    +0.000 A 
ATOM     37  C   UNL     1       1.017 -10.476 -11.011  0.00  0.00    +0.000 A 
ATOM     38  C   UNL     1       2.226 -10.672 -10.371  0.00  0.00    +0.000 A 
ATOM     39  C   UNL     1       2.256 -10.927  -9.012  0.00  0.00    +0.003 A 
ENDBRANCH  33  34
ENDBRANCH  29  33
ENDBRANCH  25  26
ENDBRANCH   6  25
TORSDOF 8
