REMARK  Name = ZINC39686856
REMARK  7 active torsions:
REMARK  status: ('A' for Active; 'I' for Inactive)
REMARK    1  A    between atoms: C_1  and  C_2
REMARK    2  A    between atoms: C_2  and  C_4
REMARK    3  A    between atoms: C_2  and  N_12
REMARK    4  A    between atoms: C_4  and  C_5
REMARK    5  A    between atoms: C_13  and  C_15
REMARK    6  A    between atoms: C_26  and  C_28
REMARK    7  A    between atoms: C_31  and  C_34
REMARK                            x       y       z     vdW  Elec       q    Type
REMARK                         _______ _______ _______ _____ _____    ______ ____
ROOT
ATOM      1  C   UNL     1       1.274  -1.374   3.949  0.00  0.00    +0.100 C 
ATOM      2  C   UNL     1       2.293  -0.218   4.066  0.00  0.00    +0.121 C 
ATOM      3  N   UNL     1       1.693   0.712   5.051  0.00  0.00    -0.296 N 
ATOM      4  C   UNL     1       1.091  -0.175   6.076  0.00  0.00    +0.115 C 
ATOM      5  C   UNL     1       0.490  -1.344   5.272  0.00  0.00    -0.004 C 
ATOM      6  C   UNL     1      -0.991  -1.092   5.003  0.00  0.00    -0.010 C 
ATOM      7  C   UNL     1      -1.758  -1.123   6.327  0.00  0.00    -0.082 C 
ATOM      8  N   UNL     1      -1.573  -2.429   6.971  0.00  0.00    +0.379 N 
ATOM      9  C   UNL     1      -0.158  -2.624   7.311  0.00  0.00    -0.082 C 
ATOM     10  C   UNL     1       0.677  -2.656   6.027  0.00  0.00    -0.010 C 
ATOM     11  C   UNL     1       1.694   2.059   5.023  0.00  0.00    +0.247 C 
ATOM     12  O   UNL     1       2.135   2.646   4.054  0.00  0.00    -0.270 OA
ATOM     13  H   UNL     1      -2.127  -2.469   7.813  0.00  0.00    -0.086 HD
ATOM     14  H   UNL     1      -1.870  -3.159   6.341  0.00  0.00    -0.086 HD
ENDROOT
BRANCH  11  15
ATOM     15  C   UNL     1       1.158   2.824   6.169  0.00  0.00    +0.037 A 
ATOM     16  C   UNL     1       1.066   2.227   7.428  0.00  0.00    +0.013 A 
ATOM     17  C   UNL     1       0.566   2.946   8.493  0.00  0.00    +0.013 A 
ATOM     18  C   UNL     1       0.156   4.255   8.317  0.00  0.00    +0.055 A 
ATOM     19  C   UNL     1       0.244   4.853   7.072  0.00  0.00    +0.013 A 
ATOM     20  C   UNL     1       0.749   4.147   5.999  0.00  0.00    +0.013 A 
BRANCH  18  21
ATOM     21  C   UNL     1      -0.390   5.034   9.486  0.00  0.00    +0.417 C 
ATOM     22  F   UNL     1       0.658   5.695  10.136  0.00  0.00    -0.166 F 
ATOM     23  F   UNL     1      -1.320   5.973   9.027  0.00  0.00    -0.166 F 
ATOM     24  F   UNL     1      -1.015   4.158  10.380  0.00  0.00    -0.166 F 
ENDBRANCH  18  21
ENDBRANCH  11  15
BRANCH   1  26
ATOM     25  N   UNL     1      -0.171  -2.189   2.115  0.00  0.00    -0.312 N 
ATOM     26  C   UNL     1       0.347  -1.141   2.784  0.00  0.00    +0.218 C 
ATOM     27  O   UNL     1       0.067  -0.009   2.449  0.00  0.00    -0.275 OA
ATOM     28  H   UNL     1       0.053  -3.094   2.383  0.00  0.00    +0.149 HD
BRANCH  25  30
ATOM     29  C   UNL     1      -0.249  -1.745  -0.289  0.00  0.00    +0.028 C 
ATOM     30  C   UNL     1      -1.072  -1.962   0.982  0.00  0.00    +0.074 C 
BRANCH  30  31
ATOM     31  C   UNL     1      -1.979  -3.181   0.800  0.00  0.00    +0.060 C 
BRANCH  31  32
ATOM     32  C   UNL     1      -2.877  -3.322   2.002  0.00  0.00    -0.010 A 
ATOM     33  C   UNL     1      -2.513  -4.155   3.043  0.00  0.00    +0.006 A 
ATOM     34  C   UNL     1      -3.337  -4.285   4.146  0.00  0.00    +0.000 A 
ATOM     35  C   UNL     1      -4.526  -3.582   4.208  0.00  0.00    +0.003 A 
ATOM     36  C   UNL     1      -4.892  -2.748   3.169  0.00  0.00    +0.038 A 
ATOM     37  C   UNL     1      -4.065  -2.614   2.066  0.00  0.00    +0.127 A 
ATOM     38  F   UNL     1      -4.420  -1.795   1.052  0.00  0.00    -0.205 F 
ENDBRANCH  31  32
ENDBRANCH  30  31
ENDBRANCH  25  30
ENDBRANCH   1  26
TORSDOF 6
