REMARK  Name = ZINC09092099
REMARK  6 active torsions:
REMARK  status: ('A' for Active; 'I' for Inactive)
REMARK    1  A    between atoms: C_5  and  C_7
REMARK    2  A    between atoms: C_10  and  S_13
REMARK    3  A    between atoms: N_11  and  N_12
REMARK    4  A    between atoms: S_13  and  C_14
REMARK    5  A    between atoms: C_14  and  C_15
REMARK    6  A    between atoms: N_17  and  C_18
REMARK                            x       y       z     vdW  Elec       q    Type
REMARK                         _______ _______ _______ _____ _____    ______ ____
ROOT
ATOM      1  S   UNL     1      -0.623   2.004  -1.416  0.00  0.00    -0.075 S 
ENDROOT
BRANCH   1   5
ATOM      2  C   UNL     1       1.212   0.743  -4.627  0.00  0.00    +0.183 A 
ATOM      3  N   UNL     1       1.798   0.058  -3.672  0.00  0.00    -0.127 NA
ATOM      4  N   UNL     1       1.296   0.375  -2.533  0.00  0.00    -0.121 NA
ATOM      5  C   UNL     1       0.350   1.274  -2.691  0.00  0.00    +0.209 A 
ATOM      6  N   UNL     1       0.267   1.543  -4.028  0.00  0.00    -0.224 N 
BRANCH   2  11
ATOM      7  C   UNL     1       1.970   1.762  -8.161  0.00  0.00    +0.001 A 
ATOM      8  C   UNL     1       2.074   0.529  -8.781  0.00  0.00    +0.001 A 
ATOM      9  C   UNL     1       1.898  -0.634  -8.054  0.00  0.00    +0.016 A 
ATOM     10  C   UNL     1       1.623  -0.573  -6.703  0.00  0.00    +0.029 A 
ATOM     11  C   UNL     1       1.512   0.668  -6.072  0.00  0.00    +0.035 A 
ATOM     12  C   UNL     1       1.690   1.838  -6.812  0.00  0.00    +0.013 A 
ATOM     13 BR   UNL     1       1.392  -2.165  -5.709  0.00  0.00    -0.050 Br
ENDBRANCH   2  11
BRANCH   6  14
ATOM     14  N   UNL     1      -0.579   2.422  -4.642  0.00  0.00    -0.295 N 
ATOM     15  H   UNL     1      -0.188   3.353  -4.651  0.00  0.00    +0.163 HD
ATOM     16  H   UNL     1      -0.804   2.116  -5.576  0.00  0.00    +0.163 HD
ENDBRANCH   6  14
ENDBRANCH   1   5
BRANCH   1  17
ATOM     17  C   UNL     1       0.065   1.155   0.028  0.00  0.00    +0.173 C 
BRANCH  17  18
ATOM     18  C   UNL     1      -0.636   1.635   1.273  0.00  0.00    +0.227 C 
ATOM     19  O   UNL     1      -1.514   2.468   1.192  0.00  0.00    -0.275 OA
ATOM     20  N   UNL     1      -0.288   1.137   2.476  0.00  0.00    -0.285 N 
ATOM     21  H   UNL     1       0.463   0.527   2.550  0.00  0.00    +0.155 HD
BRANCH  20  22
ATOM     22  C   UNL     1      -1.010   1.501   3.620  0.00  0.00    +0.037 A 
ATOM     23  C   UNL     1      -0.363   1.607   4.844  0.00  0.00    +0.027 A 
ATOM     24  C   UNL     1      -1.072   1.970   5.975  0.00  0.00    +0.051 A 
ATOM     25  C   UNL     1      -2.431   2.219   5.885  0.00  0.00    +0.162 A 
ATOM     26  C   UNL     1      -3.081   2.108   4.664  0.00  0.00    +0.164 A 
ATOM     27  C   UNL     1      -2.374   1.750   3.530  0.00  0.00    +0.072 A 
ATOM     28  O   UNL     1      -4.421   2.357   4.589  0.00  0.00    -0.488 OA
ATOM     29  C   UNL     1      -5.270   1.412   5.244  0.00  0.00    +0.232 C 
ATOM     30  C   UNL     1      -5.405   1.743   6.722  0.00  0.00    +0.082 C 
ATOM     31  C   UNL     1      -4.086   1.612   7.468  0.00  0.00    +0.232 C 
ATOM     32  O   UNL     1      -3.140   2.574   6.997  0.00  0.00    -0.488 OA
ENDBRANCH  20  22
ENDBRANCH  17  18
ENDBRANCH   1  17
TORSDOF 6
