REMARK  Name = ZINC11317116
REMARK  5 active torsions:
REMARK  status: ('A' for Active; 'I' for Inactive)
REMARK    1  A    between atoms: C_1  and  C_2
REMARK    2  A    between atoms: C_2  and  C_22
REMARK    3  A    between atoms: N_5  and  C_9
REMARK    4  A    between atoms: C_9  and  C_10
REMARK    5  A    between atoms: N_12  and  C_13
REMARK                            x       y       z     vdW  Elec       q    Type
REMARK                         _______ _______ _______ _____ _____    ______ ____
ROOT
ATOM      1  C   UNL     1      -0.967   6.028  -4.342  0.00  0.00    +0.047 C 
ATOM      2  C   UNL     1      -2.207   5.464  -3.646  0.00  0.00    +0.135 C 
ATOM      3  C   UNL     1      -3.223   6.561  -3.395  0.00  0.00    +0.251 C 
ATOM      4  O   UNL     1      -3.075   7.554  -2.715  0.00  0.00    -0.272 OA
ATOM      5  N   UNL     1      -4.324   6.203  -4.084  0.00  0.00    -0.215 N 
ATOM      6  C   UNL     1      -4.147   5.044  -4.729  0.00  0.00    +0.310 C 
ATOM      7  O   UNL     1      -4.999   4.518  -5.418  0.00  0.00    -0.252 OA
ATOM      8  N   UNL     1      -2.921   4.527  -4.531  0.00  0.00    -0.281 N 
ATOM      9  H   UNL     1      -2.575   3.700  -4.899  0.00  0.00    +0.152 HD
ENDROOT
BRANCH   2  10
ATOM     10  C   UNL     1      -1.827   4.787  -2.354  0.00  0.00    -0.012 A 
ATOM     11  C   UNL     1      -1.852   5.499  -1.169  0.00  0.00    +0.010 A 
ATOM     12  C   UNL     1      -1.503   4.883   0.017  0.00  0.00    +0.050 A 
ATOM     13  C   UNL     1      -1.126   3.548   0.022  0.00  0.00    +0.162 A 
ATOM     14  C   UNL     1      -1.103   2.832  -1.169  0.00  0.00    +0.162 A 
ATOM     15  C   UNL     1      -1.453   3.457  -2.356  0.00  0.00    +0.055 A 
ATOM     16  O   UNL     1      -0.741   1.520  -1.186  0.00  0.00    -0.485 OA
ATOM     17  C   UNL     1      -0.041   1.030  -0.037  0.00  0.00    +0.270 C 
ATOM     18  C   UNL     1      -0.772   1.523   1.219  0.00  0.00    +0.270 C 
ATOM     19  O   UNL     1      -0.782   2.955   1.198  0.00  0.00    -0.485 OA
ENDBRANCH   2  10
BRANCH   5  20
ATOM     20  C   UNL     1      -5.562   6.985  -4.122  0.00  0.00    +0.214 C 
BRANCH  20  21
ATOM     21  C   UNL     1      -5.505   7.960  -5.270  0.00  0.00    +0.235 C 
ATOM     22  O   UNL     1      -4.527   7.997  -5.986  0.00  0.00    -0.274 OA
ATOM     23  N   UNL     1      -6.542   8.790  -5.500  0.00  0.00    -0.283 N 
ATOM     24  H   UNL     1      -7.350   8.716  -4.969  0.00  0.00    +0.155 HD
BRANCH  23  25
ATOM     25  C   UNL     1      -6.452   9.759  -6.507  0.00  0.00    +0.053 A 
ATOM     26  C   UNL     1      -5.750   9.487  -7.673  0.00  0.00    +0.046 A 
ATOM     27  C   UNL     1      -5.667  10.443  -8.668  0.00  0.00    +0.061 A 
ATOM     28  C   UNL     1      -6.275  11.676  -8.497  0.00  0.00    +0.061 A 
ATOM     29  C   UNL     1      -6.971  11.951  -7.334  0.00  0.00    +0.043 A 
ATOM     30  C   UNL     1      -7.061  10.997  -6.338  0.00  0.00    +0.064 A 
ATOM     31 CL   UNL     1      -7.935  11.343  -4.879  0.00  0.00    -0.082 Cl
ATOM     32 CL   UNL     1      -6.165  12.877  -9.746  0.00  0.00    -0.082 Cl
ATOM     33 CL   UNL     1      -4.796  10.101 -10.130  0.00  0.00    -0.082 Cl
ENDBRANCH  23  25
ENDBRANCH  20  21
ENDBRANCH   5  20
TORSDOF 4
