REMARK  Name = ZINC06179133
REMARK  5 active torsions:
REMARK  status: ('A' for Active; 'I' for Inactive)
REMARK    1  A    between atoms: C_1  and  N_2
REMARK    2  A    between atoms: C_3  and  C_5
REMARK    3  A    between atoms: N_10  and  C_21
REMARK    4  A    between atoms: N_12  and  C_13
REMARK    5  A    between atoms: C_21  and  C_22
REMARK                            x       y       z     vdW  Elec       q    Type
REMARK                         _______ _______ _______ _____ _____    ______ ____
ROOT
ATOM      1  C   UNL     1      -1.135  -2.201   0.001  0.00  0.00    +0.148 C 
ATOM      2  C   UNL     1      -2.377  -2.739   0.714  0.00  0.00    +0.120 C 
ATOM      3  C   UNL     1      -2.528  -4.213   0.560  0.00  0.00    +0.223 C 
ATOM      4  O   UNL     1      -3.115  -4.778   1.458  0.00  0.00    -0.275 OA
ATOM      5  N   UNL     1      -2.107  -4.989  -0.427  0.00  0.00    -0.246 N 
ATOM      6  C   UNL     1      -1.300  -4.558  -1.465  0.00  0.00    +0.164 C 
ATOM      7  N   UNL     1      -0.659  -5.409  -2.231  0.00  0.00    -0.226 NA
ATOM      8  S   UNL     1      -1.165  -2.808  -1.718  0.00  0.00    -0.077 S 
ENDROOT
BRANCH   7   9
ATOM      9  C   UNL     1       0.133  -4.951  -3.251  0.00  0.00    +0.067 A 
ATOM     10  C   UNL     1      -0.324  -3.934  -4.091  0.00  0.00    +0.029 A 
ATOM     11  C   UNL     1       0.478  -3.477  -5.116  0.00  0.00    +0.022 A 
ATOM     12  C   UNL     1       1.734  -4.025  -5.312  0.00  0.00    +0.041 A 
ATOM     13  C   UNL     1       2.193  -5.035  -4.483  0.00  0.00    +0.022 A 
ATOM     14  C   UNL     1       1.403  -5.496  -3.451  0.00  0.00    +0.029 A 
ATOM     15 CL   UNL     1       2.738  -3.445  -6.605  0.00  0.00    -0.084 Cl
ENDBRANCH   7   9
BRANCH   1  18
ATOM     16  C   UNL     1      -0.018   1.461   0.010  0.00  0.00    +0.128 C 
ATOM     17  N   UNL     1       0.002  -0.004   0.002  0.00  0.00    -0.317 N 
ATOM     18  C   UNL     1      -1.156  -0.694   0.009  0.00  0.00    +0.227 C 
ATOM     19  O   UNL     1      -2.214  -0.102   0.023  0.00  0.00    -0.275 OA
ATOM     20  H   UNL     1       0.849  -0.478  -0.009  0.00  0.00    +0.148 HD
ENDBRANCH   1  18
BRANCH   5  21
ATOM     21  C   UNL     1      -2.521  -6.394  -0.420  0.00  0.00    +0.150 C 
BRANCH  21  22
ATOM     22  C   UNL     1      -3.817  -6.539  -1.175  0.00  0.00    -0.029 A 
ATOM     23  C   UNL     1      -5.022  -6.414  -0.509  0.00  0.00    +0.008 A 
ATOM     24  C   UNL     1      -6.212  -6.547  -1.200  0.00  0.00    +0.038 A 
ATOM     25  C   UNL     1      -6.196  -6.805  -2.560  0.00  0.00    +0.123 A 
ATOM     26  C   UNL     1      -4.989  -6.929  -3.226  0.00  0.00    +0.038 A 
ATOM     27  C   UNL     1      -3.801  -6.791  -2.534  0.00  0.00    +0.008 A 
ATOM     28  F   UNL     1      -7.358  -6.935  -3.237  0.00  0.00    -0.205 F 
ENDBRANCH  21  22
ENDBRANCH   5  21
TORSDOF 4
