REMARK  Name = ZINC33025839
REMARK  7 active torsions:
REMARK  status: ('A' for Active; 'I' for Inactive)
REMARK    1  A    between atoms: C_1  and  C_2
REMARK    2  A    between atoms: C_2  and  C_3
REMARK    3  A    between atoms: N_5  and  C_6
REMARK    4  A    between atoms: C_9  and  S_12
REMARK    5  A    between atoms: S_12  and  N_15
REMARK    6  A    between atoms: N_15  and  C_16
REMARK    7  A    between atoms: C_19  and  C_22
REMARK                            x       y       z     vdW  Elec       q    Type
REMARK                         _______ _______ _______ _____ _____    ______ ____
ROOT
ATOM      1  N   UNL     1      -5.401   4.401   1.574  0.00  0.00    -0.216 N 
ATOM      2  H   UNL     1      -6.285   3.988   2.082  0.00  0.00    +0.174 HD
ENDROOT
BRANCH   1   3
ATOM      3  C   UNL     1      -4.510   5.214   2.276  0.00  0.00    +0.048 A 
ATOM      4  C   UNL     1      -3.637   4.650   3.200  0.00  0.00    +0.025 A 
ATOM      5  C   UNL     1      -2.752   5.450   3.891  0.00  0.00    +0.012 A 
ATOM      6  C   UNL     1      -2.740   6.828   3.671  0.00  0.00    -0.002 A 
ATOM      7  C   UNL     1      -3.622   7.392   2.746  0.00  0.00    +0.012 A 
ATOM      8  C   UNL     1      -4.501   6.587   2.055  0.00  0.00    +0.025 A 
BRANCH   6   9
ATOM      9  C   UNL     1      -1.796   7.689   4.414  0.00  0.00    +0.047 A 
ATOM     10  C   UNL     1      -1.692   9.035   4.279  0.00  0.00    +0.036 A 
ATOM     11  C   UNL     1      -0.644   9.476   5.198  0.00  0.00    +0.003 A 
ATOM     12  C   UNL     1      -0.091  10.723   5.508  0.00  0.00    +0.048 A 
ATOM     13  C   UNL     1       0.917  10.807   6.442  0.00  0.00    +0.124 A 
ATOM     14  C   UNL     1       1.386   9.661   7.075  0.00  0.00    +0.040 A 
ATOM     15  C   UNL     1       0.851   8.427   6.780  0.00  0.00    +0.029 A 
ATOM     16  C   UNL     1      -0.169   8.318   5.840  0.00  0.00    +0.047 A 
ATOM     17  N   UNL     1      -0.885   7.248   5.346  0.00  0.00    -0.354 N 
ATOM     18  H   UNL     1      -0.821   6.177   5.587  0.00  0.00    +0.166 HD
ATOM     19  F   UNL     1       1.454  12.009   6.745  0.00  0.00    -0.205 F 
ENDBRANCH   6   9
ENDBRANCH   1   3
BRANCH   1  20
ATOM     20  S   UNL     1      -5.127   4.059  -0.023  0.00  0.00    +0.072 S 
ATOM     21  O   UNL     1      -4.856   5.298  -0.663  0.00  0.00    -0.150 OA
ATOM     22  O   UNL     1      -6.179   3.200  -0.440  0.00  0.00    -0.150 OA
BRANCH  20  26
ATOM     23  C   UNL     1      -1.310   1.631  -0.237  0.00  0.00    +0.033 A 
ATOM     24  C   UNL     1      -1.252   3.018  -0.213  0.00  0.00    +0.025 A 
ATOM     25  C   UNL     1      -2.418   3.756  -0.153  0.00  0.00    +0.030 A 
ATOM     26  C   UNL     1      -3.642   3.114  -0.106  0.00  0.00    +0.109 A 
ATOM     27  C   UNL     1      -3.703   1.733  -0.123  0.00  0.00    +0.030 A 
ATOM     28  C   UNL     1      -2.541   0.989  -0.189  0.00  0.00    +0.025 A 
BRANCH  23  31
ATOM     29  C   UNL     1       0.930   1.352  -0.987  0.00  0.00    +0.217 C 
ATOM     30  O   UNL     1       0.834   2.382  -1.621  0.00  0.00    -0.275 OA
ATOM     31  N   UNL     1      -0.131   0.880  -0.303  0.00  0.00    -0.286 N 
ATOM     32  H   UNL     1      -0.070  -0.095   0.202  0.00  0.00    +0.155 HD
BRANCH  29  34
ATOM     33  C   UNL     1       3.269   1.346  -1.812  0.00  0.00    +0.013 C 
ATOM     34  C   UNL     1       2.237   0.602  -0.962  0.00  0.00    +0.093 C 
ENDBRANCH  29  34
ENDBRANCH  23  31
ENDBRANCH  20  26
ENDBRANCH   1  20
TORSDOF 6
