REMARK  Name = ZINC12808331
REMARK  14 active torsions:
REMARK  status: ('A' for Active; 'I' for Inactive)
REMARK    1  A    between atoms: C_1  and  C_2
REMARK    2  A    between atoms: C_2  and  N_3
REMARK    3  A    between atoms: N_3  and  C_4
REMARK    4  A    between atoms: N_3  and  C_18
REMARK    5  A    between atoms: C_4  and  C_5
REMARK    6  A    between atoms: N_7  and  C_8
REMARK    7  A    between atoms: C_11  and  N_14
REMARK    8  A    between atoms: C_15  and  C_17
REMARK    9  A    between atoms: C_18  and  C_19
REMARK   10  A    between atoms: N_21  and  C_22
REMARK   11  A    between atoms: C_24  and  C_27
REMARK   12  A    between atoms: C_28  and  C_35
REMARK   13  A    between atoms: C_30  and  C_34
REMARK   14  A    between atoms: C_32  and  C_33
REMARK                            x       y       z     vdW  Elec       q    Type
REMARK                         _______ _______ _______ _____ _____    ______ ____
ROOT
ATOM      1  N   UNL     1       3.485   2.052  -0.197  0.00  0.00    +0.391 N 
ATOM      2  H   UNL     1       3.222   2.714   0.641  0.00  0.00    -0.080 HD
ENDROOT
BRANCH   1   4
ATOM      3  C   UNL     1       2.580   3.956  -1.443  0.00  0.00    -0.017 C 
ATOM      4  C   UNL     1       3.672   2.886  -1.391  0.00  0.00    -0.081 C 
ENDBRANCH   1   4
BRANCH   1   5
ATOM      5  C   UNL     1       2.379   1.103  -0.386  0.00  0.00    +0.020 C 
BRANCH   5   6
ATOM      6  C   UNL     1       1.973   0.533   0.949  0.00  0.00    +0.201 C 
ATOM      7  O   UNL     1       2.471   0.962   1.968  0.00  0.00    -0.278 OA
ATOM      8  N   UNL     1       1.056  -0.453   1.009  0.00  0.00    -0.287 N 
ATOM      9  H   UNL     1       0.547  -0.788   0.093  0.00  0.00    +0.155 HD
BRANCH   8  10
ATOM     10  C   UNL     1       0.752  -1.053   2.238  0.00  0.00    +0.033 A 
ATOM     11  C   UNL     1       0.450  -2.407   2.294  0.00  0.00    +0.025 A 
ATOM     12  C   UNL     1       0.156  -2.999   3.506  0.00  0.00    +0.025 A 
ATOM     13  C   UNL     1       0.151  -2.237   4.668  0.00  0.00    +0.033 A 
ATOM     14  C   UNL     1       0.447  -0.882   4.611  0.00  0.00    +0.025 A 
ATOM     15  C   UNL     1       0.747  -0.291   3.399  0.00  0.00    +0.025 A 
BRANCH  13  16
ATOM     16  N   UNL     1      -0.153  -2.837   5.897  0.00  0.00    -0.286 N 
ATOM     17  C   UNL     1       0.207  -4.114   6.131  0.00  0.00    +0.214 C 
ATOM     18  O   UNL     1       0.875  -4.715   5.316  0.00  0.00    -0.276 OA
ATOM     19  C   UNL     1      -0.220  -4.796   7.405  0.00  0.00    +0.109 C 
ATOM     20  H   UNL     1      -0.685  -2.265   6.671  0.00  0.00    +0.155 HD
ENDBRANCH  13  16
ENDBRANCH   8  10
ENDBRANCH   5   6
ENDBRANCH   1   5
BRANCH   1  21
ATOM     21  C   UNL     1       4.726   1.350   0.155  0.00  0.00    +0.024 C 
BRANCH  21  22
ATOM     22  C   UNL     1       5.768   2.353   0.579  0.00  0.00    +0.232 C 
ATOM     23  O   UNL     1       5.502   3.537   0.587  0.00  0.00    -0.273 OA
ATOM     24  N   UNL     1       6.995   1.936   0.949  0.00  0.00    -0.188 NA
BRANCH  24  25
ATOM     25  C   UNL     1       7.955   2.861   1.340  0.00  0.00    +0.196 A 
ATOM     26  N   UNL     1       9.198   2.659   1.733  0.00  0.00    -0.221 NA
ATOM     27  C   UNL     1       9.985   3.668   2.074  0.00  0.00    +0.081 A 
ATOM     28  C   UNL     1       9.500   4.945   2.017  0.00  0.00    +0.077 A 
ATOM     29  S   UNL     1       7.836   4.642   1.436  0.00  0.00    -0.056 S 
BRANCH  27  30
ATOM     30  C   UNL     1      11.380   3.416   2.512  0.00  0.00    +0.007 A 
ATOM     31  C   UNL     1      12.435   4.105   1.917  0.00  0.00    -0.041 A 
ATOM     32  C   UNL     1      13.730   3.870   2.332  0.00  0.00    +0.007 A 
ATOM     33  C   UNL     1      13.982   2.945   3.330  0.00  0.00    -0.050 A 
ATOM     34  C   UNL     1      12.939   2.256   3.920  0.00  0.00    +0.007 A 
ATOM     35  C   UNL     1      11.640   2.486   3.517  0.00  0.00    -0.041 A 
ATOM     36  C   UNL     1      10.504   1.734   4.161  0.00  0.00    +0.044 C 
ATOM     37  C   UNL     1      15.399   2.689   3.775  0.00  0.00    +0.044 C 
ATOM     38  C   UNL     1      12.163   5.107   0.825  0.00  0.00    +0.044 C 
ENDBRANCH  27  30
ENDBRANCH  24  25
ENDBRANCH  21  22
ENDBRANCH   1  21
TORSDOF 9
