REMARK  Name = ZINC13036309
REMARK  1 active torsions:
REMARK  status: ('A' for Active; 'I' for Inactive)
REMARK    1  A    between atoms: C_20  and  C_23
REMARK                            x       y       z     vdW  Elec       q    Type
REMARK                         _______ _______ _______ _____ _____    ______ ____
ROOT
ATOM      1  C   UNL     1      -0.017   1.379   0.010  0.00  0.00    +0.001 A 
ATOM      2  C   UNL     1       1.173   2.083   0.002  0.00  0.00    +0.004 A 
ATOM      3  C   UNL     1       2.378   1.411  -0.020  0.00  0.00    +0.046 A 
ATOM      4  C   UNL     1       2.406   0.020  -0.031  0.00  0.00    +0.128 A 
ATOM      5  C   UNL     1       1.204  -0.680  -0.011  0.00  0.00    +0.014 A 
ATOM      6  C   UNL     1       0.002  -0.004   0.002  0.00  0.00    +0.009 A 
ATOM      7  C   UNL     1       1.248  -2.178   0.015  0.00  0.00    +0.119 C 
ATOM      8  C   UNL     1       0.249  -2.853  -0.949  0.00  0.00    +0.078 C 
ATOM      9  C   UNL     1       1.055  -4.093  -1.348  0.00  0.00    +0.028 C 
ATOM     10  C   UNL     1       0.542  -5.278  -1.887  0.00  0.00    -0.007 C 
ATOM     11  C   UNL     1      -0.846  -5.407  -2.116  0.00  0.00    +0.013 C 
ATOM     12  C   UNL     1      -1.342  -6.557  -2.639  0.00  0.00    +0.051 C 
ATOM     13  C   UNL     1      -0.474  -7.620  -2.954  0.00  0.00    +0.179 C 
ATOM     14  O   UNL     1      -0.923  -8.657  -3.425  0.00  0.00    -0.288 OA
ATOM     15  C   UNL     1       0.910  -7.493  -2.727  0.00  0.00    +0.051 C 
ATOM     16  C   UNL     1       1.411  -6.344  -2.209  0.00  0.00    +0.013 C 
ATOM     17  N   UNL     1       2.361  -3.829  -1.082  0.00  0.00    -0.277 N 
ATOM     18  N   UNL     1       2.513  -2.561  -0.672  0.00  0.00    -0.179 NA
ATOM     19  C   UNL     1       3.655  -2.041   0.036  0.00  0.00    +0.294 C 
ATOM     20  O   UNL     1       3.611  -0.608  -0.071  0.00  0.00    -0.468 OA
ATOM     21  H   UNL     1       3.084  -4.470  -1.165  0.00  0.00    +0.166 HD
ENDROOT
BRANCH  19  22
ATOM     22  C   UNL     1       4.924  -2.565  -0.584  0.00  0.00    +0.013 A 
ATOM     23  C   UNL     1       4.963  -2.856  -1.935  0.00  0.00    +0.012 A 
ATOM     24  C   UNL     1       6.125  -3.336  -2.509  0.00  0.00    +0.050 A 
ATOM     25  C   UNL     1       7.255  -3.527  -1.731  0.00  0.00    +0.166 A 
ATOM     26  C   UNL     1       7.216  -3.234  -0.370  0.00  0.00    +0.167 A 
ATOM     27  C   UNL     1       6.050  -2.748   0.198  0.00  0.00    +0.058 A 
ATOM     28  O   UNL     1       8.441  -3.504   0.170  0.00  0.00    -0.453 OA
ATOM     29  C   UNL     1       9.105  -4.349  -0.789  0.00  0.00    +0.466 C 
ATOM     30  O   UNL     1       8.504  -3.981  -2.044  0.00  0.00    -0.453 OA
ENDBRANCH  19  22
TORSDOF 1
