REMARK  Name = ZINC63209272
REMARK  4 active torsions:
REMARK  status: ('A' for Active; 'I' for Inactive)
REMARK    1  A    between atoms: C_3  and  N_21
REMARK    2  A    between atoms: C_4  and  N_8
REMARK    3  A    between atoms: N_8  and  S_9
REMARK    4  A    between atoms: S_9  and  C_12
REMARK                            x       y       z     vdW  Elec       q    Type
REMARK                         _______ _______ _______ _____ _____    ______ ____
ROOT
ATOM      1  S   UNL     1       3.644  -2.316  -0.046  0.00  0.00    +0.097 S 
ATOM      2  O   UNL     1       3.111  -2.736   1.202  0.00  0.00    -0.148 OA
ATOM      3  O   UNL     1       3.086  -2.723  -1.288  0.00  0.00    -0.148 OA
ENDROOT
BRANCH   1   4
ATOM      4  C   UNL     1       5.334  -2.815  -0.066  0.00  0.00    +0.180 A 
ATOM      5  C   UNL     1       5.987  -2.999  -1.273  0.00  0.00    +0.156 A 
ATOM      6  C   UNL     1       7.314  -3.392  -1.289  0.00  0.00    +0.078 A 
ATOM      7  C   UNL     1       7.989  -3.599  -0.098  0.00  0.00    +0.129 A 
ATOM      8  C   UNL     1       7.336  -3.414   1.109  0.00  0.00    +0.078 A 
ATOM      9  C   UNL     1       6.010  -3.018   1.125  0.00  0.00    +0.156 A 
ATOM     10  F   UNL     1       5.374  -2.833   2.302  0.00  0.00    -0.203 F 
ATOM     11  F   UNL     1       9.284  -3.982  -0.113  0.00  0.00    -0.205 F 
ATOM     12  F   UNL     1       5.329  -2.797  -2.435  0.00  0.00    -0.203 F 
ENDBRANCH   1   4
BRANCH   1  13
ATOM     13  N   UNL     1       3.623  -0.660  -0.037  0.00  0.00    -0.096 NA
BRANCH  13  17
ATOM     14  C   UNL     1      -0.017   1.380   0.010  0.00  0.00    +0.040 A 
ATOM     15  C   UNL     1       1.170   2.091   0.002  0.00  0.00    +0.027 A 
ATOM     16  C   UNL     1       2.381   1.419  -0.013  0.00  0.00    +0.050 A 
ATOM     17  C   UNL     1       2.401   0.024  -0.021  0.00  0.00    +0.098 A 
ATOM     18  C   UNL     1       1.209  -0.683  -0.013  0.00  0.00    +0.067 A 
ATOM     19  C   UNL     1       0.002  -0.004   0.002  0.00  0.00    +0.125 A 
ATOM     20  F   UNL     1      -1.159  -0.694   0.010  0.00  0.00    -0.205 F 
BRANCH  16  21
ATOM     21  N   UNL     1       3.584   2.138  -0.022  0.00  0.00    -0.356 N 
ATOM     22  H   UNL     1       3.569   3.108  -0.017  0.00  0.00    +0.142 HD
ATOM     23  H   UNL     1       4.431   1.667  -0.033  0.00  0.00    +0.142 HD
ENDBRANCH  16  21
ENDBRANCH  13  17
ENDBRANCH   1  13
TORSDOF 4
