REMARK  Name = ZINC35674529
REMARK  12 active torsions:
REMARK  status: ('A' for Active; 'I' for Inactive)
REMARK    1  A    between atoms: C_1  and  C_2
REMARK    2  A    between atoms: C_2  and  C_3
REMARK    3  A    between atoms: C_3  and  C_5
REMARK    4  A    between atoms: C_3  and  N_28
REMARK    5  A    between atoms: C_9  and  O_26
REMARK    6  A    between atoms: C_10  and  O_24
REMARK    7  A    between atoms: N_15  and  C_16
REMARK    8  A    between atoms: C_16  and  C_17
REMARK    9  A    between atoms: C_22  and  C_23
REMARK   10  A    between atoms: O_24  and  C_25
REMARK   11  A    between atoms: O_26  and  C_27
REMARK   12  A    between atoms: C_29  and  C_31
REMARK                            x       y       z     vdW  Elec       q    Type
REMARK                         _______ _______ _______ _____ _____    ______ ____
ROOT
ATOM      1  C   UNL     1      -1.247  -1.546  -0.259  0.00  0.00    -0.016 C 
ATOM      2  C   UNL     1      -2.745  -1.700  -0.291  0.00  0.00    -0.052 A 
ATOM      3  C   UNL     1      -3.517  -0.592  -0.609  0.00  0.00    +0.051 A 
ATOM      4  C   UNL     1      -4.896  -0.690  -0.653  0.00  0.00    +0.162 A 
ATOM      5  C   UNL     1      -5.512  -1.907  -0.376  0.00  0.00    +0.162 A 
ATOM      6  C   UNL     1      -4.738  -3.009  -0.058  0.00  0.00    +0.053 A 
ATOM      7  C   UNL     1      -3.356  -2.905  -0.015  0.00  0.00    -0.044 A 
ATOM      8  C   UNL     1      -2.552  -4.129   0.344  0.00  0.00    +0.017 C 
ATOM      9  C   UNL     1      -1.089  -3.922  -0.049  0.00  0.00    -0.073 C 
ATOM     10  N   UNL     1      -0.633  -2.637   0.503  0.00  0.00    +0.388 N 
ATOM     11  H   UNL     1      -0.908  -2.569   1.472  0.00  0.00    -0.080 HD
ENDROOT
BRANCH   5  12
ATOM     12  O   UNL     1      -6.867  -2.013  -0.418  0.00  0.00    -0.491 OA
ATOM     13  C   UNL     1      -7.427  -3.294  -0.122  0.00  0.00    +0.277 C 
ENDBRANCH   5  12
BRANCH   4  14
ATOM     14  O   UNL     1      -5.648   0.400  -0.967  0.00  0.00    -0.491 OA
ATOM     15  C   UNL     1      -4.947   1.615  -1.239  0.00  0.00    +0.277 C 
ENDBRANCH   4  14
BRANCH   1  16
ATOM     16  C   UNL     1      -0.892  -0.210   0.398  0.00  0.00    +0.064 C 
BRANCH  16  17
ATOM     17  N   UNL     1       0.423   0.231  -0.074  0.00  0.00    -0.310 N 
ATOM     18  C   UNL     1       0.598   1.500  -0.494  0.00  0.00    +0.244 C 
ATOM     19  O   UNL     1      -0.336   2.278  -0.480  0.00  0.00    -0.270 OA
ATOM     20  H   UNL     1       1.168  -0.391  -0.085  0.00  0.00    +0.149 HD
BRANCH  18  21
ATOM     21  C   UNL     1       1.923   1.944  -0.969  0.00  0.00    +0.040 A 
ATOM     22  C   UNL     1       2.995   1.049  -0.991  0.00  0.00    +0.017 A 
ATOM     23  C   UNL     1       4.231   1.466  -1.436  0.00  0.00    +0.050 A 
ATOM     24  C   UNL     1       4.415   2.774  -1.863  0.00  0.00    +0.166 A 
ATOM     25  C   UNL     1       3.348   3.672  -1.844  0.00  0.00    +0.167 A 
ATOM     26  C   UNL     1       2.106   3.259  -1.404  0.00  0.00    +0.062 A 
ATOM     27  O   UNL     1       3.787   4.879  -2.309  0.00  0.00    -0.453 OA
ATOM     28  C   UNL     1       5.223   4.823  -2.227  0.00  0.00    +0.466 C 
ATOM     29  O   UNL     1       5.518   3.418  -2.341  0.00  0.00    -0.453 OA
ENDBRANCH  18  21
ENDBRANCH  16  17
BRANCH  16  31
ATOM     30  C   UNL     1      -0.747   0.991   2.583  0.00  0.00    +0.005 C 
ATOM     31  C   UNL     1      -0.857  -0.382   1.917  0.00  0.00    +0.017 C 
ENDBRANCH  16  31
ENDBRANCH   1  16
BRANCH  10  32
ATOM     32  C   UNL     1       0.829  -2.549   0.397  0.00  0.00    -0.042 C 
BRANCH  32  33
ATOM     33  C   UNL     1       1.247  -2.824  -1.024  0.00  0.00    -0.061 A 
ATOM     34  C   UNL     1       1.546  -1.774  -1.873  0.00  0.00    +0.002 A 
ATOM     35  C   UNL     1       1.929  -2.026  -3.176  0.00  0.00    +0.000 A 
ATOM     36  C   UNL     1       2.015  -3.329  -3.632  0.00  0.00    +0.000 A 
ATOM     37  C   UNL     1       1.718  -4.378  -2.784  0.00  0.00    +0.003 A 
ATOM     38  C   UNL     1       1.338  -4.126  -1.478  0.00  0.00    -0.049 A 
ATOM     39  C   UNL     1       1.019  -5.271  -0.552  0.00  0.00    +0.044 C 
ENDBRANCH  32  33
ENDBRANCH  10  32
TORSDOF 8
