REMARK  Name = ZINC04942653
REMARK  3 active torsions:
REMARK  status: ('A' for Active; 'I' for Inactive)
REMARK    1  A    between atoms: C_1  and  C_2
REMARK    2  A    between atoms: C_3  and  C_14
REMARK    3  A    between atoms: N_6  and  C_7
REMARK                            x       y       z     vdW  Elec       q    Type
REMARK                         _______ _______ _______ _____ _____    ______ ____
ROOT
ATOM      1  C   UNL     1       7.085  -1.220  -0.908  0.00  0.00    +0.269 C 
ATOM      2  O   UNL     1       5.958  -1.193  -0.450  0.00  0.00    -0.268 OA
ATOM      3  N   UNL     1       7.884  -2.279  -0.670  0.00  0.00    -0.295 N 
ATOM      4  C   UNL     1       9.268  -2.298  -1.156  0.00  0.00    +0.113 C 
ATOM      5  C   UNL     1       9.556  -3.590  -1.896  0.00  0.00    +0.027 C 
ATOM      6  C   UNL     1       9.117  -4.806  -1.080  0.00  0.00    +0.018 C 
ATOM      7  C   UNL     1       7.616  -4.685  -0.806  0.00  0.00    +0.054 C 
ATOM      8  C   UNL     1       7.385  -3.445   0.076  0.00  0.00    +0.117 C 
ATOM      9  C   UNL     1       6.875  -4.468  -2.105  0.00  0.00    +0.027 A 
ATOM     10  C   UNL     1       5.571  -4.851  -2.151  0.00  0.00    +0.022 A 
ATOM     11  C   UNL     1       4.802  -4.626  -3.297  0.00  0.00    +0.007 A 
ATOM     12  C   UNL     1       5.376  -3.995  -4.362  0.00  0.00    +0.070 A 
ATOM     13  C   UNL     1       6.723  -3.614  -4.283  0.00  0.00    +0.251 A 
ATOM     14  O   UNL     1       7.232  -3.006  -5.210  0.00  0.00    -0.268 OA
ATOM     15  N   UNL     1       7.466  -3.912  -3.188  0.00  0.00    -0.312 N 
ATOM     16  C   UNL     1       8.898  -3.622  -3.263  0.00  0.00    +0.130 C 
ENDROOT
BRANCH   1  19
ATOM     17  C   UNL     1       5.378   1.227  -1.844  0.00  0.00    +0.068 C 
ATOM     18  C   UNL     1       6.835   0.978  -2.134  0.00  0.00    +0.074 A 
ATOM     19  C   UNL     1       7.577  -0.093  -1.723  0.00  0.00    +0.170 A 
ATOM     20  N   UNL     1       8.830   0.054  -2.186  0.00  0.00    -0.124 NA
ATOM     21  N   UNL     1       8.915   1.145  -2.864  0.00  0.00    -0.060 NA
ATOM     22  N   UNL     1       7.660   1.772  -2.851  0.00  0.00    -0.216 N 
BRANCH  22  23
ATOM     23  C   UNL     1       7.326   2.986  -3.469  0.00  0.00    +0.067 A 
ATOM     24  C   UNL     1       8.256   4.014  -3.530  0.00  0.00    +0.029 A 
ATOM     25  C   UNL     1       7.924   5.209  -4.139  0.00  0.00    +0.022 A 
ATOM     26  C   UNL     1       6.666   5.380  -4.688  0.00  0.00    +0.041 A 
ATOM     27  C   UNL     1       5.737   4.356  -4.629  0.00  0.00    +0.022 A 
ATOM     28  C   UNL     1       6.064   3.160  -4.021  0.00  0.00    +0.029 A 
ATOM     29 CL   UNL     1       6.249   6.885  -5.447  0.00  0.00    -0.084 Cl
ENDBRANCH  22  23
ENDBRANCH   1  19
TORSDOF 2
