REMARK  Name = ZINC39908920
REMARK  5 active torsions:
REMARK  status: ('A' for Active; 'I' for Inactive)
REMARK    1  A    between atoms: C_1  and  N_2
REMARK    2  A    between atoms: C_3  and  C_19
REMARK    3  A    between atoms: C_22  and  O_27
REMARK    4  A    between atoms: C_23  and  O_25
REMARK    5  A    between atoms: O_25  and  C_26
REMARK                            x       y       z     vdW  Elec       q    Type
REMARK                         _______ _______ _______ _____ _____    ______ ____
ROOT
ATOM      1  C   UNL     1      -0.018   1.461   0.010  0.00  0.00    +0.133 C 
ATOM      2  N   UNL     1       0.002  -0.004   0.002  0.00  0.00    -0.287 N 
ATOM      3  C   UNL     1      -1.177  -0.885   0.003  0.00  0.00    +0.144 C 
ATOM      4  C   UNL     1      -0.644  -2.280  -0.005  0.00  0.00    +0.072 A 
ATOM      5  C   UNL     1      -1.329  -3.577   0.002  0.00  0.00    +0.199 A 
ATOM      6  O   UNL     1      -2.530  -3.697  -0.161  0.00  0.00    -0.287 OA
ATOM      7  C   UNL     1      -0.419  -4.728   0.226  0.00  0.00    +0.065 A 
ATOM      8  C   UNL     1      -0.937  -6.003   0.458  0.00  0.00    +0.030 A 
ATOM      9  C   UNL     1      -0.078  -7.059   0.669  0.00  0.00    +0.019 A 
ATOM     10  C   UNL     1       1.296  -6.853   0.651  0.00  0.00    +0.019 A 
ATOM     11  C   UNL     1       1.818  -5.600   0.422  0.00  0.00    +0.048 A 
ATOM     12  C   UNL     1       0.969  -4.515   0.203  0.00  0.00    +0.140 A 
ATOM     13  O   UNL     1       1.509  -3.297  -0.029  0.00  0.00    -0.450 OA
ATOM     14  C   UNL     1       0.720  -2.204  -0.014  0.00  0.00    +0.199 A 
ATOM     15  C   UNL     1       1.104  -0.782  -0.013  0.00  0.00    +0.283 C 
ATOM     16  O   UNL     1       2.247  -0.369  -0.022  0.00  0.00    -0.267 OA
ATOM     17 BR   UNL     1      -0.769  -8.790   0.984  0.00  0.00    -0.050 Br
ENDROOT
BRANCH   3  18
ATOM     18  C   UNL     1      -2.010  -0.639  -1.229  0.00  0.00    -0.019 A 
ATOM     19  C   UNL     1      -1.393  -0.400  -2.442  0.00  0.00    +0.009 A 
ATOM     20  C   UNL     1      -2.153  -0.173  -3.575  0.00  0.00    +0.049 A 
ATOM     21  C   UNL     1      -3.537  -0.187  -3.495  0.00  0.00    +0.158 A 
ATOM     22  C   UNL     1      -4.158  -0.429  -2.274  0.00  0.00    +0.162 A 
ATOM     23  C   UNL     1      -3.390  -0.659  -1.143  0.00  0.00    +0.055 A 
BRANCH  22  24
ATOM     24  O   UNL     1      -5.515  -0.443  -2.190  0.00  0.00    -0.491 OA
ATOM     25  C   UNL     1      -6.083  -0.698  -0.904  0.00  0.00    +0.277 C 
ENDBRANCH  22  24
BRANCH  21  26
ATOM     26  O   UNL     1      -4.286   0.036  -4.608  0.00  0.00    -0.503 OA
ATOM     27  H   UNL     1      -4.504  -0.766  -5.103  0.00  0.00    +0.292 HD
ENDBRANCH  21  26
ENDBRANCH   3  18
TORSDOF 3
