REMARK  Name = ZINC39774495
REMARK  12 active torsions:
REMARK  status: ('A' for Active; 'I' for Inactive)
REMARK    1  A    between atoms: C_1  and  O_2
REMARK    2  A    between atoms: O_2  and  C_3
REMARK    3  A    between atoms: C_7  and  C_10
REMARK    4  A    between atoms: C_8  and  O_9
REMARK    5  A    between atoms: N_11  and  N_12
REMARK    6  A    between atoms: N_12  and  C_13
REMARK    7  A    between atoms: C_19  and  N_23
REMARK    8  A    between atoms: N_24  and  C1*_25
REMARK    9  A    between atoms: C2*_27  and  O2*_37
REMARK   10  A    between atoms: C3*_29  and  O3*_36
REMARK   11  A    between atoms: C4*_31  and  C5*_34
REMARK   12  A    between atoms: C5*_34  and  O5*_35
REMARK                            x       y       z     vdW  Elec       q    Type
REMARK                         _______ _______ _______ _____ _____    ______ ____
ROOT
ATOM      1  C   UNL     1      -0.306  -7.036  -0.004  0.00  0.00    +0.302 C 
ATOM      2  N   UNL     1       0.080  -7.348  -1.385  0.00  0.00    -0.233 NA
ATOM      3  C   UNL     1       0.092  -8.628  -1.533  0.00  0.00    +0.166 C 
ATOM      4  C   UNL     1      -0.286  -9.291  -0.258  0.00  0.00    +0.160 C 
ATOM      5  N   UNL     1      -0.324 -10.607  -0.230  0.00  0.00    -0.198 NA
ATOM      6  C   UNL     1      -0.035 -11.339  -1.307  0.00  0.00    +0.226 C 
ATOM      7  N   UNL     1       0.311 -10.842  -2.480  0.00  0.00    -0.141 NA
ATOM      8  C   UNL     1       0.400  -9.523  -2.688  0.00  0.00    +0.292 C 
ATOM      9  O   UNL     1       0.719  -9.071  -3.773  0.00  0.00    -0.266 OA
ATOM     10  N   UNL     1      -0.528  -8.322   0.672  0.00  0.00    -0.246 N 
ENDROOT
BRANCH  10  11
ATOM     11  C1* UNL     1      -0.928  -8.523   2.067  0.00  0.00    +0.242 C 
ATOM     12  C2* UNL     1      -2.317  -9.207   2.135  0.00  0.00    +0.193 C 
ATOM     13  C3* UNL     1      -2.244  -9.884   3.531  0.00  0.00    +0.178 C 
ATOM     14  C4* UNL     1      -0.752 -10.266   3.633  0.00  0.00    +0.177 C 
ATOM     15  O4* UNL     1      -0.027  -9.432   2.719  0.00  0.00    -0.348 OA
BRANCH  13  16
ATOM     16  O3* UNL     1      -2.609  -8.963   4.561  0.00  0.00    -0.386 OA
ATOM     17  H3* UNL     1      -2.579  -9.338   5.452  0.00  0.00    +0.210 HD
ENDBRANCH  13  16
BRANCH  12  18
ATOM     18  O2* UNL     1      -3.370  -8.243   2.083  0.00  0.00    -0.385 OA
ATOM     19  H2* UNL     1      -4.256  -8.626   2.122  0.00  0.00    +0.210 HD
ENDBRANCH  12  18
BRANCH  14  20
ATOM     20  C5* UNL     1      -0.251 -10.029   5.059  0.00  0.00    +0.190 C 
BRANCH  20  21
ATOM     21  O5* UNL     1       1.095 -10.493   5.175  0.00  0.00    -0.392 OA
ATOM     22  H5* UNL     1       1.478 -10.374   6.055  0.00  0.00    +0.210 HD
ENDBRANCH  20  21
ENDBRANCH  14  20
ENDBRANCH  10  11
BRANCH   1  23
ATOM     23  N   UNL     1      -1.539  -6.245   0.006  0.00  0.00    -0.229 N 
ATOM     24  H   UNL     1      -2.401  -6.690   0.011  0.00  0.00    +0.172 HD
BRANCH  23  26
ATOM     25  C   UNL     1      -2.566  -4.145   0.015  0.00  0.00    +0.141 C 
ATOM     26  N   UNL     1      -1.474  -4.845   0.007  0.00  0.00    -0.191 NA
BRANCH  25  31
ATOM     27  C   UNL     1      -1.201  -0.638   0.010  0.00  0.00    +0.162 A 
ATOM     28  C   UNL     1      -2.374   0.101   0.019  0.00  0.00    +0.049 A 
ATOM     29  C   UNL     1      -3.602  -0.537   0.027  0.00  0.00    +0.004 A 
ATOM     30  C   UNL     1      -3.671  -1.914   0.026  0.00  0.00    +0.013 A 
ATOM     31  C   UNL     1      -2.497  -2.672   0.016  0.00  0.00    +0.040 A 
ATOM     32  C   UNL     1      -1.255  -2.026   0.003  0.00  0.00    +0.167 A 
BRANCH  27  34
ATOM     33  C   UNL     1      -0.017   1.425   0.010  0.00  0.00    +0.277 C 
ATOM     34  O   UNL     1       0.002  -0.004   0.002  0.00  0.00    -0.491 OA
ENDBRANCH  27  34
BRANCH  32  35
ATOM     35  O   UNL     1      -0.107  -2.754  -0.011  0.00  0.00    -0.503 OA
ATOM     36  H   UNL     1       0.233  -2.969   0.868  0.00  0.00    +0.292 HD
ENDBRANCH  32  35
ENDBRANCH  25  31
ENDBRANCH  23  26
ENDBRANCH   1  23
BRANCH   6  37
ATOM     37  N   UNL     1      -0.100 -12.703  -1.186  0.00  0.00    -0.234 NA
ATOM     38  H   UNL     1       0.104 -13.267  -1.948  0.00  0.00    +0.173 HD
ENDBRANCH   6  37
TORSDOF 11
