REMARK  Name = ZINC05945443
REMARK  4 active torsions:
REMARK  status: ('A' for Active; 'I' for Inactive)
REMARK    1  A    between atoms: C_12  and  C_20
REMARK    2  A    between atoms: C_14  and  C_18
REMARK    3  A    between atoms: C_15  and  N_17
REMARK    4  A    between atoms: C_23  and  C_26
REMARK                            x       y       z     vdW  Elec       q    Type
REMARK                         _______ _______ _______ _____ _____    ______ ____
ROOT
ATOM      1  C   UNL     1       4.688   2.139  -3.539  0.00  0.00    +0.015 A 
ATOM      2  C   UNL     1       5.031   2.663  -2.328  0.00  0.00    +0.047 A 
ATOM      3  C   UNL     1       4.322   2.314  -1.176  0.00  0.00    +0.138 A 
ATOM      4  C   UNL     1       3.260   1.431  -1.252  0.00  0.00    +0.050 A 
ATOM      5  C   UNL     1       2.895   0.887  -2.478  0.00  0.00    +0.147 A 
ATOM      6  C   UNL     1       3.616   1.244  -3.631  0.00  0.00    +0.018 A 
ATOM      7  C   UNL     1       3.226   0.668  -4.920  0.00  0.00    +0.018 A 
ATOM      8  C   UNL     1       2.173  -0.192  -4.935  0.00  0.00    +0.092 A 
ATOM      9  C   UNL     1       1.506  -0.497  -3.733  0.00  0.00    +0.337 A 
ATOM     10  O   UNL     1       0.566  -1.271  -3.767  0.00  0.00    -0.245 OA
ATOM     11  O   UNL     1       1.860   0.027  -2.554  0.00  0.00    -0.422 OA
ATOM     12  C   UNL     1       2.490   1.048  -0.016  0.00  0.00    +0.101 C 
ATOM     13  C   UNL     1       3.275   1.403   1.216  0.00  0.00    +0.098 C 
ATOM     14  C   UNL     1       4.312   2.271   1.161  0.00  0.00    +0.199 C 
ATOM     15  O   UNL     1       4.690   2.855   0.011  0.00  0.00    -0.441 OA
ENDROOT
BRANCH  12  16
ATOM     16  C   UNL     1       1.175   1.783   0.000  0.00  0.00    -0.035 A 
ATOM     17  C   UNL     1      -0.013   1.076   0.008  0.00  0.00    +0.005 A 
ATOM     18  C   UNL     1      -1.219   1.751   0.017  0.00  0.00    +0.012 A 
ATOM     19  C   UNL     1      -1.238   3.133   0.030  0.00  0.00    +0.055 A 
ATOM     20  C   UNL     1      -0.050   3.840   0.022  0.00  0.00    +0.012 A 
ATOM     21  C   UNL     1       1.156   3.165   0.008  0.00  0.00    +0.005 A 
BRANCH  19  22
ATOM     22  C   UNL     1      -2.553   3.869   0.045  0.00  0.00    +0.417 C 
ATOM     23  F   UNL     1      -2.972   4.102  -1.269  0.00  0.00    -0.166 F 
ATOM     24  F   UNL     1      -3.511   3.096   0.710  0.00  0.00    -0.166 F 
ATOM     25  F   UNL     1      -2.396   5.090   0.709  0.00  0.00    -0.166 F 
ENDBRANCH  19  22
ENDBRANCH  12  16
BRANCH  14  26
ATOM     26  N   UNL     1       4.998   2.564   2.313  0.00  0.00    -0.328 N 
ATOM     27  H   UNL     1       5.743   3.185   2.290  0.00  0.00    +0.145 HD
ATOM     28  H   UNL     1       4.737   2.151   3.151  0.00  0.00    +0.145 HD
ENDBRANCH  14  26
BRANCH  13  29
ATOM     29  C   UNL     1       2.918   0.812   2.471  0.00  0.00    +0.101 C 
ATOM     30  N   UNL     1       2.635   0.344   3.466  0.00  0.00    -0.191 NA
ENDBRANCH  13  29
TORSDOF 4
