REMARK  Name = ZINC09058956
REMARK  7 active torsions:
REMARK  status: ('A' for Active; 'I' for Inactive)
REMARK    1  A    between atoms: C_1  and  C_2
REMARK    2  A    between atoms: C_12  and  C_20
REMARK    3  A    between atoms: N_22  and  C_23
REMARK    4  A    between atoms: C_25  and  O_31
REMARK    5  A    between atoms: C_28  and  O_29
REMARK    6  A    between atoms: O_29  and  C_30
REMARK    7  A    between atoms: O_31  and  C_32
REMARK                            x       y       z     vdW  Elec       q    Type
REMARK                         _______ _______ _______ _____ _____    ______ ____
ROOT
ATOM      1  C   UNL     1       1.267  -1.881   0.162  0.00  0.00    +0.046 C 
ATOM      2  C   UNL     1       1.322  -0.377   0.076  0.00  0.00    -0.028 A 
ATOM      3  C   UNL     1       0.154   0.357   0.109  0.00  0.00    +0.025 A 
ATOM      4  C   UNL     1       0.193   1.738   0.030  0.00  0.00    +0.042 A 
ATOM      5  C   UNL     1       1.412   2.386  -0.083  0.00  0.00    +0.024 A 
ATOM      6  C   UNL     1       2.579   1.656  -0.115  0.00  0.00    -0.026 A 
ATOM      7  C   UNL     1       2.551   0.268  -0.037  0.00  0.00    +0.039 A 
ATOM      8  N   UNL     1       3.849  -0.245  -0.090  0.00  0.00    -0.286 N 
ATOM      9  C   UNL     1       4.774   0.726  -0.201  0.00  0.00    +0.212 C 
ATOM     10  O   UNL     1       5.976   0.575  -0.267  0.00  0.00    -0.277 OA
ATOM     11  C   UNL     1       4.031   2.037  -0.226  0.00  0.00    +0.052 C 
ATOM     12  C   UNL     1       4.304   2.797  -1.527  0.00  0.00    +0.076 C 
ATOM     13  C   UNL     1       5.283   3.924  -1.145  0.00  0.00    -0.003 C 
ATOM     14  C   UNL     1       5.538   3.766   0.364  0.00  0.00    -0.066 C 
ATOM     15  C   UNL     1       3.349   3.831   1.262  0.00  0.00    -0.077 C 
ATOM     16  C   UNL     1       4.105   5.016   1.914  0.00  0.00    -0.020 C 
ATOM     17  C   UNL     1       5.373   5.141   1.040  0.00  0.00    -0.017 C 
ATOM     18 CL   UNL     1      -1.281   2.654   0.064  0.00  0.00    -0.084 Cl
ATOM     19  H   UNL     1       4.059  -1.191  -0.051  0.00  0.00    +0.155 HD
ATOM     20  N   UNL     1       4.457   2.938   0.861  0.00  0.00    +0.394 N 
ATOM     21  H   UNL     1       4.770   2.386   1.668  0.00  0.00    -0.079 HD
ENDROOT
BRANCH  12  22
ATOM     22  C   UNL     1       3.025   3.379  -2.070  0.00  0.00    +0.220 C 
ATOM     23  O   UNL     1       2.725   4.526  -1.817  0.00  0.00    -0.275 OA
ATOM     24  N   UNL     1       2.213   2.624  -2.837  0.00  0.00    -0.282 N 
ATOM     25  H   UNL     1       2.409   1.683  -2.971  0.00  0.00    +0.155 HD
BRANCH  24  26
ATOM     26  C   UNL     1       1.087   3.198  -3.441  0.00  0.00    +0.079 A 
ATOM     27  C   UNL     1       1.006   4.574  -3.595  0.00  0.00    +0.072 A 
ATOM     28  C   UNL     1      -0.107   5.138  -4.198  0.00  0.00    +0.122 A 
ATOM     29  C   UNL     1      -1.145   4.329  -4.636  0.00  0.00    +0.049 A 
ATOM     30  C   UNL     1      -1.070   2.958  -4.479  0.00  0.00    +0.051 A 
ATOM     31  C   UNL     1       0.043   2.388  -3.882  0.00  0.00    +0.141 A 
BRANCH  31  32
ATOM     32  O   UNL     1       0.116   1.038  -3.728  0.00  0.00    -0.493 OA
ATOM     33  C   UNL     1      -0.990   0.269  -4.203  0.00  0.00    +0.277 C 
ENDBRANCH  31  32
BRANCH  28  34
ATOM     34  O   UNL     1      -0.185   6.487  -4.355  0.00  0.00    -0.495 OA
ATOM     35  C   UNL     1      -1.363   7.001  -4.978  0.00  0.00    +0.277 C 
ENDBRANCH  28  34
ENDBRANCH  24  26
ENDBRANCH  12  22
TORSDOF 4
