REMARK  Name = ZINC12401698
REMARK  9 active torsions:
REMARK  status: ('A' for Active; 'I' for Inactive)
REMARK    1  A    between atoms: C_1  and  C_2
REMARK    2  A    between atoms: C_2  and  C_3
REMARK    3  A    between atoms: C_2  and  S_4
REMARK    4  A    between atoms: S_4  and  C_5
REMARK    5  A    between atoms: C_13  and  C_20
REMARK    6  A    between atoms: C_15  and  C_18
REMARK    7  A    between atoms: C_16  and  N_17
REMARK    8  A    between atoms: C_33  and  C_35
REMARK    9  A    between atoms: C_33  and  C_36
REMARK                            x       y       z     vdW  Elec       q    Type
REMARK                         _______ _______ _______ _____ _____    ______ ____
ROOT
ATOM      1  C   UNL     1       2.601   6.163   2.435  0.00  0.00    +0.160 A 
ATOM      2  N   UNL     1       1.623   6.612   1.661  0.00  0.00    -0.133 NA
ATOM      3  N   UNL     1       0.431   6.222   1.799  0.00  0.00    -0.124 NA
ATOM      4  C   UNL     1       0.085   5.341   2.724  0.00  0.00    +0.194 A 
ATOM      5  S   UNL     1       1.677   5.049   3.489  0.00  0.00    -0.024 S 
ATOM      6  N   UNL     1      -1.164   4.801   3.021  0.00  0.00    -0.237 N 
ATOM      7  C   UNL     1      -1.554   3.626   2.432  0.00  0.00    +0.027 C 
ATOM      8  C   UNL     1      -2.543   2.881   2.971  0.00  0.00    +0.027 C 
ATOM      9  C   UNL     1      -3.241   3.317   4.235  0.00  0.00    +0.117 C 
ATOM     10  C   UNL     1      -3.011   4.775   4.506  0.00  0.00    +0.078 C 
ATOM     11  C   UNL     1      -1.998   5.450   3.905  0.00  0.00    +0.108 C 
ATOM     12  C   UNL     1      -2.949   1.675   2.374  0.00  0.00    +0.162 C 
ATOM     13  O   UNL     1      -3.856   1.038   2.874  0.00  0.00    -0.292 OA
ATOM     14  C   UNL     1      -2.282   1.154   1.131  0.00  0.00    +0.086 C 
ATOM     15  C   UNL     1      -0.837   1.663   1.091  0.00  0.00    -0.023 C 
ATOM     16  C   UNL     1      -0.855   3.191   1.168  0.00  0.00    +0.058 C 
ATOM     17  C   UNL     1      -0.173   1.222  -0.215  0.00  0.00    +0.011 C 
ATOM     18  C   UNL     1      -0.059   1.097   2.280  0.00  0.00    +0.011 C 
ENDROOT
BRANCH   9  19
ATOM     19  C   UNL     1      -2.714   2.511   5.394  0.00  0.00    +0.073 A 
ATOM     20  C   UNL     1      -1.546   2.917   6.043  0.00  0.00    +0.135 A 
ATOM     21  N   UNL     1      -1.071   2.232   7.059  0.00  0.00    -0.252 NA
ATOM     22  C   UNL     1      -1.706   1.129   7.469  0.00  0.00    +0.089 A 
ATOM     23  C   UNL     1      -1.220   0.371   8.549  0.00  0.00    +0.030 A 
ATOM     24  C   UNL     1      -1.888  -0.747   8.943  0.00  0.00    +0.002 A 
ATOM     25  C   UNL     1      -3.051  -1.155   8.291  0.00  0.00    +0.002 A 
ATOM     26  C   UNL     1      -3.551  -0.447   7.243  0.00  0.00    +0.030 A 
ATOM     27  C   UNL     1      -2.888   0.714   6.807  0.00  0.00    +0.090 A 
ATOM     28  N   UNL     1      -3.355   1.431   5.779  0.00  0.00    -0.248 NA
ENDBRANCH   9  19
BRANCH  11  29
ATOM     29  N   UNL     1      -1.803   6.783   4.178  0.00  0.00    -0.345 N 
ATOM     30  H   UNL     1      -2.440   7.262   4.730  0.00  0.00    +0.144 HD
ATOM     31  H   UNL     1      -1.029   7.244   3.818  0.00  0.00    +0.144 HD
ENDBRANCH  11  29
BRANCH  10  32
ATOM     32  C   UNL     1      -3.874   5.466   5.417  0.00  0.00    +0.099 C 
ATOM     33  N   UNL     1      -4.559   6.014   6.138  0.00  0.00    -0.191 NA
ENDBRANCH  10  32
BRANCH   1  34
ATOM     34  S   UNL     1       4.319   6.556   2.432  0.00  0.00    -0.094 S 
BRANCH  34  36
ATOM     35  C   UNL     1       3.720   9.035   1.442  0.00  0.00    +0.019 C 
ATOM     36  C   UNL     1       4.491   7.762   1.088  0.00  0.00    +0.047 C 
ATOM     37  C   UNL     1       5.970   8.099   0.892  0.00  0.00    +0.019 C 
ENDBRANCH  34  36
ENDBRANCH   1  34
TORSDOF 5
