REMARK  Name = ZINC35890990
REMARK  8 active torsions:
REMARK  status: ('A' for Active; 'I' for Inactive)
REMARK    1  A    between atoms: C_1  and  C_2
REMARK    2  A    between atoms: C_3  and  C_34
REMARK    3  A    between atoms: C_4  and  N_18
REMARK    4  A    between atoms: C_6  and  C_8
REMARK    5  A    between atoms: C_11  and  C_14
REMARK    6  A    between atoms: N_26  and  C_27
REMARK    7  A    between atoms: C_34  and  C_35
REMARK    8  A    between atoms: C_34  and  C_36
REMARK                            x       y       z     vdW  Elec       q    Type
REMARK                         _______ _______ _______ _____ _____    ______ ____
ROOT
ATOM      1  C   UNL     1      -1.501   1.897  -1.239  0.00  0.00    +0.064 C 
ATOM      2  C   UNL     1      -0.686   0.709  -0.796  0.00  0.00    +0.021 A 
ATOM      3  C   UNL     1      -0.360  -0.288  -1.695  0.00  0.00    +0.014 A 
ATOM      4  C   UNL     1       0.397  -1.372  -1.243  0.00  0.00    +0.129 A 
ATOM      5  N   UNL     1       0.775  -1.408   0.030  0.00  0.00    -0.214 NA
ATOM      6  C   UNL     1       0.441  -0.431   0.861  0.00  0.00    +0.140 A 
ATOM      7  N   UNL     1      -0.271   0.612   0.458  0.00  0.00    -0.343 N 
ATOM      8  H   UNL     1      -0.495   1.312   1.091  0.00  0.00    +0.167 HD
ENDROOT
BRANCH   4   9
ATOM      9  N   UNL     1       0.747  -2.395  -2.109  0.00  0.00    -0.312 N 
ATOM     10  C   UNL     1       2.053  -2.389  -2.784  0.00  0.00    +0.125 C 
ATOM     11  C   UNL     1       2.770  -3.709  -2.475  0.00  0.00    +0.128 C 
ATOM     12  N   UNL     1       1.843  -4.820  -2.735  0.00  0.00    -0.282 N 
ATOM     13  C   UNL     1       0.538  -4.825  -2.060  0.00  0.00    +0.128 C 
ATOM     14  C   UNL     1      -0.177  -3.508  -2.365  0.00  0.00    +0.125 C 
ATOM     15  C   UNL     1       2.184  -5.815  -3.578  0.00  0.00    +0.307 C 
ATOM     16  O   UNL     1       3.224  -5.752  -4.204  0.00  0.00    -0.252 OA
ATOM     17  N   UNL     1       1.371  -6.879  -3.727  0.00  0.00    -0.267 N 
ATOM     18  H   UNL     1       0.500  -6.888  -3.300  0.00  0.00    +0.156 HD
BRANCH  17  19
ATOM     19  C   UNL     1       1.784  -7.973  -4.499  0.00  0.00    +0.070 A 
ATOM     20  C   UNL     1       3.131  -8.161  -4.774  0.00  0.00    +0.026 A 
ATOM     21  C   UNL     1       3.536  -9.241  -5.535  0.00  0.00    +0.002 A 
ATOM     22  C   UNL     1       2.600 -10.134  -6.024  0.00  0.00    +0.003 A 
ATOM     23  C   UNL     1       1.257  -9.951  -5.753  0.00  0.00    +0.040 A 
ATOM     24  C   UNL     1       0.845  -8.876  -4.987  0.00  0.00    +0.145 A 
ATOM     25  F   UNL     1      -0.467  -8.700  -4.717  0.00  0.00    -0.204 F 
ENDBRANCH  17  19
ENDBRANCH   4   9
BRANCH   6  26
ATOM     26  C   UNL     1       0.880  -0.503   2.276  0.00  0.00    +0.017 A 
ATOM     27  C   UNL     1       0.535   0.510   3.168  0.00  0.00    +0.012 A 
ATOM     28  C   UNL     1       0.946   0.438   4.484  0.00  0.00    +0.013 A 
ATOM     29  C   UNL     1       1.698  -0.639   4.917  0.00  0.00    +0.055 A 
ATOM     30  C   UNL     1       2.044  -1.648   4.036  0.00  0.00    +0.013 A 
ATOM     31  C   UNL     1       1.634  -1.588   2.720  0.00  0.00    +0.012 A 
BRANCH  29  32
ATOM     32  C   UNL     1       2.144  -0.712   6.355  0.00  0.00    +0.417 C 
ATOM     33  F   UNL     1       1.177  -1.384   7.110  0.00  0.00    -0.166 F 
ATOM     34  F   UNL     1       3.358  -1.404   6.432  0.00  0.00    -0.166 F 
ATOM     35  F   UNL     1       2.313   0.582   6.858  0.00  0.00    -0.166 F 
ENDBRANCH  29  32
ENDBRANCH   6  26
BRANCH   3  36
ATOM     36  C   UNL     1      -0.810  -0.208  -3.131  0.00  0.00    +0.018 C 
ATOM     37  C   UNL     1       0.365  -0.540  -4.053  0.00  0.00    +0.012 C 
ATOM     38  C   UNL     1      -1.942  -1.210  -3.367  0.00  0.00    +0.012 C 
ENDBRANCH   3  36
TORSDOF 5
