REMARK  Name = ZINC23038362
REMARK  9 active torsions:
REMARK  status: ('A' for Active; 'I' for Inactive)
REMARK    1  A    between atoms: C_1  and  N_2
REMARK    2  A    between atoms: N_2  and  C_3
REMARK    3  A    between atoms: N_2  and  C_18
REMARK    4  A    between atoms: C_3  and  C_4
REMARK    5  A    between atoms: C_4  and  C_5
REMARK    6  A    between atoms: N_7  and  C_8
REMARK    7  A    between atoms: C_11  and  S_14
REMARK    8  A    between atoms: S_14  and  N_17
REMARK    9  A    between atoms: C_18  and  C_19
REMARK                            x       y       z     vdW  Elec       q    Type
REMARK                         _______ _______ _______ _____ _____    ______ ____
ROOT
ATOM      1  C   UNL     1      -4.872   3.529   3.098  0.00  0.00    +0.215 C 
ATOM      2  O   UNL     1      -5.547   3.652   2.097  0.00  0.00    -0.276 OA
ATOM      3  N   UNL     1      -5.417   3.752   4.310  0.00  0.00    -0.286 N 
ATOM      4  H   UNL     1      -4.827   3.569   5.220  0.00  0.00    +0.155 HD
ENDROOT
BRANCH   3   5
ATOM      5  C   UNL     1      -6.733   4.217   4.411  0.00  0.00    +0.033 A 
ATOM      6  C   UNL     1      -7.085   5.095   5.428  0.00  0.00    +0.025 A 
ATOM      7  C   UNL     1      -8.383   5.557   5.520  0.00  0.00    +0.030 A 
ATOM      8  C   UNL     1      -9.335   5.137   4.609  0.00  0.00    +0.105 A 
ATOM      9  C   UNL     1      -8.989   4.258   3.599  0.00  0.00    +0.030 A 
ATOM     10  C   UNL     1      -7.691   3.798   3.497  0.00  0.00    +0.025 A 
BRANCH   8  11
ATOM     11  S   UNL     1     -10.991   5.723   4.736  0.00  0.00    +0.056 S 
ATOM     12  O   UNL     1     -10.933   6.958   5.436  0.00  0.00    -0.153 OA
ATOM     13  O   UNL     1     -11.563   5.609   3.440  0.00  0.00    -0.153 OA
BRANCH  11  14
ATOM     14  N   UNL     1     -11.812   4.665   5.710  0.00  0.00    -0.204 NA
ATOM     15  H   UNL     1     -12.856   4.997   5.815  0.00  0.00    +0.144 HD
ATOM     16  H   UNL     1     -11.336   4.635   6.701  0.00  0.00    +0.144 HD
ENDBRANCH  11  14
ENDBRANCH   8  11
ENDBRANCH   3   5
BRANCH   1  17
ATOM     17  C   UNL     1      -3.424   3.127   2.985  0.00  0.00    +0.077 C 
BRANCH  17  18
ATOM     18  C   UNL     1      -3.060   2.938   1.511  0.00  0.00    -0.070 C 
BRANCH  18  20
ATOM     19  C   UNL     1      -0.765   3.632   1.842  0.00  0.00    -0.096 C 
ATOM     20  N   UNL     1      -1.649   2.546   1.401  0.00  0.00    +0.381 N 
ATOM     21  H   UNL     1      -1.484   1.685   2.066  0.00  0.00    -0.082 HD
BRANCH  20  22
ATOM     22  C   UNL     1      -1.324   2.126   0.031  0.00  0.00    -0.042 C 
BRANCH  22  23
ATOM     23  C   UNL     1      -0.010   1.389   0.029  0.00  0.00    -0.046 A 
ATOM     24  C   UNL     1       1.129   2.009  -0.452  0.00  0.00    +0.004 A 
ATOM     25  C   UNL     1       2.336   1.336  -0.448  0.00  0.00    +0.020 A 
ATOM     26  C   UNL     1       2.406   0.042   0.037  0.00  0.00    +0.042 A 
ATOM     27  C   UNL     1       1.267  -0.578   0.518  0.00  0.00    +0.040 A 
ATOM     28  C   UNL     1       0.059   0.096   0.515  0.00  0.00    +0.044 A 
ATOM     29 CL   UNL     1      -1.371  -0.682   1.118  0.00  0.00    -0.083 Cl
ATOM     30 CL   UNL     1       3.922  -0.803   0.041  0.00  0.00    -0.083 Cl
ENDBRANCH  22  23
ENDBRANCH  20  22
ENDBRANCH  18  20
ENDBRANCH  17  18
ENDBRANCH   1  17
TORSDOF 8
