REMARK  Name = ZINC40334003
REMARK  5 active torsions:
REMARK  status: ('A' for Active; 'I' for Inactive)
REMARK    1  A    between atoms: C_1  and  C_2
REMARK    2  A    between atoms: C_4  and  C_7
REMARK    3  A    between atoms: N_12  and  S_13
REMARK    4  A    between atoms: S_13  and  C_16
REMARK    5  A    between atoms: C_20  and  N_22
REMARK                            x       y       z     vdW  Elec       q    Type
REMARK                         _______ _______ _______ _____ _____    ______ ____
ROOT
ATOM      1  S   UNL     1       2.567  -4.166  -0.836  0.00  0.00    +0.062 S 
ATOM      2  O   UNL     1       3.122  -5.475  -0.837  0.00  0.00    -0.153 OA
ATOM      3  O   UNL     1       3.004  -3.153  -1.732  0.00  0.00    -0.153 OA
ENDROOT
BRANCH   1   4
ATOM      4  C   UNL     1       2.787  -3.528   0.792  0.00  0.00    +0.107 A 
ATOM      5  C   UNL     1       2.811  -2.161   1.000  0.00  0.00    +0.028 A 
ATOM      6  C   UNL     1       2.983  -1.656   2.276  0.00  0.00    +0.004 A 
ATOM      7  C   UNL     1       3.132  -2.516   3.346  0.00  0.00    +0.023 A 
ATOM      8  C   UNL     1       3.108  -3.889   3.141  0.00  0.00    +0.026 A 
ATOM      9  C   UNL     1       2.930  -4.393   1.859  0.00  0.00    +0.051 A 
BRANCH   8  10
ATOM     10  N   UNL     1       3.259  -4.761   4.221  0.00  0.00    -0.358 N 
ATOM     11  H   UNL     1       3.380  -4.408   5.117  0.00  0.00    +0.142 HD
ATOM     12  H   UNL     1       3.242  -5.720   4.076  0.00  0.00    +0.142 HD
ENDBRANCH   8  10
ENDBRANCH   1   4
BRANCH   1  17
ATOM     13  C   UNL     1       0.039  -3.320  -1.631  0.00  0.00    +0.148 C 
ATOM     14  C   UNL     1      -1.374  -3.936  -1.699  0.00  0.00    +0.030 C 
ATOM     15  C   UNL     1      -1.088  -5.461  -1.706  0.00  0.00    +0.019 C 
ATOM     16  C   UNL     1       0.145  -5.551  -0.773  0.00  0.00    +0.110 C 
ATOM     17  N   UNL     1       0.939  -4.342  -1.077  0.00  0.00    -0.166 NA
BRANCH  13  21
ATOM     18  C   UNL     1      -0.018   1.503   0.010  0.00  0.00    +0.069 C 
ATOM     19  C   UNL     1       0.002  -0.004   0.002  0.00  0.00    +0.081 A 
ATOM     20  C   UNL     1       0.008  -0.824  -1.141  0.00  0.00    +0.072 A 
ATOM     21  C   UNL     1       0.027  -2.108  -0.735  0.00  0.00    +0.156 A 
ATOM     22  O   UNL     1       0.034  -2.119   0.606  0.00  0.00    -0.358 OA
ATOM     23  N   UNL     1       0.023  -0.775   1.052  0.00  0.00    -0.083 NA
ENDBRANCH  13  21
ENDBRANCH   1  17
TORSDOF 4
