REMARK  Name = ZINC16052106
REMARK  7 active torsions:
REMARK  status: ('A' for Active; 'I' for Inactive)
REMARK    1  A    between atoms: C_1  and  C_2
REMARK    2  A    between atoms: C_2  and  N_3
REMARK    3  A    between atoms: C_4  and  C_6
REMARK    4  A    between atoms: C_8  and  O_27
REMARK    5  A    between atoms: C_10  and  O_26
REMARK    6  A    between atoms: C_12  and  N_15
REMARK    7  A    between atoms: C_23  and  N_24
REMARK                            x       y       z     vdW  Elec       q    Type
REMARK                         _______ _______ _______ _____ _____    ______ ____
ROOT
ATOM      1  C   UNL     1       4.650   6.759  -0.021  0.00  0.00    +0.237 C 
ATOM      2  C   UNL     1       4.141   6.837   1.435  0.00  0.00    +0.185 C 
ATOM      3  C   UNL     1       2.906   5.906   1.452  0.00  0.00    +0.196 C 
ATOM      4  C   UNL     1       2.819   5.374   0.004  0.00  0.00    +0.254 C 
ATOM      5  O   UNL     1       4.161   5.493  -0.516  0.00  0.00    -0.339 OA
ENDROOT
BRANCH   4   6
ATOM      6  N   UNL     1       2.393   3.973   0.001  0.00  0.00    -0.285 N 
ATOM      7  C   UNL     1       3.209   2.881  -0.013  0.00  0.00    +0.203 A 
ATOM      8  N   UNL     1       2.497   1.792  -0.012  0.00  0.00    -0.231 NA
ATOM      9  C   UNL     1       1.181   2.115   0.002  0.00  0.00    +0.147 A 
ATOM     10  C   UNL     1       1.098   3.518   0.011  0.00  0.00    +0.168 A 
ATOM     11  N   UNL     1      -0.099   4.094   0.025  0.00  0.00    -0.203 NA
ATOM     12  C   UNL     1      -1.195   3.365   0.032  0.00  0.00    +0.195 A 
ATOM     13  N   UNL     1      -1.168   2.044   0.019  0.00  0.00    -0.206 NA
ATOM     14  C   UNL     1      -0.017   1.380   0.010  0.00  0.00    +0.148 A 
ATOM     15  I   UNL     1      -3.052   4.335   0.055  0.00  0.00    +0.001 I 
BRANCH  14  16
ATOM     16  N   UNL     1       0.002  -0.004   0.002  0.00  0.00    -0.341 N 
ATOM     17  H   UNL     1       0.470  -0.327  -0.821  0.00  0.00    +0.144 HD
ATOM     18  H   UNL     1      -0.831  -0.500   0.007  0.00  0.00    +0.144 HD
ENDBRANCH  14  16
ENDBRANCH   4   6
BRANCH   1  20
ATOM     19  N   UNL     1       6.816   7.909   0.297  0.00  0.00    -0.313 N 
ATOM     20  C   UNL     1       6.156   6.788  -0.056  0.00  0.00    +0.245 C 
ATOM     21  O   UNL     1       6.775   5.804  -0.401  0.00  0.00    -0.273 OA
ATOM     22  H   UNL     1       6.322   8.697   0.574  0.00  0.00    +0.149 HD
BRANCH  19  24
ATOM     23  C   UNL     1       8.774   9.317   0.708  0.00  0.00    +0.024 C 
ATOM     24  C   UNL     1       8.281   7.938   0.264  0.00  0.00    +0.101 C 
ENDBRANCH  19  24
ENDBRANCH   1  20
BRANCH   3  25
ATOM     25  O   UNL     1       1.727   6.640   1.788  0.00  0.00    -0.385 OA
ATOM     26  H   UNL     1       1.728   6.997   2.687  0.00  0.00    +0.210 HD
ENDBRANCH   3  25
BRANCH   2  27
ATOM     27  O   UNL     1       3.762   8.175   1.762  0.00  0.00    -0.386 OA
ATOM     28  H   UNL     1       4.486   8.814   1.708  0.00  0.00    +0.210 HD
ENDBRANCH   2  27
TORSDOF 6
