REMARK  Name = ZINC40809818
REMARK  4 active torsions:
REMARK  status: ('A' for Active; 'I' for Inactive)
REMARK    1  A    between atoms: C_4  and  C_17
REMARK    2  A    between atoms: C_6  and  N_7
REMARK    3  A    between atoms: N_7  and  S_8
REMARK    4  A    between atoms: S_8  and  C_11
REMARK                            x       y       z     vdW  Elec       q    Type
REMARK                         _______ _______ _______ _____ _____    ______ ____
ROOT
ATOM      1  C   UNL     1      -0.017   1.386   0.010  0.00  0.00    +0.029 A 
ATOM      2  C   UNL     1       1.167   2.099   0.002  0.00  0.00    +0.041 A 
ATOM      3  C   UNL     1       2.379   1.433  -0.013  0.00  0.00    +0.136 A 
ATOM      4  C   UNL     1       2.408   0.035  -0.021  0.00  0.00    +0.073 A 
ATOM      5  C   UNL     1       1.210  -0.682  -0.013  0.00  0.00    +0.042 A 
ATOM      6  C   UNL     1       0.002  -0.004   0.002  0.00  0.00    +0.075 A 
ATOM      7  F   UNL     1       3.535   2.134  -0.021  0.00  0.00    -0.205 F 
ENDROOT
BRANCH   4   8
ATOM      8  C   UNL     1       3.700  -0.680  -0.037  0.00  0.00    +0.244 C 
ATOM      9  O   UNL     1       4.742  -0.053  -0.044  0.00  0.00    -0.270 OA
ATOM     10  N   UNL     1       3.725  -2.027  -0.045  0.00  0.00    -0.325 N 
ATOM     11  H   UNL     1       2.894  -2.527  -0.039  0.00  0.00    +0.145 HD
ATOM     12  H   UNL     1       4.574  -2.497  -0.056  0.00  0.00    +0.145 HD
ENDBRANCH   4   8
BRANCH   6  13
ATOM     13  N   UNL     1      -1.200  -0.719   0.010  0.00  0.00    -0.098 NA
BRANCH  13  14
ATOM     14  S   UNL     1      -2.644   0.090   0.029  0.00  0.00    +0.095 S 
ATOM     15  O   UNL     1      -2.717   0.762   1.279  0.00  0.00    -0.148 OA
ATOM     16  O   UNL     1      -2.742   0.776  -1.212  0.00  0.00    -0.148 OA
BRANCH  14  17
ATOM     17  C   UNL     1      -3.922  -1.124   0.035  0.00  0.00    +0.147 A 
ATOM     18  C   UNL     1      -4.506  -1.670  -1.056  0.00  0.00    +0.133 A 
ATOM     19  N   UNL     1      -5.432  -2.554  -0.628  0.00  0.00    -0.283 N 
ATOM     20  H   UNL     1      -6.006  -3.096  -1.191  0.00  0.00    +0.188 HD
ATOM     21  N   UNL     1      -5.416  -2.550   0.772  0.00  0.00    -0.180 NA
ATOM     22  C   UNL     1      -4.506  -1.697   1.169  0.00  0.00    +0.163 A 
ENDBRANCH  14  17
ENDBRANCH  13  14
ENDBRANCH   6  13
TORSDOF 4
