REMARK  Name = ZINC23820744
REMARK  12 active torsions:
REMARK  status: ('A' for Active; 'I' for Inactive)
REMARK    1  A    between atoms: C_1  and  C_2
REMARK    2  A    between atoms: C_6  and  C_32
REMARK    3  A    between atoms: C_7  and  N_8
REMARK    4  A    between atoms: C_9  and  C_11
REMARK    5  A    between atoms: C_11  and  N_12
REMARK    6  A    between atoms: C_13  and  C_15
REMARK    7  A    between atoms: C_15  and  C_17
REMARK    8  A    between atoms: C_15  and  N_18
REMARK    9  A    between atoms: N_18  and  C_19
REMARK   10  A    between atoms: N_18  and  C_20
REMARK   11  A    between atoms: C_20  and  C_21
REMARK   12  A    between atoms: N_23  and  C_24
REMARK                            x       y       z     vdW  Elec       q    Type
REMARK                         _______ _______ _______ _____ _____    ______ ____
ROOT
ATOM      1  C   UNL     1       1.524   2.510   2.970  0.00  0.00    +0.016 C 
ATOM      2  C   UNL     1       0.971   2.633   4.391  0.00  0.00    -0.004 C 
ENDROOT
BRANCH   1   4
ATOM      3  N   UNL     1      -0.621   1.974   1.860  0.00  0.00    -0.308 N 
ATOM      4  C   UNL     1       0.430   2.810   1.978  0.00  0.00    +0.200 C 
ATOM      5  O   UNL     1       0.494   3.804   1.286  0.00  0.00    -0.278 OA
ATOM      6  H   UNL     1      -0.682   1.075   2.490  0.00  0.00    +0.149 HD
BRANCH   3   7
ATOM      7  C   UNL     1      -1.681   2.263   0.891  0.00  0.00    +0.200 C 
BRANCH   7   9
ATOM      8  N   UNL     1      -3.804   1.235   0.145  0.00  0.00    -0.284 N 
ATOM      9  C   UNL     1      -2.726   1.179   0.953  0.00  0.00    +0.234 C 
ATOM     10  O   UNL     1      -2.598   0.256   1.729  0.00  0.00    -0.274 OA
ATOM     11  H   UNL     1      -3.898   2.047  -0.590  0.00  0.00    +0.155 HD
BRANCH   8  18
ATOM     12  C   UNL     1      -6.465   2.083   0.689  0.00  0.00    +0.045 C 
ATOM     13  C   UNL     1      -6.114   0.629   0.505  0.00  0.00    -0.029 A 
ATOM     14  C   UNL     1      -7.098  -0.336   0.595  0.00  0.00    +0.005 A 
ATOM     15  C   UNL     1      -6.776  -1.671   0.432  0.00  0.00    +0.001 A 
ATOM     16  C   UNL     1      -5.469  -2.043   0.174  0.00  0.00    +0.005 A 
ATOM     17  C   UNL     1      -4.482  -1.083   0.078  0.00  0.00    -0.029 A 
ATOM     18  C   UNL     1      -4.802   0.259   0.241  0.00  0.00    +0.039 A 
ATOM     19  C   UNL     1      -3.058  -1.490  -0.203  0.00  0.00    +0.045 C 
ENDBRANCH   8  18
ENDBRANCH   7   9
ENDBRANCH   3   7
ENDBRANCH   1   4
BRANCH   1  20
ATOM     20  N   UNL     1       2.625   3.466   2.788  0.00  0.00    +0.391 N 
ATOM     21  C   UNL     1       3.844   2.997   3.461  0.00  0.00    -0.094 C 
ATOM     22  H   UNL     1       2.838   3.535   1.711  0.00  0.00    -0.080 HD
BRANCH  20  23
ATOM     23  C   UNL     1       2.244   4.803   3.260  0.00  0.00    +0.020 C 
BRANCH  23  24
ATOM     24  C   UNL     1       3.292   5.802   2.838  0.00  0.00    +0.201 C 
ATOM     25  O   UNL     1       4.260   5.434   2.207  0.00  0.00    -0.278 OA
ATOM     26  N   UNL     1       3.152   7.102   3.163  0.00  0.00    -0.287 N 
ATOM     27  H   UNL     1       2.235   7.450   3.662  0.00  0.00    +0.155 HD
BRANCH  26  28
ATOM     28  C   UNL     1       4.174   8.011   2.865  0.00  0.00    +0.035 A 
ATOM     29  C   UNL     1       4.438   9.068   3.727  0.00  0.00    +0.025 A 
ATOM     30  C   UNL     1       5.451   9.960   3.435  0.00  0.00    +0.023 A 
ATOM     31  C   UNL     1       6.195   9.809   2.278  0.00  0.00    +0.059 A 
ATOM     32  C   UNL     1       5.931   8.760   1.413  0.00  0.00    +0.061 A 
ATOM     33  C   UNL     1       4.922   7.861   1.705  0.00  0.00    +0.044 A 
ATOM     34 CL   UNL     1       6.866   8.574  -0.037  0.00  0.00    -0.082 Cl
ATOM     35 CL   UNL     1       7.463  10.937   1.910  0.00  0.00    -0.082 Cl
ENDBRANCH  26  28
ENDBRANCH  23  24
ENDBRANCH  20  23
ENDBRANCH   1  20
TORSDOF 8
