REMARK  Name = ZINC01893609
REMARK  4 active torsions:
REMARK  status: ('A' for Active; 'I' for Inactive)
REMARK    1  A    between atoms: C_3  and  N_23
REMARK    2  A    between atoms: C_6  and  C_7
REMARK    3  A    between atoms: C_16  and  N_20
REMARK    4  A    between atoms: C_17  and  C_18
REMARK                            x       y       z     vdW  Elec       q    Type
REMARK                         _______ _______ _______ _____ _____    ______ ____
ROOT
ATOM      1  C   UNL     1      -1.293  -0.775   0.010  0.00  0.00    +0.105 C 
ATOM      2  C   UNL     1      -1.349  -1.642   1.238  0.00  0.00    +0.091 A 
ATOM      3  C   UNL     1      -1.625  -1.086   2.457  0.00  0.00    +0.262 A 
ATOM      4  N   UNL     1      -1.671  -1.894   3.558  0.00  0.00    -0.273 N 
ATOM      5  C   UNL     1      -1.446  -3.215   3.434  0.00  0.00    +0.352 A 
ATOM      6  N   UNL     1      -1.178  -3.761   2.251  0.00  0.00    -0.157 NA
ATOM      7  C   UNL     1      -1.122  -3.017   1.151  0.00  0.00    +0.236 A 
ATOM      8  O   UNL     1      -0.847  -3.596  -0.036  0.00  0.00    -0.423 OA
ATOM      9  C   UNL     1      -1.151  -2.960  -1.180  0.00  0.00    +0.200 C 
ATOM     10  C   UNL     1      -1.373  -1.628  -1.225  0.00  0.00    +0.098 C 
ATOM     11  O   UNL     1      -1.491  -3.925   4.425  0.00  0.00    -0.245 OA
ATOM     12  O   UNL     1      -1.848   0.241   2.571  0.00  0.00    -0.267 OA
ATOM     13  H   UNL     1      -1.865  -1.515   4.429  0.00  0.00    +0.173 HD
ENDROOT
BRANCH   1  19
ATOM     14  C   UNL     1      -0.017   1.378   0.010  0.00  0.00    +0.007 A 
ATOM     15  C   UNL     1       1.171   2.086   0.002  0.00  0.00    +0.033 A 
ATOM     16  C   UNL     1       2.377   1.411  -0.013  0.00  0.00    +0.126 A 
ATOM     17  C   UNL     1       2.396   0.029  -0.020  0.00  0.00    +0.033 A 
ATOM     18  C   UNL     1       1.208  -0.679  -0.012  0.00  0.00    +0.007 A 
ATOM     19  C   UNL     1       0.002  -0.004   0.002  0.00  0.00    -0.034 A 
BRANCH  16  20
ATOM     20  N   UNL     1       3.649   2.168  -0.022  0.00  0.00    +0.056 N 
ATOM     21  O   UNL     1       3.633   3.377  -0.016  0.00  0.00    -0.126 OA
ATOM     22  O   UNL     1       4.704   1.578  -0.035  0.00  0.00    -0.126 OA
ENDBRANCH  16  20
ENDBRANCH   1  19
BRANCH   9  23
ATOM     23  N   UNL     1      -1.239  -3.688  -2.341  0.00  0.00    -0.328 N 
ATOM     24  H   UNL     1      -1.082  -4.645  -2.326  0.00  0.00    +0.145 HD
ATOM     25  H   UNL     1      -1.457  -3.245  -3.175  0.00  0.00    +0.145 HD
ENDBRANCH   9  23
BRANCH  10  26
ATOM     26  C   UNL     1      -1.691  -1.017  -2.480  0.00  0.00    +0.101 C 
ATOM     27  N   UNL     1      -1.944  -0.531  -3.476  0.00  0.00    -0.191 NA
ENDBRANCH  10  26
TORSDOF 4
