REMARK  Name = ZINC63135122
REMARK  6 active torsions:
REMARK  status: ('A' for Active; 'I' for Inactive)
REMARK    1  A    between atoms: C_1  and  C_2
REMARK    2  A    between atoms: C_2  and  C_18
REMARK    3  A    between atoms: N_3  and  N_4
REMARK    4  A    between atoms: C_5  and  C_7
REMARK    5  A    between atoms: C_7  and  S_8
REMARK    6  A    between atoms: S_8  and  C_9
REMARK                            x       y       z     vdW  Elec       q    Type
REMARK                         _______ _______ _______ _____ _____    ______ ____
ROOT
ATOM      1  N   UNL     1      -1.058  -1.642   1.338  0.00  0.00    -0.206 N 
ATOM      2  C   UNL     1      -1.563  -1.995   2.537  0.00  0.00    +0.242 C 
ATOM      3  O   UNL     1      -1.452  -1.248   3.486  0.00  0.00    -0.273 OA
ATOM      4  H   UNL     1      -1.146  -2.239   0.579  0.00  0.00    +0.177 HD
ENDROOT
BRANCH   1   7
ATOM      5  C   UNL     1       0.825   1.222  -0.127  0.00  0.00    +0.068 C 
ATOM      6  C   UNL     1      -0.011  -0.024   0.015  0.00  0.00    +0.063 C 
ATOM      7  N   UNL     1      -0.405  -0.411   1.189  0.00  0.00    -0.185 NA
BRANCH   6   8
ATOM      8  C   UNL     1      -0.383  -0.802  -1.181  0.00  0.00    +0.000 A 
ATOM      9  C   UNL     1      -1.650  -1.390  -1.293  0.00  0.00    +0.029 A 
ATOM     10  C   UNL     1      -1.955  -2.109  -2.429  0.00  0.00    +0.111 A 
ATOM     11  N   UNL     1      -1.074  -2.246  -3.402  0.00  0.00    -0.263 NA
ATOM     12  C   UNL     1       0.129  -1.708  -3.338  0.00  0.00    +0.111 A 
ATOM     13  C   UNL     1       0.518  -0.969  -2.241  0.00  0.00    +0.029 A 
ENDBRANCH   6   8
ENDBRANCH   1   7
BRANCH   2  14
ATOM     14  C   UNL     1      -2.265  -3.319   2.697  0.00  0.00    +0.170 C 
BRANCH  14  15
ATOM     15  S   UNL     1      -2.827  -3.501   4.413  0.00  0.00    -0.106 S 
BRANCH  15  16
ATOM     16  C   UNL     1      -3.641  -5.122   4.438  0.00  0.00    +0.236 C 
ATOM     17  N   UNL     1      -4.716  -5.163   3.439  0.00  0.00    -0.355 N 
ATOM     18  C   UNL     1      -4.426  -6.108   2.592  0.00  0.00    +0.061 A 
ATOM     19  C   UNL     1      -5.107  -6.619   1.394  0.00  0.00    +0.027 A 
ATOM     20  C   UNL     1      -4.556  -7.634   0.698  0.00  0.00    +0.002 A 
ATOM     21  C   UNL     1      -3.342  -8.237   1.071  0.00  0.00    +0.002 A 
ATOM     22  C   UNL     1      -2.638  -7.846   2.152  0.00  0.00    +0.027 A 
ATOM     23  C   UNL     1      -3.141  -6.747   2.986  0.00  0.00    +0.061 A 
ATOM     24  N   UNL     1      -2.685  -6.171   4.061  0.00  0.00    -0.355 N 
ATOM     25  H   UNL     1      -5.498  -4.590   3.414  0.00  0.00    +0.162 HD
ATOM     26  H   UNL     1      -1.864  -6.395   4.527  0.00  0.00    +0.162 HD
ENDBRANCH  15  16
ENDBRANCH  14  15
ENDBRANCH   2  14
TORSDOF 5
