REMARK  Name = ZINC15725721
REMARK  8 active torsions:
REMARK  status: ('A' for Active; 'I' for Inactive)
REMARK    1  A    between atoms: C_1  and  C_2
REMARK    2  A    between atoms: C_2  and  C_3
REMARK    3  A    between atoms: C_7  and  C_29
REMARK    4  A    between atoms: C_8  and  N_9
REMARK    5  A    between atoms: C_10  and  C_12
REMARK    6  A    between atoms: C_12  and  N_13
REMARK    7  A    between atoms: N_16  and  C_20
REMARK    8  A    between atoms: C_20  and  C_21
REMARK                            x       y       z     vdW  Elec       q    Type
REMARK                         _______ _______ _______ _____ _____    ______ ____
ROOT
ATOM      1  N   UNL     1      -0.618   2.711   2.404  0.00  0.00    -0.156 NA
ATOM      2  C   UNL     1       0.428   2.339   3.374  0.00  0.00    +0.128 C 
ATOM      3  C   UNL     1       1.551   1.591   2.660  0.00  0.00    +0.128 C 
ATOM      4  N   UNL     1       1.083   1.030   1.384  0.00  0.00    -0.161 NA
ATOM      5  S   UNL     1      -0.511   1.508   1.247  0.00  0.00    +0.100 S 
ATOM      6  O   UNL     1      -0.661   2.126  -0.024  0.00  0.00    -0.141 OA
ATOM      7  O   UNL     1      -1.319   0.424   1.686  0.00  0.00    -0.141 OA
ENDROOT
BRANCH   1   8
ATOM      8  C   UNL     1      -1.530   3.856   2.444  0.00  0.00    +0.206 C 
BRANCH   8  10
ATOM      9  N   UNL     1      -3.713   4.419   3.463  0.00  0.00    -0.284 N 
ATOM     10  C   UNL     1      -2.733   3.511   3.284  0.00  0.00    +0.233 C 
ATOM     11  O   UNL     1      -2.820   2.416   3.798  0.00  0.00    -0.274 OA
ATOM     12  H   UNL     1      -3.620   5.312   3.096  0.00  0.00    +0.155 HD
BRANCH   9  18
ATOM     13  C   UNL     1      -5.293   4.869   5.234  0.00  0.00    -0.026 A 
ATOM     14  C   UNL     1      -6.430   4.525   5.939  0.00  0.00    +0.005 A 
ATOM     15  C   UNL     1      -7.141   3.390   5.595  0.00  0.00    +0.001 A 
ATOM     16  C   UNL     1      -6.718   2.596   4.545  0.00  0.00    +0.005 A 
ATOM     17  C   UNL     1      -5.585   2.938   3.832  0.00  0.00    -0.029 A 
ATOM     18  C   UNL     1      -4.864   4.074   4.179  0.00  0.00    +0.040 A 
ATOM     19  C   UNL     1      -5.127   2.076   2.684  0.00  0.00    +0.045 C 
BRANCH  13  21
ATOM     20  C   UNL     1      -4.970   7.277   4.736  0.00  0.00    +0.009 C 
ATOM     21  C   UNL     1      -4.517   6.105   5.610  0.00  0.00    +0.033 C 
ENDBRANCH  13  21
ENDBRANCH   9  18
ENDBRANCH   8  10
ENDBRANCH   1   8
BRANCH   4  22
ATOM     22  C   UNL     1       1.853   0.222   0.435  0.00  0.00    +0.147 C 
BRANCH  22  23
ATOM     23  C   UNL     1       1.806  -1.225   0.852  0.00  0.00    -0.013 A 
ATOM     24  C   UNL     1       1.010  -2.118   0.159  0.00  0.00    +0.009 A 
ATOM     25  C   UNL     1       0.966  -3.445   0.540  0.00  0.00    +0.039 A 
ATOM     26  C   UNL     1       1.721  -3.882   1.616  0.00  0.00    +0.125 A 
ATOM     27  C   UNL     1       2.518  -2.988   2.310  0.00  0.00    +0.058 A 
ATOM     28  C   UNL     1       2.564  -1.660   1.924  0.00  0.00    +0.048 A 
ATOM     29 CL   UNL     1       3.569  -0.540   2.788  0.00  0.00    -0.083 Cl
ATOM     30  F   UNL     1       1.678  -5.180   1.989  0.00  0.00    -0.205 F 
ENDBRANCH  22  23
ENDBRANCH   4  22
TORSDOF 6
