REMARK  Name = ZINC07268137
REMARK  11 active torsions:
REMARK  status: ('A' for Active; 'I' for Inactive)
REMARK    1  A    between atoms: C_1  and  C_2
REMARK    2  A    between atoms: C_2  and  C_3
REMARK    3  A    between atoms: C_8  and  N_9
REMARK    4  A    between atoms: C_10  and  C_12
REMARK    5  A    between atoms: C_12  and  N_60
REMARK    6  A    between atoms: C_13  and  N_60
REMARK    7  A    between atoms: C_14  and  C_16
REMARK    8  A    between atoms: C_14  and  C_17
REMARK    9  A    between atoms: C_14  and  N_60
REMARK   10  A    between atoms: N_19  and  C_20
REMARK   11  A    between atoms: C_25  and  C_26
REMARK                            x       y       z     vdW  Elec       q    Type
REMARK                         _______ _______ _______ _____ _____    ______ ____
ROOT
ATOM      1  C   UNL     1      -0.245  -0.002   0.097  0.00  0.00    +0.017 C 
ATOM      2  C   UNL     1      -0.329   1.526   0.126  0.00  0.00    -0.004 C 
ENDROOT
BRANCH   1   3
ATOM      3  C   UNL     1      -1.635  -0.580   0.038  0.00  0.00    +0.203 C 
ATOM      4  O   UNL     1      -1.962  -1.279  -0.898  0.00  0.00    -0.277 OA
ATOM      5  N   UNL     1      -2.516  -0.321   1.024  0.00  0.00    -0.286 N 
ATOM      6  H   UNL     1      -2.279   0.293   1.737  0.00  0.00    +0.155 HD
BRANCH   5   7
ATOM      7  C   UNL     1      -3.770  -0.936   1.021  0.00  0.00    +0.041 A 
ATOM      8  C   UNL     1      -4.418  -1.190  -0.179  0.00  0.00    +0.024 A 
ATOM      9  C   UNL     1      -5.656  -1.803  -0.181  0.00  0.00    +0.002 A 
ATOM     10  C   UNL     1      -6.262  -2.158   1.012  0.00  0.00    +0.001 A 
ATOM     11  C   UNL     1      -5.632  -1.907   2.213  0.00  0.00    +0.010 A 
ATOM     12  C   UNL     1      -4.381  -1.294   2.228  0.00  0.00    +0.003 A 
BRANCH  12  13
ATOM     13  C   UNL     1      -3.699  -1.022   3.517  0.00  0.00    -0.016 A 
ATOM     14  C   UNL     1      -2.376  -1.416   3.705  0.00  0.00    +0.008 A 
ATOM     15  C   UNL     1      -1.744  -1.155   4.904  0.00  0.00    +0.001 A 
ATOM     16  C   UNL     1      -2.427  -0.515   5.923  0.00  0.00    +0.000 A 
ATOM     17  C   UNL     1      -3.743  -0.127   5.744  0.00  0.00    +0.001 A 
ATOM     18  C   UNL     1      -4.382  -0.377   4.547  0.00  0.00    +0.008 A 
ENDBRANCH  12  13
ENDBRANCH   5   7
ENDBRANCH   1   3
BRANCH   1  20
ATOM     19  C   UNL     1      -0.053   0.150  -2.312  0.00  0.00    -0.094 C 
ATOM     20  N   UNL     1       0.512  -0.457  -1.088  0.00  0.00    +0.391 N 
ATOM     21  H   UNL     1       0.439  -1.478  -1.158  0.00  0.00    -0.080 HD
BRANCH  20  22
ATOM     22  C   UNL     1       1.936  -0.085  -0.951  0.00  0.00    +0.020 C 
BRANCH  22  24
ATOM     23  N   UNL     1       4.054  -0.573  -2.133  0.00  0.00    -0.287 N 
ATOM     24  C   UNL     1       2.720  -0.747  -2.055  0.00  0.00    +0.201 C 
ATOM     25  O   UNL     1       2.149  -1.437  -2.874  0.00  0.00    -0.278 OA
ATOM     26  H   UNL     1       4.498   0.041  -1.528  0.00  0.00    +0.155 HD
BRANCH  23  32
ATOM     27  C   UNL     1       6.013  -0.778  -3.529  0.00  0.00    -0.026 A 
ATOM     28  C   UNL     1       6.745  -1.477  -4.470  0.00  0.00    +0.005 A 
ATOM     29  C   UNL     1       6.267  -2.675  -4.968  0.00  0.00    +0.000 A 
ATOM     30  C   UNL     1       5.056  -3.177  -4.528  0.00  0.00    +0.002 A 
ATOM     31  C   UNL     1       4.323  -2.485  -3.584  0.00  0.00    +0.023 A 
ATOM     32  C   UNL     1       4.797  -1.279  -3.085  0.00  0.00    +0.036 A 
BRANCH  27  34
ATOM     33  C   UNL     1       7.286   0.271  -1.677  0.00  0.00    +0.009 C 
ATOM     34  C   UNL     1       6.535   0.527  -2.986  0.00  0.00    +0.033 C 
ENDBRANCH  27  34
ENDBRANCH  23  32
ENDBRANCH  22  24
ENDBRANCH  20  22
ENDBRANCH   1  20
TORSDOF 8
