REMARK  Name = ZINC17097368
REMARK  8 active torsions:
REMARK  status: ('A' for Active; 'I' for Inactive)
REMARK    1  A    between atoms: C_3  and  S_16
REMARK    2  A    between atoms: C_6  and  N_7
REMARK    3  A    between atoms: C_8  and  C_10
REMARK    4  A    between atoms: C_10  and  C_11
REMARK    5  A    between atoms: C_11  and  C_12
REMARK    6  A    between atoms: C_12  and  C_13
REMARK    7  A    between atoms: S_16  and  N_19
REMARK    8  A    between atoms: N_19  and  C_20
REMARK                            x       y       z     vdW  Elec       q    Type
REMARK                         _______ _______ _______ _____ _____    ______ ____
ROOT
ATOM      1  C   UNL     1      -0.013   1.374   0.193  0.00  0.00    +0.025 A 
ATOM      2  C   UNL     1       1.174   2.082   0.190  0.00  0.00    +0.031 A 
ATOM      3  C   UNL     1       2.374   1.421   0.002  0.00  0.00    +0.110 A 
ATOM      4  C   UNL     1       2.391   0.051  -0.183  0.00  0.00    +0.031 A 
ATOM      5  C   UNL     1       1.208  -0.663  -0.180  0.00  0.00    +0.025 A 
ATOM      6  C   UNL     1       0.001  -0.002   0.007  0.00  0.00    +0.033 A 
ENDROOT
BRANCH   6   7
ATOM      7  N   UNL     1      -1.199  -0.722   0.010  0.00  0.00    -0.285 N 
ATOM      8  C   UNL     1      -2.325  -0.156  -0.469  0.00  0.00    +0.217 C 
ATOM      9  O   UNL     1      -2.280   0.938  -0.990  0.00  0.00    -0.275 OA
ATOM     10  H   UNL     1      -1.221  -1.627   0.357  0.00  0.00    +0.155 HD
BRANCH   8  11
ATOM     11  C   UNL     1      -3.640  -0.884  -0.358  0.00  0.00    +0.096 C 
BRANCH  11  12
ATOM     12  C   UNL     1      -4.750  -0.030  -0.974  0.00  0.00    +0.020 C 
BRANCH  12  13
ATOM     13  C   UNL     1      -6.084  -0.769  -0.861  0.00  0.00    +0.125 C 
BRANCH  13  14
ATOM     14  C   UNL     1      -7.177   0.073  -1.468  0.00  0.00    +0.356 C 
ATOM     15  O   UNL     1      -6.913   1.163  -1.946  0.00  0.00    -0.246 OA
ATOM     16  O   UNL     1      -8.326  -0.336  -1.480  0.00  0.00    -0.246 OA
ENDBRANCH  13  14
ENDBRANCH  12  13
ENDBRANCH  11  12
ENDBRANCH   8  11
ENDBRANCH   6   7
BRANCH   3  17
ATOM     17  S   UNL     1       3.885   2.327  -0.002  0.00  0.00    +0.092 S 
ATOM     18  O   UNL     1       4.821   1.553  -0.740  0.00  0.00    -0.148 OA
ATOM     19  O   UNL     1       3.556   3.664  -0.354  0.00  0.00    -0.148 OA
BRANCH  17  20
ATOM     20  N   UNL     1       4.434   2.370   1.560  0.00  0.00    -0.098 NA
BRANCH  20  21
ATOM     21  C   UNL     1       5.628   3.030   1.862  0.00  0.00    +0.076 A 
ATOM     22  C   UNL     1       6.352   3.655   0.855  0.00  0.00    +0.028 A 
ATOM     23  C   UNL     1       7.532   4.307   1.156  0.00  0.00    +0.023 A 
ATOM     24  C   UNL     1       7.994   4.337   2.460  0.00  0.00    +0.059 A 
ATOM     25  C   UNL     1       7.275   3.715   3.467  0.00  0.00    +0.061 A 
ATOM     26  C   UNL     1       6.090   3.067   3.171  0.00  0.00    +0.048 A 
ATOM     27 CL   UNL     1       7.858   3.754   5.101  0.00  0.00    -0.082 Cl
ATOM     28 CL   UNL     1       9.478   5.157   2.835  0.00  0.00    -0.082 Cl
ENDBRANCH  20  21
ENDBRANCH  17  20
ENDBRANCH   3  17
TORSDOF 8
