REMARK  Name = ZINC66207947
REMARK  7 active torsions:
REMARK  status: ('A' for Active; 'I' for Inactive)
REMARK    1  A    between atoms: C_4  and  O_7
REMARK    2  A    between atoms: O_7  and  C_8
REMARK    3  A    between atoms: C_11  and  N_14
REMARK    4  A    between atoms: N_14  and  C_15
REMARK    5  A    between atoms: C_15  and  C_16
REMARK    6  A    between atoms: N_18  and  C_19
REMARK    7  A    between atoms: C_19  and  C_20
REMARK                            x       y       z     vdW  Elec       q    Type
REMARK                         _______ _______ _______ _____ _____    ______ ____
ROOT
ATOM      1  N   UNL     1       3.877  -6.151   0.070  0.00  0.00    -0.335 N 
ATOM      2  H   UNL     1       3.065  -6.680   0.046  0.00  0.00    +0.147 HD
ENDROOT
BRANCH   1   6
ATOM      3  C   UNL     1       3.657  -1.989  -0.010  0.00  0.00    +0.129 A 
ATOM      4  C   UNL     1       2.495  -2.746  -0.046  0.00  0.00    +0.048 A 
ATOM      5  C   UNL     1       2.567  -4.125  -0.019  0.00  0.00    +0.026 A 
ATOM      6  C   UNL     1       3.804  -4.754   0.043  0.00  0.00    +0.028 A 
ATOM      7  C   UNL     1       4.967  -3.996   0.078  0.00  0.00    +0.026 A 
ATOM      8  C   UNL     1       4.893  -2.617   0.046  0.00  0.00    +0.048 A 
BRANCH   3   9
ATOM      9  O   UNL     1       3.586  -0.632  -0.036  0.00  0.00    -0.456 OA
BRANCH   9  13
ATOM     10  C   UNL     1       3.335   1.363   3.566  0.00  0.00    +0.000 A 
ATOM     11  C   UNL     1       3.418  -0.017   3.546  0.00  0.00    +0.004 A 
ATOM     12  C   UNL     1       3.502  -0.687   2.341  0.00  0.00    +0.046 A 
ATOM     13  C   UNL     1       3.503   0.025   1.150  0.00  0.00    +0.128 A 
ATOM     14  C   UNL     1       3.420   1.410   1.174  0.00  0.00    +0.046 A 
ATOM     15  C   UNL     1       3.336   2.076   2.381  0.00  0.00    +0.004 A 
ENDBRANCH   9  13
ENDBRANCH   3   9
ENDBRANCH   1   6
BRANCH   1  16
ATOM     16  C   UNL     1       5.182  -6.814   0.135  0.00  0.00    +0.197 C 
BRANCH  16  17
ATOM     17  C   UNL     1       4.985  -8.308   0.153  0.00  0.00    +0.230 C 
ATOM     18  O   UNL     1       3.866  -8.773   0.115  0.00  0.00    -0.274 OA
ATOM     19  N   UNL     1       6.054  -9.128   0.211  0.00  0.00    -0.310 N 
ATOM     20  H   UNL     1       6.949  -8.756   0.242  0.00  0.00    +0.149 HD
BRANCH  19  21
ATOM     21  C   UNL     1       5.863 -10.580   0.229  0.00  0.00    +0.141 C 
BRANCH  21  22
ATOM     22  C   UNL     1       7.205 -11.263   0.296  0.00  0.00    -0.012 A 
ATOM     23  C   UNL     1       7.777 -11.777  -0.853  0.00  0.00    +0.006 A 
ATOM     24  C   UNL     1       9.008 -12.402  -0.791  0.00  0.00    +0.000 A 
ATOM     25  C   UNL     1       9.667 -12.515   0.419  0.00  0.00    +0.001 A 
ATOM     26  C   UNL     1       9.096 -12.002   1.568  0.00  0.00    +0.020 A 
ATOM     27  C   UNL     1       7.867 -11.370   1.506  0.00  0.00    +0.046 A 
ATOM     28 CL   UNL     1       7.151 -10.719   2.948  0.00  0.00    -0.083 Cl
ENDBRANCH  21  22
ENDBRANCH  19  21
ENDBRANCH  16  17
ENDBRANCH   1  16
TORSDOF 7
