REMARK  Name = ZINC17004557
REMARK  7 active torsions:
REMARK  status: ('A' for Active; 'I' for Inactive)
REMARK    1  A    between atoms: C_1  and  C_2
REMARK    2  A    between atoms: C_2  and  C_4
REMARK    3  A    between atoms: C_2  and  S_19
REMARK    4  A    between atoms: N_6  and  C_7
REMARK    5  A    between atoms: S_19  and  C_20
REMARK    6  A    between atoms: C_23  and  C_32
REMARK    7  A    between atoms: N_24  and  C_25
REMARK                            x       y       z     vdW  Elec       q    Type
REMARK                         _______ _______ _______ _____ _____    ______ ____
ROOT
ATOM      1  S   UNL     1       4.541   5.807  -1.002  0.00  0.00    -0.073 S 
ENDROOT
BRANCH   1   2
ATOM      2  C   UNL     1       6.173   6.459  -1.124  0.00  0.00    +0.197 A 
ATOM      3  N   UNL     1       7.273   5.898  -0.673  0.00  0.00    -0.122 NA
ATOM      4  N   UNL     1       8.288   6.643  -0.932  0.00  0.00    -0.128 NA
ATOM      5  C   UNL     1       7.900   7.729  -1.558  0.00  0.00    +0.169 A 
ATOM      6  N   UNL     1       6.532   7.647  -1.701  0.00  0.00    -0.270 N 
BRANCH   6   7
ATOM      7  C   UNL     1       5.685   8.584  -2.310  0.00  0.00    +0.051 A 
ATOM      8  C   UNL     1       5.755   8.798  -3.680  0.00  0.00    +0.029 A 
ATOM      9  C   UNL     1       4.916   9.717  -4.278  0.00  0.00    +0.040 A 
ATOM     10  C   UNL     1       4.013  10.434  -3.511  0.00  0.00    +0.124 A 
ATOM     11  C   UNL     1       3.945  10.226  -2.144  0.00  0.00    +0.040 A 
ATOM     12  C   UNL     1       4.779   9.303  -1.542  0.00  0.00    +0.029 A 
ATOM     13  F   UNL     1       3.197  11.337  -4.097  0.00  0.00    -0.205 F 
ENDBRANCH   6   7
BRANCH   5  14
ATOM     14  C   UNL     1       8.767   8.833  -2.022  0.00  0.00    +0.020 A 
ATOM     15  C   UNL     1      10.145   8.640  -2.138  0.00  0.00    +0.014 A 
ATOM     16  C   UNL     1      10.948   9.672  -2.576  0.00  0.00    +0.039 A 
ATOM     17  C   UNL     1      10.391  10.901  -2.892  0.00  0.00    +0.123 A 
ATOM     18  C   UNL     1       9.025  11.100  -2.774  0.00  0.00    +0.039 A 
ATOM     19  C   UNL     1       8.211  10.073  -2.341  0.00  0.00    +0.014 A 
ATOM     20  F   UNL     1      11.184  11.910  -3.316  0.00  0.00    -0.205 F 
ENDBRANCH   5  14
ENDBRANCH   1   2
BRANCH   1  22
ATOM     21  C   UNL     1       5.422   4.559   1.263  0.00  0.00    +0.029 C 
ATOM     22  C   UNL     1       4.887   4.255  -0.138  0.00  0.00    +0.137 C 
BRANCH  22  23
ATOM     23  C   UNL     1       3.618   3.449  -0.026  0.00  0.00    +0.230 C 
ATOM     24  O   UNL     1       2.541   3.994  -0.141  0.00  0.00    -0.274 OA
ATOM     25  N   UNL     1       3.681   2.122   0.202  0.00  0.00    -0.285 N 
ATOM     26  H   UNL     1       4.537   1.698   0.369  0.00  0.00    +0.155 HD
BRANCH  25  27
ATOM     27  C   UNL     1       2.509   1.354   0.198  0.00  0.00    +0.035 A 
ATOM     28  C   UNL     1       2.396   0.256   1.043  0.00  0.00    +0.025 A 
ATOM     29  C   UNL     1       1.244  -0.504   1.043  0.00  0.00    +0.029 A 
ATOM     30  C   UNL     1       0.195  -0.172   0.199  0.00  0.00    +0.067 A 
ATOM     31  C   UNL     1       0.305   0.931  -0.650  0.00  0.00    +0.069 A 
ATOM     32  C   UNL     1       1.464   1.692  -0.648  0.00  0.00    +0.051 A 
ATOM     33  N   UNL     1      -0.888   1.010  -1.364  0.00  0.00    -0.306 N 
ATOM     34  H   UNL     1      -1.106   1.678  -2.033  0.00  0.00    +0.170 HD
ATOM     35  C   UNL     1      -1.688   0.002  -0.968  0.00  0.00    +0.325 A 
ATOM     36  O   UNL     1      -2.806  -0.215  -1.397  0.00  0.00    -0.247 OA
ATOM     37  N   UNL     1      -1.063  -0.729  -0.026  0.00  0.00    -0.306 N 
ATOM     38  H   UNL     1      -1.427  -1.510   0.420  0.00  0.00    +0.170 HD
ENDBRANCH  25  27
ENDBRANCH  22  23
ENDBRANCH   1  22
TORSDOF 6
