REMARK  Name = ZINC15073064
REMARK  12 active torsions:
REMARK  status: ('A' for Active; 'I' for Inactive)
REMARK    1  A    between atoms: C_1  and  C_2
REMARK    2  A    between atoms: C_7  and  C_8
REMARK    3  A    between atoms: C_8  and  C_9
REMARK    4  A    between atoms: C_10  and  C_24
REMARK    5  A    between atoms: C_14  and  C_23
REMARK    6  A    between atoms: N_15  and  C_16
REMARK    7  A    between atoms: C_16  and  C_17
REMARK    8  A    between atoms: N_26  and  C_27
REMARK    9  A    between atoms: N_26  and  C_28
REMARK   10  A    between atoms: C_28  and  C_29
REMARK   11  A    between atoms: C_29  and  C_31
REMARK   12  A    between atoms: C_29  and  O_37
REMARK                            x       y       z     vdW  Elec       q    Type
REMARK                         _______ _______ _______ _____ _____    ______ ____
ROOT
ATOM      1  C   UNL     1       0.018  -1.269  -0.119  0.00  0.00    +0.039 A 
ATOM      2  C   UNL     1       0.371  -0.007   0.314  0.00  0.00    +0.103 A 
ATOM      3  C   UNL     1       1.771   0.416   0.155  0.00  0.00    +0.194 A 
ATOM      4  O   UNL     1       2.140   1.522   0.520  0.00  0.00    -0.287 OA
ATOM      5  C   UNL     1       2.677  -0.499  -0.436  0.00  0.00    +0.072 A 
ATOM      6  C   UNL     1       2.232  -1.710  -0.826  0.00  0.00    +0.020 A 
ATOM      7  N   UNL     1       0.937  -2.080  -0.670  0.00  0.00    -0.342 N 
ATOM      8  C   UNL     1       3.200  -2.680  -1.453  0.00  0.00    +0.063 C 
ENDROOT
BRANCH   2   9
ATOM      9  C   UNL     1      -0.628   0.893   0.913  0.00  0.00    +0.252 C 
ATOM     10  O   UNL     1      -0.831   0.864   2.112  0.00  0.00    -0.270 OA
ATOM     11  N   UNL     1      -1.317   1.750   0.134  0.00  0.00    -0.298 N 
ATOM     12  C   UNL     1      -1.072   1.785  -1.310  0.00  0.00    +0.132 C 
BRANCH  11  13
ATOM     13  C   UNL     1      -2.311   2.646   0.730  0.00  0.00    +0.143 C 
BRANCH  13  14
ATOM     14  C   UNL     1      -1.636   3.958   1.135  0.00  0.00    +0.162 C 
BRANCH  14  15
ATOM     15  C   UNL     1      -2.659   4.880   1.749  0.00  0.00    -0.018 A 
ATOM     16  C   UNL     1      -2.968   4.772   3.092  0.00  0.00    +0.006 A 
ATOM     17  C   UNL     1      -3.903   5.621   3.655  0.00  0.00    +0.000 A 
ATOM     18  C   UNL     1      -4.535   6.570   2.874  0.00  0.00    +0.000 A 
ATOM     19  C   UNL     1      -4.228   6.675   1.530  0.00  0.00    +0.000 A 
ATOM     20  C   UNL     1      -3.291   5.829   0.967  0.00  0.00    +0.006 A 
ENDBRANCH  14  15
BRANCH  14  21
ATOM     21  O   UNL     1      -0.605   3.690   2.087  0.00  0.00    -0.386 OA
ATOM     22  H   UNL     1      -0.919   3.268   2.899  0.00  0.00    +0.210 HD
ENDBRANCH  14  21
ENDBRANCH  13  14
ENDBRANCH  11  13
ENDBRANCH   2   9
BRANCH   1  23
ATOM     23  C   UNL     1      -1.406  -1.740   0.027  0.00  0.00    +0.089 C 
BRANCH  23  30
ATOM     24  C   UNL     1      -3.320  -0.506   1.805  0.00  0.00    +0.044 C 
ATOM     25  C   UNL     1      -2.528  -1.703   2.264  0.00  0.00    -0.047 A 
ATOM     26  C   UNL     1      -2.718  -2.211   3.536  0.00  0.00    +0.003 A 
ATOM     27  C   UNL     1      -1.992  -3.309   3.957  0.00  0.00    +0.000 A 
ATOM     28  C   UNL     1      -1.076  -3.900   3.106  0.00  0.00    +0.000 A 
ATOM     29  C   UNL     1      -0.890  -3.395   1.833  0.00  0.00    +0.004 A 
ATOM     30  C   UNL     1      -1.612  -2.293   1.413  0.00  0.00    -0.039 A 
ENDBRANCH  23  30
ENDBRANCH   1  23
BRANCH   7  31
ATOM     31  C   UNL     1       0.524  -3.413  -1.118  0.00  0.00    +0.157 C 
BRANCH  31  32
ATOM     32  C   UNL     1       0.233  -3.377  -2.596  0.00  0.00    -0.025 A 
ATOM     33  C   UNL     1      -1.005  -2.965  -3.066  0.00  0.00    +0.025 A 
ATOM     34  C   UNL     1      -1.234  -2.942  -4.428  0.00  0.00    +0.111 A 
ATOM     35  N   UNL     1      -0.296  -3.315  -5.277  0.00  0.00    -0.263 NA
ATOM     36  C   UNL     1       0.890  -3.717  -4.866  0.00  0.00    +0.111 A 
ATOM     37  C   UNL     1       1.194  -3.762  -3.518  0.00  0.00    +0.025 A 
ENDBRANCH  31  32
ENDBRANCH   7  31
TORSDOF 9
