REMARK  Name = ZINC09236466
REMARK  4 active torsions:
REMARK  status: ('A' for Active; 'I' for Inactive)
REMARK    1  A    between atoms: C_1  and  C_2
REMARK    2  A    between atoms: C_8  and  C_24
REMARK    3  A    between atoms: C_10  and  C_13
REMARK    4  A    between atoms: N_15  and  C_16
REMARK                            x       y       z     vdW  Elec       q    Type
REMARK                         _______ _______ _______ _____ _____    ______ ____
ROOT
ATOM      1  C   UNL     1       3.525   5.790   3.183  0.00  0.00    +0.090 C 
ATOM      2  C   UNL     1       2.851   6.273   1.924  0.00  0.00    +0.148 A 
ATOM      3  N   UNL     1       2.692   7.516   1.560  0.00  0.00    -0.132 NA
ATOM      4  N   UNL     1       2.071   7.572   0.433  0.00  0.00    -0.121 NA
ATOM      5  C   UNL     1       1.801   6.363   0.025  0.00  0.00    +0.209 A 
ATOM      6  N   UNL     1       2.294   5.490   0.954  0.00  0.00    -0.225 N 
ATOM      7  N   UNL     1       2.242   4.134   0.911  0.00  0.00    -0.272 N 
ATOM      8  C   UNL     1       1.181   3.612   0.048  0.00  0.00    +0.140 C 
ATOM      9  C   UNL     1       1.377   4.102  -1.393  0.00  0.00    +0.166 C 
ATOM     10  S   UNL     1       0.950   5.870  -1.441  0.00  0.00    -0.069 S 
ATOM     11  H   UNL     1       3.138   3.746   0.656  0.00  0.00    +0.167 HD
ENDROOT
BRANCH   8  12
ATOM     12  C   UNL     1       1.216   2.106   0.071  0.00  0.00    -0.024 A 
ATOM     13  C   UNL     1       0.035   1.388   0.110  0.00  0.00    +0.005 A 
ATOM     14  C   UNL     1       0.067   0.006   0.131  0.00  0.00    +0.000 A 
ATOM     15  C   UNL     1       1.280  -0.658   0.112  0.00  0.00    +0.000 A 
ATOM     16  C   UNL     1       2.460   0.060   0.072  0.00  0.00    +0.000 A 
ATOM     17  C   UNL     1       2.428   1.442   0.052  0.00  0.00    +0.005 A 
ENDBRANCH   8  12
BRANCH   9  18
ATOM     18  C   UNL     1       2.813   3.908  -1.807  0.00  0.00    +0.233 C 
ATOM     19  O   UNL     1       3.588   4.840  -1.760  0.00  0.00    -0.274 OA
ATOM     20  N   UNL     1       3.235   2.700  -2.229  0.00  0.00    -0.284 N 
ATOM     21  H   UNL     1       2.598   1.978  -2.346  0.00  0.00    +0.155 HD
BRANCH  20  22
ATOM     22  C   UNL     1       4.593   2.488  -2.498  0.00  0.00    +0.035 A 
ATOM     23  C   UNL     1       4.972   1.631  -3.523  0.00  0.00    +0.026 A 
ATOM     24  C   UNL     1       6.312   1.427  -3.791  0.00  0.00    +0.041 A 
ATOM     25  C   UNL     1       7.276   2.066  -3.031  0.00  0.00    +0.142 A 
ATOM     26  C   UNL     1       6.900   2.917  -2.004  0.00  0.00    +0.078 A 
ATOM     27  C   UNL     1       5.561   3.128  -1.737  0.00  0.00    +0.046 A 
ATOM     28 CL   UNL     1       8.112   3.717  -1.052  0.00  0.00    -0.081 Cl
ATOM     29  F   UNL     1       8.586   1.861  -3.292  0.00  0.00    -0.204 F 
ENDBRANCH  20  22
ENDBRANCH   9  18
TORSDOF 3
