REMARK  Name = ZINC12493114
REMARK  8 active torsions:
REMARK  status: ('A' for Active; 'I' for Inactive)
REMARK    1  A    between atoms: C_1  and  O_2
REMARK    2  A    between atoms: O_2  and  C_3
REMARK    3  A    between atoms: C_5  and  C_11
REMARK    4  A    between atoms: C_7  and  O_9
REMARK    5  A    between atoms: O_9  and  C_10
REMARK    6  A    between atoms: C_11  and  N_12
REMARK    7  A    between atoms: C_14  and  C_19
REMARK    8  A    between atoms: N_21  and  C_22
REMARK                            x       y       z     vdW  Elec       q    Type
REMARK                         _______ _______ _______ _____ _____    ______ ____
ROOT
ATOM      1  N   UNL     1       1.147   1.758   0.038  0.00  0.00    -0.310 N 
ATOM      2  C   UNL     1      -0.013   1.074   0.034  0.00  0.00    +0.102 A 
ATOM      3  C   UNL     1      -1.220   1.744   0.036  0.00  0.00    +0.053 A 
ATOM      4  C   UNL     1      -1.231   3.159   0.053  0.00  0.00    +0.020 A 
ATOM      5  C   UNL     1      -0.047   3.828   0.056  0.00  0.00    +0.071 A 
ATOM      6  C   UNL     1       1.159   3.103   0.048  0.00  0.00    +0.252 A 
ATOM      7  O   UNL     1       2.223   3.699   0.050  0.00  0.00    -0.268 OA
ENDROOT
BRANCH   3   8
ATOM      8  C   UNL     1      -2.487   0.990   0.026  0.00  0.00    +0.250 C 
ATOM      9  O   UNL     1      -2.472  -0.226   0.016  0.00  0.00    -0.270 OA
ATOM     10  N   UNL     1      -3.663   1.649   0.028  0.00  0.00    -0.279 N 
ATOM     11  H   UNL     1      -3.676   2.617   0.102  0.00  0.00    +0.155 HD
BRANCH  10  12
ATOM     12  C   UNL     1      -4.865   0.938  -0.075  0.00  0.00    +0.072 A 
ATOM     13  C   UNL     1      -4.983  -0.315   0.509  0.00  0.00    +0.029 A 
ATOM     14  C   UNL     1      -6.169  -1.017   0.407  0.00  0.00    +0.043 A 
ATOM     15  C   UNL     1      -7.241  -0.472  -0.280  0.00  0.00    +0.161 A 
ATOM     16  C   UNL     1      -7.127   0.779  -0.866  0.00  0.00    +0.195 A 
ATOM     17  C   UNL     1      -5.942   1.488  -0.760  0.00  0.00    +0.182 A 
ATOM     18  F   UNL     1      -5.832   2.710  -1.325  0.00  0.00    -0.200 F 
ATOM     19  F   UNL     1      -8.174   1.310  -1.535  0.00  0.00    -0.199 F 
ATOM     20  F   UNL     1      -8.399  -1.160  -0.378  0.00  0.00    -0.202 F 
ENDBRANCH  10  12
ENDBRANCH   3   8
BRANCH   1  21
ATOM     21  C   UNL     1       2.416   1.025   0.030  0.00  0.00    +0.160 C 
BRANCH  21  24
ATOM     22  C   UNL     1       4.044   1.494  -3.349  0.00  0.00    +0.124 A 
ATOM     23  C   UNL     1       3.645   1.712  -2.038  0.00  0.00    +0.051 A 
ATOM     24  C   UNL     1       2.848   0.785  -1.394  0.00  0.00    -0.021 A 
ATOM     25  C   UNL     1       2.452  -0.364  -2.050  0.00  0.00    +0.051 A 
ATOM     26  C   UNL     1       2.845  -0.585  -3.363  0.00  0.00    +0.124 A 
ATOM     27  C   UNL     1       3.643   0.344  -4.012  0.00  0.00    +0.091 A 
BRANCH  22  29
ATOM     28  C   UNL     1       5.200   2.116  -5.331  0.00  0.00    +0.277 C 
ATOM     29  O   UNL     1       4.827   2.406  -3.983  0.00  0.00    -0.495 OA
ENDBRANCH  22  29
BRANCH  26  30
ATOM     30  O   UNL     1       2.450  -1.713  -4.011  0.00  0.00    -0.495 OA
ATOM     31  C   UNL     1       2.895  -1.877  -5.358  0.00  0.00    +0.277 C 
ENDBRANCH  26  30
ENDBRANCH  21  24
ENDBRANCH   1  21
TORSDOF 6
