REMARK  Name = ZINC52836526
REMARK  4 active torsions:
REMARK  status: ('A' for Active; 'I' for Inactive)
REMARK    1  A    between atoms: C_1  and  C_2
REMARK    2  A    between atoms: C_2  and  C_3
REMARK    3  A    between atoms: C_7  and  C_19
REMARK    4  A    between atoms: C_15  and  C_17
REMARK                            x       y       z     vdW  Elec       q    Type
REMARK                         _______ _______ _______ _____ _____    ______ ____
ROOT
ATOM      1  C   UNL     1      -1.294  -0.794  -0.125  0.00  0.00    +0.100 C 
ATOM      2  C   UNL     1      -1.315  -2.325  -0.055  0.00  0.00    +0.182 C 
ATOM      3  O   UNL     1      -2.665  -2.783  -0.172  0.00  0.00    -0.373 OA
ATOM      4  C   UNL     1      -3.288  -2.457  -1.416  0.00  0.00    +0.132 C 
ATOM      5  C   UNL     1      -3.368  -0.932  -1.556  0.00  0.00    +0.138 C 
ATOM      6  N   UNL     1      -2.025  -0.374  -1.331  0.00  0.00    -0.307 N 
ATOM      7  C   UNL     1      -1.465   0.521  -2.229  0.00  0.00    +0.127 A 
ATOM      8  C   UNL     1      -1.731   1.887  -2.127  0.00  0.00    +0.083 A 
ATOM      9  C   UNL     1      -1.148   2.739  -3.047  0.00  0.00    +0.135 A 
ATOM     10  N   UNL     1      -0.361   2.233  -3.989  0.00  0.00    -0.221 NA
ATOM     11  C   UNL     1      -0.131   0.938  -4.057  0.00  0.00    +0.130 A 
ATOM     12  N   UNL     1      -0.661   0.091  -3.197  0.00  0.00    -0.218 NA
ATOM     13  C   UNL     1       0.770   0.410  -5.144  0.00  0.00    +0.088 C 
ATOM     14 CL   UNL     1      -1.442   4.448  -2.972  0.00  0.00    -0.062 Cl
ATOM     15  C   UNL     1      -4.698  -3.049  -1.452  0.00  0.00    +0.039 C 
ENDROOT
BRANCH   1  17
ATOM     16  C   UNL     1       0.870  -0.623   1.112  0.00  0.00    +0.006 C 
ATOM     17  C   UNL     1       0.152  -0.301  -0.201  0.00  0.00    +0.021 C 
ENDBRANCH   1  17
TORSDOF 1
