REMARK  Name = ZINC17302660
REMARK  10 active torsions:
REMARK  status: ('A' for Active; 'I' for Inactive)
REMARK    1  A    between atoms: C_1  and  C_2
REMARK    2  A    between atoms: C_2  and  O_3
REMARK    3  A    between atoms: O_3  and  C_4
REMARK    4  A    between atoms: C_7  and  N_10
REMARK    5  A    between atoms: N_10  and  S_11
REMARK    6  A    between atoms: S_11  and  C_14
REMARK    7  A    between atoms: C_16  and  C_21
REMARK    8  A    between atoms: N_23  and  C_24
REMARK    9  A    between atoms: C_27  and  N_30
REMARK   10  A    between atoms: C_31  and  C_33
REMARK                            x       y       z     vdW  Elec       q    Type
REMARK                         _______ _______ _______ _____ _____    ______ ____
ROOT
ATOM      1  C   UNL     1       3.215   4.146  -0.317  0.00  0.00    +0.127 A 
ATOM      2  C   UNL     1       2.120   3.325  -0.149  0.00  0.00    +0.043 A 
ATOM      3  C   UNL     1       2.296   1.944  -0.048  0.00  0.00    +0.039 A 
ATOM      4  C   UNL     1       3.581   1.403  -0.113  0.00  0.00    +0.014 A 
ATOM      5  C   UNL     1       4.668   2.233  -0.287  0.00  0.00    +0.023 A 
ATOM      6  C   UNL     1       4.487   3.603  -0.386  0.00  0.00    +0.068 A 
ATOM      7 CL   UNL     1       5.861   4.643  -0.597  0.00  0.00    -0.082 Cl
ENDROOT
BRANCH   3   8
ATOM      8  C   UNL     1       1.126   1.059   0.132  0.00  0.00    +0.248 C 
ATOM      9  O   UNL     1       0.008   1.532   0.188  0.00  0.00    -0.270 OA
ATOM     10  N   UNL     1       1.299  -0.275   0.228  0.00  0.00    -0.282 N 
ATOM     11  H   UNL     1       2.181  -0.659   0.105  0.00  0.00    +0.155 HD
BRANCH  10  12
ATOM     12  C   UNL     1       0.205  -1.104   0.505  0.00  0.00    +0.034 A 
ATOM     13  C   UNL     1      -0.826  -0.645   1.315  0.00  0.00    +0.025 A 
ATOM     14  C   UNL     1      -1.907  -1.461   1.584  0.00  0.00    +0.025 A 
ATOM     15  C   UNL     1      -1.957  -2.744   1.054  0.00  0.00    +0.033 A 
ATOM     16  C   UNL     1      -0.923  -3.204   0.249  0.00  0.00    +0.025 A 
ATOM     17  C   UNL     1       0.155  -2.386  -0.025  0.00  0.00    +0.025 A 
BRANCH  15  18
ATOM     18  N   UNL     1      -3.051  -3.573   1.331  0.00  0.00    -0.286 N 
ATOM     19  C   UNL     1      -4.286  -3.045   1.442  0.00  0.00    +0.214 C 
ATOM     20  O   UNL     1      -4.439  -1.843   1.384  0.00  0.00    -0.276 OA
ATOM     21  C   UNL     1      -5.477  -3.947   1.639  0.00  0.00    +0.109 C 
ATOM     22  H   UNL     1      -2.920  -4.528   1.442  0.00  0.00    +0.155 HD
ENDBRANCH  15  18
ENDBRANCH  10  12
ENDBRANCH   3   8
BRANCH   1  23
ATOM     23  S   UNL     1       2.996   5.890  -0.444  0.00  0.00    +0.074 S 
ATOM     24  O   UNL     1       3.731   6.310  -1.585  0.00  0.00    -0.150 OA
ATOM     25  O   UNL     1       1.603   6.135  -0.302  0.00  0.00    -0.150 OA
BRANCH  23  26
ATOM     26  N   UNL     1       3.733   6.574   0.872  0.00  0.00    -0.216 N 
ATOM     27  H   UNL     1       4.484   7.176   0.749  0.00  0.00    +0.174 HD
BRANCH  26  31
ATOM     28  C   UNL     1       2.367   5.706   4.713  0.00  0.00    +0.121 A 
ATOM     29  C   UNL     1       3.726   5.682   4.439  0.00  0.00    +0.047 A 
ATOM     30  C   UNL     1       4.180   5.970   3.167  0.00  0.00    +0.028 A 
ATOM     31  C   UNL     1       3.275   6.282   2.161  0.00  0.00    +0.048 A 
ATOM     32  C   UNL     1       1.914   6.311   2.438  0.00  0.00    +0.028 A 
ATOM     33  C   UNL     1       1.462   6.018   3.709  0.00  0.00    +0.047 A 
BRANCH  28  34
ATOM     34  O   UNL     1       1.921   5.423   5.966  0.00  0.00    -0.492 OA
BRANCH  34  36
ATOM     35  C   UNL     1       0.200   5.123   7.636  0.00  0.00    +0.048 C 
ATOM     36  C   UNL     1       0.508   5.466   6.177  0.00  0.00    +0.225 C 
ENDBRANCH  34  36
ENDBRANCH  28  34
ENDBRANCH  26  31
ENDBRANCH  23  26
ENDBRANCH   1  23
TORSDOF 8
