REMARK  Name = ZINC36640384
REMARK  12 active torsions:
REMARK  status: ('A' for Active; 'I' for Inactive)
REMARK    1  A    between atoms: C_1  and  C_2
REMARK    2  A    between atoms: C_2  and  N_3
REMARK    3  A    between atoms: N_3  and  C_4
REMARK    4  A    between atoms: N_3  and  C_6
REMARK    5  A    between atoms: C_4  and  C_5
REMARK    6  A    between atoms: C_6  and  C_7
REMARK    7  A    between atoms: C_7  and  N_8
REMARK    8  A    between atoms: C_13  and  C_19
REMARK    9  A    between atoms: C_15  and  C_18
REMARK   10  A    between atoms: C_20  and  C_22
REMARK   11  A    between atoms: C_25  and  S_28
REMARK   12  A    between atoms: S_28  and  N_31
REMARK                            x       y       z     vdW  Elec       q    Type
REMARK                         _______ _______ _______ _____ _____    ______ ____
ROOT
ATOM      1  N   UNL     1      -1.482  -3.389  -1.720  0.00  0.00    -0.248 N 
ATOM      2  C   UNL     1      -1.718  -4.044  -0.524  0.00  0.00    +0.168 A 
ATOM      3  N   UNL     1      -2.047  -3.538   0.642  0.00  0.00    -0.224 NA
ATOM      4  C   UNL     1      -2.248  -4.304   1.736  0.00  0.00    +0.081 A 
ATOM      5  C   UNL     1      -2.602  -3.888   3.040  0.00  0.00    +0.032 A 
ATOM      6  C   UNL     1      -2.768  -4.804   4.046  0.00  0.00    -0.048 A 
ATOM      7  C   UNL     1      -2.596  -6.163   3.825  0.00  0.00    +0.008 A 
ATOM      8  C   UNL     1      -2.249  -6.605   2.562  0.00  0.00    -0.034 A 
ATOM      9  C   UNL     1      -2.081  -5.695   1.548  0.00  0.00    +0.044 A 
ATOM     10  S   UNL     1      -1.659  -5.796  -0.175  0.00  0.00    -0.052 S 
ATOM     11  C   UNL     1      -2.057  -8.076   2.300  0.00  0.00    +0.045 C 
ATOM     12  C   UNL     1      -3.146  -4.324   5.423  0.00  0.00    +0.044 C 
ATOM     13  C   UNL     1      -1.158  -4.094  -2.822  0.00  0.00    +0.252 C 
ATOM     14  O   UNL     1      -1.133  -5.308  -2.782  0.00  0.00    -0.270 OA
ENDROOT
BRANCH  13  15
ATOM     15  C   UNL     1      -0.833  -3.390  -4.080  0.00  0.00    +0.037 A 
ATOM     16  C   UNL     1       0.098  -2.349  -4.081  0.00  0.00    +0.015 A 
ATOM     17  C   UNL     1       0.396  -1.696  -5.259  0.00  0.00    +0.029 A 
ATOM     18  C   UNL     1      -0.224  -2.070  -6.438  0.00  0.00    +0.106 A 
ATOM     19  C   UNL     1      -1.147  -3.101  -6.444  0.00  0.00    +0.029 A 
ATOM     20  C   UNL     1      -1.451  -3.766  -5.274  0.00  0.00    +0.015 A 
BRANCH  18  21
ATOM     21  S   UNL     1       0.162  -1.230  -7.938  0.00  0.00    +0.061 S 
ATOM     22  O   UNL     1      -0.954  -1.405  -8.800  0.00  0.00    -0.153 OA
ATOM     23  O   UNL     1       0.648   0.054  -7.571  0.00  0.00    -0.153 OA
BRANCH  21  24
ATOM     24  N   UNL     1       1.430  -2.034  -8.636  0.00  0.00    -0.172 NA
ATOM     25  C   UNL     1       2.822  -1.667  -8.328  0.00  0.00    +0.137 C 
ATOM     26  C   UNL     1       3.584  -2.941  -7.947  0.00  0.00    +0.177 C 
ATOM     27  O   UNL     1       3.398  -3.925  -8.967  0.00  0.00    -0.377 OA
ATOM     28  C   UNL     1       2.041  -4.339  -9.140  0.00  0.00    +0.177 C 
ATOM     29  C   UNL     1       1.199  -3.140  -9.579  0.00  0.00    +0.137 C 
ENDBRANCH  21  24
ENDBRANCH  18  21
ENDBRANCH  13  15
BRANCH   1  30
ATOM     30  C   UNL     1      -1.585  -1.929  -1.788  0.00  0.00    +0.097 C 
BRANCH  30  31
ATOM     31  C   UNL     1      -0.339  -1.300  -1.160  0.00  0.00    -0.059 C 
BRANCH  31  32
ATOM     32  N   UNL     1      -0.371   0.154  -1.361  0.00  0.00    +0.380 N 
ATOM     33  H   UNL     1      -0.470   0.356  -2.344  0.00  0.00    -0.082 HD
BRANCH  32  35
ATOM     34  C   UNL     1      -1.625   2.217  -0.948  0.00  0.00    -0.017 C 
ATOM     35  C   UNL     1      -1.508   0.726  -0.626  0.00  0.00    -0.082 C 
ENDBRANCH  32  35
BRANCH  32  36
ATOM     36  C   UNL     1       0.879   0.745  -0.864  0.00  0.00    -0.082 C 
ATOM     37  C   UNL     1       2.049   0.258  -1.722  0.00  0.00    -0.017 C 
ENDBRANCH  32  36
ENDBRANCH  31  32
ENDBRANCH  30  31
ENDBRANCH   1  30
TORSDOF 8
