REMARK  Name = ZINC41585565
REMARK  6 active torsions:
REMARK  status: ('A' for Active; 'I' for Inactive)
REMARK    1  A    between atoms: C_1  and  C_2
REMARK    2  A    between atoms: C_4  and  O_36
REMARK    3  A    between atoms: C_5  and  C_22
REMARK    4  A    between atoms: C_11  and  C_12
REMARK    5  A    between atoms: C_22  and  N_23
REMARK    6  A    between atoms: N_26  and  C_29
REMARK                            x       y       z     vdW  Elec       q    Type
REMARK                         _______ _______ _______ _____ _____    ______ ____
ROOT
ATOM      1  C   UNL     1      -0.455   1.809   0.197  0.00  0.00    +0.045 C 
ATOM      2  C   UNL     1      -0.334   0.312   0.073  0.00  0.00    -0.033 A 
ATOM      3  C   UNL     1      -0.348  -0.276  -1.161  0.00  0.00    +0.050 A 
ATOM      4  C   UNL     1      -0.237  -1.658  -1.278  0.00  0.00    +0.122 A 
ATOM      5  C   UNL     1      -0.111  -2.453  -0.150  0.00  0.00    +0.020 A 
ATOM      6  C   UNL     1      -0.094  -1.872   1.112  0.00  0.00    +0.145 A 
ATOM      7  C   UNL     1      -0.201  -0.475   1.217  0.00  0.00    +0.071 A 
ATOM      8  C   UNL     1      -0.146  -0.162   2.656  0.00  0.00    +0.232 C 
ATOM      9  O   UNL     1      -0.210   0.935   3.184  0.00  0.00    -0.283 OA
ATOM     10  C   UNL     1       0.004  -1.468   3.313  0.00  0.00    +0.176 C 
ATOM     11  C   UNL     1       0.098  -1.688   4.649  0.00  0.00    +0.058 C 
ATOM     12  O   UNL     1       0.015  -2.414   2.344  0.00  0.00    -0.451 OA
ENDROOT
BRANCH  11  13
ATOM     13  C   UNL     1       0.134  -3.062   5.166  0.00  0.00    -0.018 A 
ATOM     14  C   UNL     1       0.207  -4.144   4.281  0.00  0.00    +0.012 A 
ATOM     15  C   UNL     1       0.241  -5.431   4.769  0.00  0.00    +0.050 A 
ATOM     16  C   UNL     1       0.202  -5.662   6.139  0.00  0.00    +0.166 A 
ATOM     17  C   UNL     1       0.128  -4.588   7.028  0.00  0.00    +0.167 A 
ATOM     18  C   UNL     1       0.100  -3.294   6.547  0.00  0.00    +0.057 A 
ATOM     19  O   UNL     1       0.102  -5.078   8.302  0.00  0.00    -0.453 OA
ATOM     20  C   UNL     1      -0.252  -6.468   8.171  0.00  0.00    +0.466 C 
ATOM     21  O   UNL     1       0.222  -6.820   6.858  0.00  0.00    -0.453 OA
ENDBRANCH  11  13
BRANCH   4  22
ATOM     22  O   UNL     1      -0.253  -2.232  -2.507  0.00  0.00    -0.506 OA
ATOM     23  H   UNL     1       0.622  -2.324  -2.910  0.00  0.00    +0.292 HD
ENDBRANCH   4  22
BRANCH   5  24
ATOM     24  C   UNL     1       0.008  -3.949  -0.292  0.00  0.00    -0.035 C 
BRANCH  24  25
ATOM     25  N   UNL     1       1.425  -4.318  -0.410  0.00  0.00    +0.385 N 
ATOM     26  C   UNL     1       1.974  -3.756  -1.650  0.00  0.00    -0.059 C 
ATOM     27  C   UNL     1       3.477  -4.043  -1.719  0.00  0.00    +0.086 C 
ATOM     28  N   UNL     1       3.683  -5.491  -1.566  0.00  0.00    -0.333 N 
ATOM     29  C   UNL     1       3.030  -6.169  -0.436  0.00  0.00    +0.086 C 
ATOM     30  C   UNL     1       1.547  -5.782  -0.428  0.00  0.00    -0.059 C 
ATOM     31  H   UNL     1       1.935  -3.949   0.378  0.00  0.00    -0.081 HD
BRANCH  28  32
ATOM     32  C   UNL     1       4.477  -6.204  -2.470  0.00  0.00    +0.030 A 
ATOM     33  C   UNL     1       5.185  -5.529  -3.456  0.00  0.00    +0.026 A 
ATOM     34  C   UNL     1       5.970  -6.234  -4.347  0.00  0.00    +0.040 A 
ATOM     35  C   UNL     1       6.050  -7.614  -4.259  0.00  0.00    +0.124 A 
ATOM     36  C   UNL     1       5.344  -8.289  -3.277  0.00  0.00    +0.040 A 
ATOM     37  C   UNL     1       4.563  -7.587  -2.380  0.00  0.00    +0.026 A 
ATOM     38  F   UNL     1       6.817  -8.302  -5.132  0.00  0.00    -0.205 F 
ENDBRANCH  28  32
ENDBRANCH  24  25
ENDBRANCH   5  24
TORSDOF 5
