REMARK  Name = ZINC38040342
REMARK  3 active torsions:
REMARK  status: ('A' for Active; 'I' for Inactive)
REMARK    1  A    between atoms: C_3  and  O_9
REMARK    2  A    between atoms: O_9  and  C_10
REMARK    3  A    between atoms: C_13  and  N_17
REMARK                            x       y       z     vdW  Elec       q    Type
REMARK                         _______ _______ _______ _____ _____    ______ ____
ROOT
ATOM      1  C   UNL     1       3.483   3.466  -0.013  0.00  0.00    +0.199 A 
ATOM      2  C   UNL     1       3.432   4.165  -1.212  0.00  0.00    +0.170 A 
ATOM      3  C   UNL     1       3.365   5.546  -1.204  0.00  0.00    +0.065 A 
ATOM      4  C   UNL     1       3.349   6.234   0.002  0.00  0.00    +0.030 A 
ATOM      5  C   UNL     1       3.399   5.535   1.200  0.00  0.00    +0.065 A 
ATOM      6  C   UNL     1       3.461   4.153   1.193  0.00  0.00    +0.170 A 
ATOM      7  F   UNL     1       3.505   3.472   2.359  0.00  0.00    -0.201 F 
ATOM      8  F   UNL     1       3.448   3.495  -2.385  0.00  0.00    -0.201 F 
ENDROOT
BRANCH   4   9
ATOM      9  N   UNL     1       3.282   7.631   0.009  0.00  0.00    -0.358 N 
ATOM     10  H   UNL     1       3.247   8.120  -0.828  0.00  0.00    +0.142 HD
ATOM     11  H   UNL     1       3.271   8.112   0.852  0.00  0.00    +0.142 HD
ENDBRANCH   4   9
BRANCH   1  12
ATOM     12  O   UNL     1       3.548   2.106  -0.021  0.00  0.00    -0.449 OA
BRANCH  12  15
ATOM     13  C   UNL     1      -0.017   1.379   0.010  0.00  0.00    +0.019 A 
ATOM     14  C   UNL     1       1.170   2.088   0.002  0.00  0.00    +0.049 A 
ATOM     15  C   UNL     1       2.380   1.411  -0.013  0.00  0.00    +0.147 A 
ATOM     16  C   UNL     1       2.397   0.022  -0.021  0.00  0.00    +0.084 A 
ATOM     17  C   UNL     1       1.208  -0.682  -0.013  0.00  0.00    +0.039 A 
ATOM     18  C   UNL     1       0.002  -0.004   0.002  0.00  0.00    +0.019 A 
ATOM     19 BR   UNL     1      -1.623  -0.970   0.013  0.00  0.00    -0.050 Br
ATOM     20 CL   UNL     1       3.911  -0.828  -0.040  0.00  0.00    -0.080 Cl
ENDBRANCH  12  15
ENDBRANCH   1  12
TORSDOF 3
