REMARK  Name = ZINC39325384
REMARK  8 active torsions:
REMARK  status: ('A' for Active; 'I' for Inactive)
REMARK    1  A    between atoms: C_1  and  C_2
REMARK    2  A    between atoms: C_6  and  C_15
REMARK    3  A    between atoms: C_13  and  C_14
REMARK    4  A    between atoms: C_15  and  N_16
REMARK    5  A    between atoms: N_16  and  C_17
REMARK    6  A    between atoms: N_16  and  S_27
REMARK    7  A    between atoms: C_17  and  C_18
REMARK    8  A    between atoms: S_27  and  C_30
REMARK                            x       y       z     vdW  Elec       q    Type
REMARK                         _______ _______ _______ _____ _____    ______ ____
ROOT
ATOM      1  N   UNL     1      -1.072  -6.333  -3.117  0.00  0.00    -0.171 NA
ENDROOT
BRANCH   1   2
ATOM      2  S   UNL     1      -0.250  -6.985  -4.398  0.00  0.00    +0.061 S 
ATOM      3  O   UNL     1      -0.798  -8.278  -4.616  0.00  0.00    -0.153 OA
ATOM      4  O   UNL     1      -0.220  -5.989  -5.411  0.00  0.00    -0.153 OA
BRANCH   2   5
ATOM      5  C   UNL     1       1.417  -7.226  -3.878  0.00  0.00    +0.106 A 
ATOM      6  C   UNL     1       2.347  -6.218  -4.051  0.00  0.00    +0.030 A 
ATOM      7  C   UNL     1       3.654  -6.407  -3.644  0.00  0.00    +0.022 A 
ATOM      8  C   UNL     1       4.032  -7.604  -3.063  0.00  0.00    +0.041 A 
ATOM      9  C   UNL     1       3.100  -8.613  -2.891  0.00  0.00    +0.022 A 
ATOM     10  C   UNL     1       1.792  -8.421  -3.293  0.00  0.00    +0.030 A 
ATOM     11 CL   UNL     1       5.673  -7.842  -2.552  0.00  0.00    -0.084 Cl
ENDBRANCH   2   5
ENDBRANCH   1   2
BRANCH   1  12
ATOM     12  C   UNL     1      -1.257  -4.882  -3.027  0.00  0.00    +0.126 C 
BRANCH  12  18
ATOM     13  C   UNL     1      -0.519   1.408   0.275  0.00  0.00    +0.044 C 
ATOM     14  C   UNL     1      -0.337  -0.084   0.165  0.00  0.00    -0.047 A 
ATOM     15  C   UNL     1      -0.373  -0.668  -1.061  0.00  0.00    +0.013 A 
ATOM     16  C   UNL     1      -0.194  -2.118  -1.156  0.00  0.00    -0.007 A 
ATOM     17  C   UNL     1      -0.222  -2.748  -2.364  0.00  0.00    -0.003 C 
ATOM     18  C   UNL     1      -0.028  -4.252  -2.369  0.00  0.00    +0.114 C 
ATOM     19  C   UNL     1       0.181  -4.929  -1.033  0.00  0.00    +0.225 C 
ATOM     20  O   UNL     1       0.343  -6.134  -0.979  0.00  0.00    -0.275 OA
ATOM     21  N   UNL     1       0.188  -4.208   0.075  0.00  0.00    -0.284 N 
ATOM     22  C   UNL     1       0.018  -2.886   0.083  0.00  0.00    +0.041 A 
ATOM     23  C   UNL     1       0.038  -2.182   1.302  0.00  0.00    +0.027 A 
ATOM     24  C   UNL     1      -0.130  -0.834   1.322  0.00  0.00    -0.046 A 
ATOM     25  C   UNL     1      -0.095  -0.121   2.649  0.00  0.00    +0.044 C 
ATOM     26  H   UNL     1       0.324  -4.662   0.921  0.00  0.00    +0.155 HD
ENDBRANCH  12  18
ENDBRANCH   1  12
BRANCH   1  27
ATOM     27  C   UNL     1      -1.616  -7.206  -2.074  0.00  0.00    +0.144 C 
BRANCH  27  28
ATOM     28  C   UNL     1      -3.052  -7.535  -2.392  0.00  0.00    -0.028 A 
ATOM     29  C   UNL     1      -4.066  -6.721  -1.923  0.00  0.00    +0.009 A 
ATOM     30  C   UNL     1      -5.385  -7.018  -2.212  0.00  0.00    +0.050 A 
ATOM     31  C   UNL     1      -5.693  -8.134  -2.973  0.00  0.00    +0.166 A 
ATOM     32  C   UNL     1      -4.671  -8.955  -3.445  0.00  0.00    +0.167 A 
ATOM     33  C   UNL     1      -3.351  -8.647  -3.156  0.00  0.00    +0.054 A 
ATOM     34  O   UNL     1      -5.227  -9.976  -4.160  0.00  0.00    -0.453 OA
ATOM     35  C   UNL     1      -6.615 -10.002  -3.779  0.00  0.00    +0.466 C 
ATOM     36  O   UNL     1      -6.888  -8.642  -3.392  0.00  0.00    -0.453 OA
ENDBRANCH  27  28
ENDBRANCH   1  27
TORSDOF 6
