REMARK  Name = ZINC63928059
REMARK  16 active torsions:
REMARK  status: ('A' for Active; 'I' for Inactive)
REMARK    1  A    between atoms: C_1  and  C_2
REMARK    2  A    between atoms: C_2  and  C_3
REMARK    3  A    between atoms: C_3  and  C_4
REMARK    4  A    between atoms: C_4  and  C_5
REMARK    5  A    between atoms: C_4  and  S_8
REMARK    6  A    between atoms: C_5  and  C_6
REMARK    7  A    between atoms: C_6  and  C_7
REMARK    8  A    between atoms: S_8  and  C_11
REMARK    9  A    between atoms: C_11  and  C_12
REMARK   10  A    between atoms: N_14  and  C_15
REMARK   11  A    between atoms: C_18  and  O_24
REMARK   12  A    between atoms: C_19  and  O_21
REMARK   13  A    between atoms: O_21  and  C_22
REMARK   14  A    between atoms: C_22  and  C_23
REMARK   15  A    between atoms: O_24  and  C_25
REMARK   16  A    between atoms: C_25  and  C_26
REMARK                            x       y       z     vdW  Elec       q    Type
REMARK                         _______ _______ _______ _____ _____    ______ ____
ROOT
ATOM      1  C   UNL     1       3.271  -4.996   0.309  0.00  0.00    +0.238 C 
ATOM      2  O   UNL     1       3.864  -4.328   1.130  0.00  0.00    -0.274 OA
ATOM      3  N   UNL     1       3.603  -6.290   0.127  0.00  0.00    -0.284 N 
ATOM      4  H   UNL     1       3.181  -6.804  -0.579  0.00  0.00    +0.155 HD
ENDROOT
BRANCH   3   5
ATOM      5  C   UNL     1       4.556  -6.893   0.958  0.00  0.00    +0.037 A 
ATOM      6  C   UNL     1       4.639  -6.530   2.296  0.00  0.00    +0.027 A 
ATOM      7  C   UNL     1       5.579  -7.124   3.117  0.00  0.00    +0.051 A 
ATOM      8  C   UNL     1       6.441  -8.082   2.607  0.00  0.00    +0.162 A 
ATOM      9  C   UNL     1       6.359  -8.447   1.267  0.00  0.00    +0.164 A 
ATOM     10  C   UNL     1       5.414  -7.856   0.445  0.00  0.00    +0.072 A 
BRANCH   9  11
ATOM     11  O   UNL     1       7.204  -9.387   0.765  0.00  0.00    -0.489 OA
BRANCH  11  12
ATOM     12  C   UNL     1       7.064  -9.713  -0.619  0.00  0.00    +0.226 C 
ATOM     13  C   UNL     1       8.092 -10.781  -0.998  0.00  0.00    +0.048 C 
ENDBRANCH  11  12
ENDBRANCH   9  11
BRANCH   8  14
ATOM     14  O   UNL     1       7.366  -8.665   3.416  0.00  0.00    -0.489 OA
BRANCH  14  15
ATOM     15  C   UNL     1       7.393  -8.241   4.781  0.00  0.00    +0.226 C 
ATOM     16  C   UNL     1       8.489  -9.002   5.529  0.00  0.00    +0.048 C 
ENDBRANCH  14  15
ENDBRANCH   8  14
ENDBRANCH   3   5
BRANCH   1  17
ATOM     17  C   UNL     1       2.165  -4.380  -0.507  0.00  0.00    +0.262 C 
BRANCH  17  18
ATOM     18  S   UNL     1       1.960  -2.641  -0.033  0.00  0.00    -0.020 S 
ATOM     19  O   UNL     1       3.178  -1.957  -0.296  0.00  0.00    -0.174 OA
ATOM     20  O   UNL     1       1.411  -2.594   1.277  0.00  0.00    -0.174 OA
BRANCH  18  21
ATOM     21  C   UNL     1       0.707  -2.051  -1.203  0.00  0.00    +0.131 C 
BRANCH  21  22
ATOM     22  C   UNL     1       0.513  -0.543  -1.027  0.00  0.00    +0.026 C 
BRANCH  22  24
ATOM     23  C   UNL     1      -0.258   1.245   0.538  0.00  0.00    +0.004 C 
ATOM     24  C   UNL     1      -0.065  -0.262   0.362  0.00  0.00    -0.002 C 
ENDBRANCH  22  24
ENDBRANCH  21  22
BRANCH  21  25
ATOM     25  C   UNL     1       1.166  -2.342  -2.633  0.00  0.00    +0.026 C 
BRANCH  25  26
ATOM     26  C   UNL     1       0.051  -1.974  -3.613  0.00  0.00    -0.002 C 
ATOM     27  C   UNL     1       0.460  -2.382  -5.029  0.00  0.00    +0.004 C 
ENDBRANCH  25  26
ENDBRANCH  21  25
ENDBRANCH  18  21
ENDBRANCH  17  18
ENDBRANCH   1  17
TORSDOF 12
