REMARK  Name = ZINC12802819
REMARK  6 active torsions:
REMARK  status: ('A' for Active; 'I' for Inactive)
REMARK    1  A    between atoms: C_1  and  C_2
REMARK    2  A    between atoms: C_2  and  C_4
REMARK    3  A    between atoms: C_2  and  N_14
REMARK    4  A    between atoms: C_15  and  C_17
REMARK    5  A    between atoms: N_20  and  S_23
REMARK    6  A    between atoms: S_23  and  C_26
REMARK                            x       y       z     vdW  Elec       q    Type
REMARK                         _______ _______ _______ _____ _____    ______ ____
ROOT
ATOM      1  C   UNL     1      -6.633   0.043  -2.185  0.00  0.00    +0.077 C 
ATOM      2  C   UNL     1      -7.406   1.162  -1.484  0.00  0.00    +0.030 C 
ATOM      3  C   UNL     1      -8.396   1.790  -2.471  0.00  0.00    +0.110 C 
ATOM      4  N   UNL     1      -9.244   0.729  -3.029  0.00  0.00    -0.176 NA
ATOM      5  C   UNL     1      -8.600  -0.439  -3.647  0.00  0.00    +0.110 C 
ATOM      6  C   UNL     1      -7.608  -1.042  -2.647  0.00  0.00    +0.030 C 
ENDROOT
BRANCH   1   8
ATOM      7  N   UNL     1      -4.672   0.220  -0.688  0.00  0.00    -0.309 N 
ATOM      8  C   UNL     1      -5.634  -0.554  -1.228  0.00  0.00    +0.217 C 
ATOM      9  O   UNL     1      -5.697  -1.731  -0.942  0.00  0.00    -0.275 OA
ATOM     10  H   UNL     1      -4.622   1.162  -0.916  0.00  0.00    +0.149 HD
BRANCH   7  12
ATOM     11  C   UNL     1      -4.288  -0.362   1.656  0.00  0.00    +0.033 C 
ATOM     12  C   UNL     1      -3.701  -0.360   0.243  0.00  0.00    +0.100 C 
BRANCH  12  13
ATOM     13  C   UNL     1      -2.436   0.458   0.225  0.00  0.00    -0.024 A 
ATOM     14  C   UNL     1      -2.507   1.837   0.160  0.00  0.00    +0.009 A 
ATOM     15  C   UNL     1      -1.349   2.591   0.139  0.00  0.00    +0.050 A 
ATOM     16  C   UNL     1      -0.112   1.966   0.190  0.00  0.00    +0.162 A 
ATOM     17  C   UNL     1      -0.041   0.580   0.257  0.00  0.00    +0.162 A 
ATOM     18  C   UNL     1      -1.207  -0.171   0.274  0.00  0.00    +0.055 A 
ATOM     19  O   UNL     1       1.163  -0.053   0.309  0.00  0.00    -0.485 OA
ATOM     20  C   UNL     1       2.308   0.708  -0.088  0.00  0.00    +0.270 C 
ATOM     21  C   UNL     1       2.229   2.083   0.590  0.00  0.00    +0.270 C 
ATOM     22  O   UNL     1       1.020   2.722   0.167  0.00  0.00    -0.485 OA
ENDBRANCH  12  13
ENDBRANCH   7  12
ENDBRANCH   1   8
BRANCH   4  23
ATOM     23  S   UNL     1     -10.895   0.846  -2.964  0.00  0.00    +0.062 S 
ATOM     24  O   UNL     1     -11.194   2.206  -2.685  0.00  0.00    -0.153 OA
ATOM     25  O   UNL     1     -11.395   0.176  -4.114  0.00  0.00    -0.153 OA
BRANCH  23  26
ATOM     26  C   UNL     1     -11.428  -0.085  -1.567  0.00  0.00    +0.125 A 
ATOM     27  C   UNL     1     -12.164  -1.242  -1.747  0.00  0.00    +0.050 A 
ATOM     28  C   UNL     1     -12.579  -1.975  -0.650  0.00  0.00    +0.043 A 
ATOM     29  C   UNL     1     -12.266  -1.546   0.628  0.00  0.00    +0.021 A 
ATOM     30  C   UNL     1     -11.535  -0.387   0.808  0.00  0.00    +0.023 A 
ATOM     31  C   UNL     1     -11.116   0.344  -0.289  0.00  0.00    +0.067 A 
ATOM     32 CL   UNL     1     -10.198   1.800  -0.063  0.00  0.00    -0.082 Cl
ATOM     33 CL   UNL     1     -13.497  -3.431  -0.876  0.00  0.00    -0.083 Cl
ENDBRANCH  23  26
ENDBRANCH   4  23
TORSDOF 5
