REMARK  Name = ZINC02264373
REMARK  4 active torsions:
REMARK  status: ('A' for Active; 'I' for Inactive)
REMARK    1  A    between atoms: C_1  and  C_2
REMARK    2  A    between atoms: C_9  and  N_27
REMARK    3  A    between atoms: C_10  and  C_13
REMARK    4  A    between atoms: N_17  and  C_21
REMARK                            x       y       z     vdW  Elec       q    Type
REMARK                         _______ _______ _______ _____ _____    ______ ____
ROOT
ATOM      1  C   UNL     1       1.374  -2.276   0.431  0.00  0.00    +0.047 C 
ATOM      2  C   UNL     1       1.268  -0.808   0.104  0.00  0.00    -0.007 A 
ATOM      3  C   UNL     1       0.049  -0.244  -0.130  0.00  0.00    +0.008 A 
ATOM      4  C   UNL     1      -0.033   1.122  -0.433  0.00  0.00    +0.019 A 
ATOM      5  C   UNL     1       1.090   1.873  -0.492  0.00  0.00    +0.096 A 
ATOM      6  N   UNL     1       2.313   1.318  -0.259  0.00  0.00    -0.267 N 
ATOM      7  C   UNL     1       2.425  -0.012   0.038  0.00  0.00    +0.145 A 
ATOM      8  N   UNL     1       3.613  -0.573   0.269  0.00  0.00    -0.213 NA
ATOM      9  C   UNL     1       4.735   0.129   0.218  0.00  0.00    +0.136 A 
ATOM     10  C   UNL     1       4.681   1.510  -0.085  0.00  0.00    +0.081 A 
ATOM     11  C   UNL     1       3.415   2.095  -0.326  0.00  0.00    +0.267 A 
ATOM     12  O   UNL     1       3.321   3.282  -0.590  0.00  0.00    -0.267 OA
ENDROOT
BRANCH   9  13
ATOM     13  N   UNL     1       5.947  -0.481   0.460  0.00  0.00    -0.310 N 
ATOM     14  C   UNL     1       5.804  -1.945   0.484  0.00  0.00    +0.111 C 
ATOM     15  C   UNL     1       7.197  -2.570   0.386  0.00  0.00    +0.054 C 
ATOM     16  C   UNL     1       8.113  -1.946   1.406  0.00  0.00    -0.041 A 
ATOM     17  C   UNL     1       9.295  -2.600   1.722  0.00  0.00    +0.004 A 
ATOM     18  C   UNL     1      10.165  -2.061   2.648  0.00  0.00    +0.000 A 
ATOM     19  C   UNL     1       9.857  -0.862   3.264  0.00  0.00    +0.000 A 
ATOM     20  C   UNL     1       8.681  -0.211   2.952  0.00  0.00    +0.005 A 
ATOM     21  C   UNL     1       7.804  -0.752   2.023  0.00  0.00    -0.027 A 
ATOM     22  C   UNL     1       6.531  -0.007   1.718  0.00  0.00    +0.142 C 
ENDBRANCH   9  13
BRANCH  10  23
ATOM     23  C   UNL     1       5.862   2.286  -0.144  0.00  0.00    +0.037 C 
ATOM     24  C   UNL     1       6.872   1.927  -0.989  0.00  0.00    +0.077 C 
ATOM     25  C   UNL     1       8.170   2.493  -1.140  0.00  0.00    +0.259 C 
ATOM     26  O   UNL     1       8.524   3.441  -0.460  0.00  0.00    -0.269 OA
ATOM     27  N   UNL     1       8.982   1.958  -2.035  0.00  0.00    -0.252 N 
ATOM     28  C   UNL     1       8.588   0.912  -2.794  0.00  0.00    +0.121 C 
ATOM     29  S   UNL     1       9.460   0.075  -4.006  0.00  0.00    -0.027 S 
ATOM     30  S   UNL     1       6.924   0.624  -2.211  0.00  0.00    -0.061 S 
BRANCH  27  31
ATOM     31  C   UNL     1      10.327   2.512  -2.212  0.00  0.00    +0.083 C 
ATOM     32  C   UNL     1      10.489   3.008  -3.651  0.00  0.00    +0.023 C 
ATOM     33  C   UNL     1      11.893   3.587  -3.836  0.00  0.00    +0.002 C 
ATOM     34  C   UNL     1      12.933   2.502  -3.551  0.00  0.00    +0.000 C 
ATOM     35  C   UNL     1      12.772   2.006  -2.112  0.00  0.00    +0.002 C 
ATOM     36  C   UNL     1      11.367   1.427  -1.927  0.00  0.00    +0.023 C 
ENDBRANCH  27  31
ENDBRANCH  10  23
TORSDOF 3
