REMARK  Name = ZINC13330370
REMARK  7 active torsions:
REMARK  status: ('A' for Active; 'I' for Inactive)
REMARK    1  A    between atoms: C_1  and  C_2
REMARK    2  A    between atoms: C_5  and  N_9
REMARK    3  A    between atoms: C_7  and  C_8
REMARK    4  A    between atoms: N_9  and  C_10
REMARK    5  A    between atoms: C_10  and  N_12
REMARK    6  A    between atoms: N_16  and  C_18
REMARK    7  A    between atoms: C_18  and  C_19
REMARK                            x       y       z     vdW  Elec       q    Type
REMARK                         _______ _______ _______ _____ _____    ______ ____
ROOT
ATOM      1  N   UNL     1      -4.783   3.805  -0.133  0.00  0.00    -0.280 N 
ATOM      2  C   UNL     1      -5.993   3.098  -0.125  0.00  0.00    +0.146 A 
ATOM      3  C   UNL     1      -7.278   3.663  -0.109  0.00  0.00    +0.065 A 
ATOM      4  C   UNL     1      -8.176   2.651  -0.109  0.00  0.00    +0.110 A 
ATOM      5  N   UNL     1      -7.490   1.489  -0.116  0.00  0.00    -0.265 N 
ATOM      6  N   UNL     1      -6.123   1.792  -0.126  0.00  0.00    -0.156 NA
ATOM      7  H   UNL     1      -4.787   4.772  -0.207  0.00  0.00    +0.155 HD
ENDROOT
BRANCH   1   8
ATOM      8  C   UNL     1      -3.614   3.141  -0.039  0.00  0.00    +0.140 C 
ATOM      9  S   UNL     1      -3.599   1.429  -0.043  0.00  0.00    -0.018 S 
BRANCH   8  10
ATOM     10  N   UNL     1      -2.456   3.824   0.059  0.00  0.00    -0.297 N 
ATOM     11  H   UNL     1      -2.470   4.790   0.145  0.00  0.00    +0.154 HD
BRANCH  10  16
ATOM     12  C   UNL     1       2.492   1.052  -0.032  0.00  0.00    +0.044 C 
ATOM     13  C   UNL     1       1.177   1.788  -0.008  0.00  0.00    -0.047 A 
ATOM     14  C   UNL     1       0.158   1.409  -0.862  0.00  0.00    +0.005 A 
ATOM     15  C   UNL     1      -1.046   2.085  -0.846  0.00  0.00    +0.023 A 
ATOM     16  C   UNL     1      -1.236   3.141   0.037  0.00  0.00    +0.033 A 
ATOM     17  C   UNL     1      -0.210   3.520   0.892  0.00  0.00    +0.027 A 
ATOM     18  C   UNL     1       0.993   2.843   0.867  0.00  0.00    -0.046 A 
ATOM     19  C   UNL     1       2.107   3.254   1.796  0.00  0.00    +0.044 C 
ENDBRANCH  10  16
ENDBRANCH   8  10
ENDBRANCH   1   8
BRANCH   5  20
ATOM     20  C   UNL     1      -8.074   0.145  -0.113  0.00  0.00    +0.178 C 
BRANCH  20  21
ATOM     21  C   UNL     1      -7.535  -0.639  -1.281  0.00  0.00    -0.025 A 
ATOM     22  C   UNL     1      -6.383  -1.390  -1.137  0.00  0.00    +0.007 A 
ATOM     23  C   UNL     1      -5.888  -2.110  -2.207  0.00  0.00    +0.022 A 
ATOM     24  C   UNL     1      -6.545  -2.080  -3.424  0.00  0.00    +0.059 A 
ATOM     25  C   UNL     1      -7.699  -1.328  -3.569  0.00  0.00    +0.060 A 
ATOM     26  C   UNL     1      -8.196  -0.612  -2.495  0.00  0.00    +0.027 A 
ATOM     27 CL   UNL     1      -8.524  -1.289  -5.096  0.00  0.00    -0.082 Cl
ATOM     28 CL   UNL     1      -5.924  -2.984  -4.770  0.00  0.00    -0.082 Cl
ENDBRANCH  20  21
ENDBRANCH   5  20
TORSDOF 5
