REMARK  Name = ZINC03913090
REMARK  3 active torsions:
REMARK  status: ('A' for Active; 'I' for Inactive)
REMARK    1  A    between atoms: C_1  and  O_2
REMARK    2  A    between atoms: O_2  and  C_3
REMARK    3  A    between atoms: C_6  and  N_10
REMARK                            x       y       z     vdW  Elec       q    Type
REMARK                         _______ _______ _______ _____ _____    ______ ____
ROOT
ATOM      1  N   UNL     1      -4.342   1.034  -0.023  0.00  0.00    -0.210 N 
ATOM      2  C   UNL     1      -3.578   1.306  -1.132  0.00  0.00    +0.231 C 
ATOM      3  O   UNL     1      -3.953   1.776  -2.185  0.00  0.00    -0.274 OA
ATOM      4  C   UNL     1      -2.189   0.901  -0.767  0.00  0.00    +0.095 C 
ATOM      5  C   UNL     1      -0.938   1.690  -1.145  0.00  0.00    +0.025 C 
ATOM      6  C   UNL     1      -0.013   1.086   0.008  0.00  0.00    +0.016 C 
ATOM      7  C   UNL     1      -0.909   1.674   1.177  0.00  0.00    +0.025 C 
ATOM      8  C   UNL     1      -2.302   1.365   0.734  0.00  0.00    +0.095 C 
ATOM      9  C   UNL     1      -3.577   0.829   1.112  0.00  0.00    +0.231 C 
ATOM     10  O   UNL     1      -3.903   0.322   2.164  0.00  0.00    -0.274 OA
ATOM     11  C   UNL     1      -0.877   3.159   0.697  0.00  0.00    -0.027 C 
ATOM     12  C   UNL     1      -0.956   3.122  -0.631  0.00  0.00    -0.027 C 
ENDROOT
BRANCH   1  16
ATOM     13  C   UNL     1      -8.511   0.851  -0.069  0.00  0.00    +0.138 A 
ATOM     14  C   UNL     1      -7.820   0.631   1.113  0.00  0.00    +0.049 A 
ATOM     15  C   UNL     1      -6.440   0.692   1.129  0.00  0.00    +0.027 A 
ATOM     16  C   UNL     1      -5.744   0.973  -0.039  0.00  0.00    +0.045 A 
ATOM     17  C   UNL     1      -6.436   1.198  -1.221  0.00  0.00    +0.047 A 
ATOM     18  C   UNL     1      -7.816   1.133  -1.237  0.00  0.00    +0.084 A 
ATOM     19 CL   UNL     1      -8.681   1.409  -2.717  0.00  0.00    -0.080 Cl
BRANCH  13  21
ATOM     20  C   UNL     1     -10.519   0.497   1.154  0.00  0.00    +0.277 C 
ATOM     21  O   UNL     1      -9.869   0.791  -0.084  0.00  0.00    -0.494 OA
ENDBRANCH  13  21
ENDBRANCH   1  16
TORSDOF 2
