REMARK  Name = ZINC13577031
REMARK  6 active torsions:
REMARK  status: ('A' for Active; 'I' for Inactive)
REMARK    1  A    between atoms: C_1  and  C_2
REMARK    2  A    between atoms: C_2  and  N_3
REMARK    3  A    between atoms: C_12  and  C_15
REMARK    4  A    between atoms: C_18  and  C_20
REMARK    5  A    between atoms: N_25  and  C_28
REMARK    6  A    between atoms: C_28  and  C_29
REMARK                            x       y       z     vdW  Elec       q    Type
REMARK                         _______ _______ _______ _____ _____    ______ ____
ROOT
ATOM      1  N   UNL     1      -1.440  -0.449   0.087  0.00  0.00    -0.312 N 
ATOM      2  C   UNL     1      -2.108  -0.632   1.286  0.00  0.00    +0.109 A 
ATOM      3  C   UNL     1      -3.486  -0.800   1.315  0.00  0.00    +0.057 A 
ATOM      4  C   UNL     1      -4.117  -0.975   2.546  0.00  0.00    +0.263 A 
ATOM      5  O   UNL     1      -5.329  -1.122   2.605  0.00  0.00    -0.267 OA
ATOM      6  N   UNL     1      -3.374  -0.980   3.672  0.00  0.00    -0.269 N 
ATOM      7  C   UNL     1      -3.983  -1.148   4.880  0.00  0.00    +0.096 A 
ATOM      8  C   UNL     1      -3.261  -1.160   6.022  0.00  0.00    +0.019 A 
ATOM      9  C   UNL     1      -1.868  -1.000   5.979  0.00  0.00    +0.008 A 
ATOM     10  C   UNL     1      -1.250  -0.830   4.777  0.00  0.00    -0.009 A 
ATOM     11  C   UNL     1      -2.018  -0.818   3.598  0.00  0.00    +0.122 A 
ATOM     12  N   UNL     1      -1.415  -0.647   2.425  0.00  0.00    -0.329 N 
ATOM     13  C   UNL     1       0.246  -0.655   4.711  0.00  0.00    +0.047 C 
ATOM     14  C   UNL     1      -4.309  -0.802   0.056  0.00  0.00    +0.071 C 
ATOM     15  C   UNL     1      -3.545  -0.114  -1.078  0.00  0.00    +0.147 C 
ATOM     16  C   UNL     1      -2.145  -0.729  -1.171  0.00  0.00    +0.096 C 
ATOM     17  C   UNL     1      -2.261  -2.241  -1.374  0.00  0.00    +0.029 C 
ATOM     18  C   UNL     1      -3.421   1.353  -0.781  0.00  0.00    +0.257 C 
ATOM     19  N   UNL     1      -3.907   2.283  -1.590  0.00  0.00    -0.127 NA
ATOM     20  C   UNL     1      -4.532   1.990  -2.709  0.00  0.00    +0.335 C 
ATOM     21  O   UNL     1      -4.999   2.989  -3.480  0.00  0.00    -0.250 OA
ATOM     22  N   UNL     1      -4.718   0.701  -3.109  0.00  0.00    -0.219 N 
ATOM     23  C   UNL     1      -4.271  -0.331  -2.377  0.00  0.00    +0.241 C 
ATOM     24  O   UNL     1      -4.456  -1.462  -2.770  0.00  0.00    -0.274 OA
ATOM     25  O   UNL     1      -2.856   1.700   0.237  0.00  0.00    -0.272 OA
ATOM     26  H   UNL     1      -0.452  -0.532   2.397  0.00  0.00    +0.168 HD
ENDROOT
BRANCH   1  28
ATOM     27  C   UNL     1      -0.036   1.552   0.025  0.00  0.00    +0.024 C 
ATOM     28  C   UNL     1      -0.053   0.023   0.073  0.00  0.00    +0.103 C 
ENDBRANCH   1  28
BRANCH  22  29
ATOM     29  C   UNL     1      -5.420   0.435  -4.367  0.00  0.00    +0.154 C 
BRANCH  29  30
ATOM     30  C   UNL     1      -4.458   0.571  -5.519  0.00  0.00    -0.011 A 
ATOM     31  C   UNL     1      -4.344   1.776  -6.186  0.00  0.00    +0.006 A 
ATOM     32  C   UNL     1      -3.462   1.901  -7.242  0.00  0.00    +0.000 A 
ATOM     33  C   UNL     1      -2.692   0.820  -7.633  0.00  0.00    +0.001 A 
ATOM     34  C   UNL     1      -2.805  -0.385  -6.966  0.00  0.00    +0.020 A 
ATOM     35  C   UNL     1      -3.684  -0.509  -5.905  0.00  0.00    +0.046 A 
ATOM     36 CL   UNL     1      -3.822  -2.021  -5.063  0.00  0.00    -0.083 Cl
ENDBRANCH  29  30
ENDBRANCH  22  29
TORSDOF 3
