REMARK  Name = ZINC46861449
REMARK  6 active torsions:
REMARK  status: ('A' for Active; 'I' for Inactive)
REMARK    1  A    between atoms: C_1  and  N_2
REMARK    2  A    between atoms: C_14  and  C_15
REMARK    3  A    between atoms: C_15  and  S_16
REMARK    4  A    between atoms: S_16  and  C_17
REMARK    5  A    between atoms: C_20  and  C_23
REMARK    6  A    between atoms: N_21  and  N_22
REMARK                            x       y       z     vdW  Elec       q    Type
REMARK                         _______ _______ _______ _____ _____    ______ ____
ROOT
ATOM      1  S   UNL     1       1.770  -4.453   3.091  0.00  0.00    -0.077 S 
ENDROOT
BRANCH   1   2
ATOM      2  C   UNL     1       1.637  -6.046   3.834  0.00  0.00    +0.209 A 
ATOM      3  N   UNL     1       0.529  -6.633   4.226  0.00  0.00    -0.121 NA
ATOM      4  N   UNL     1       0.793  -7.788   4.724  0.00  0.00    -0.127 NA
ATOM      5  C   UNL     1       2.087  -8.009   4.680  0.00  0.00    +0.183 A 
ATOM      6  N   UNL     1       2.666  -6.903   4.103  0.00  0.00    -0.224 N 
BRANCH   5   7
ATOM      7  C   UNL     1       2.787  -9.221   5.155  0.00  0.00    +0.039 A 
ATOM      8  C   UNL     1       3.925  -9.105   5.955  0.00  0.00    +0.014 A 
ATOM      9  C   UNL     1       4.574 -10.239   6.395  0.00  0.00    +0.021 A 
ATOM     10  C   UNL     1       4.100 -11.492   6.046  0.00  0.00    +0.042 A 
ATOM     11  C   UNL     1       2.972 -11.615   5.253  0.00  0.00    +0.040 A 
ATOM     12  C   UNL     1       2.310 -10.488   4.810  0.00  0.00    +0.053 A 
ATOM     13 CL   UNL     1       0.891 -10.643   3.822  0.00  0.00    -0.083 Cl
ATOM     14 CL   UNL     1       4.923 -12.915   6.604  0.00  0.00    -0.083 Cl
ENDBRANCH   5   7
BRANCH   6  15
ATOM     15  N   UNL     1       3.994  -6.702   3.854  0.00  0.00    -0.295 N 
ATOM     16  H   UNL     1       4.464  -6.338   4.669  0.00  0.00    +0.163 HD
ATOM     17  H   UNL     1       4.434  -7.551   3.531  0.00  0.00    +0.163 HD
ENDBRANCH   6  15
ENDBRANCH   1   2
BRANCH   1  18
ATOM     18  C   UNL     1       0.058  -3.857   3.022  0.00  0.00    +0.154 C 
BRANCH  18  32
ATOM     19  C   UNL     1      -0.162   1.248  -0.337  0.00  0.00    +0.155 C 
ATOM     20  N   UNL     1      -0.192  -0.214  -0.256  0.00  0.00    -0.279 N 
ATOM     21  C   UNL     1      -0.332  -0.953  -1.379  0.00  0.00    +0.269 A 
ATOM     22  O   UNL     1      -0.432  -0.407  -2.463  0.00  0.00    -0.266 OA
ATOM     23  C   UNL     1      -0.360  -2.350  -1.287  0.00  0.00    +0.101 A 
ATOM     24  C   UNL     1      -0.247  -3.010  -0.062  0.00  0.00    +0.071 A 
ATOM     25  C   UNL     1      -0.295  -4.398  -0.167  0.00  0.00    +0.034 A 
ATOM     26  C   UNL     1      -0.440  -4.973  -1.380  0.00  0.00    +0.048 A 
ATOM     27  S   UNL     1      -0.519  -3.679  -2.450  0.00  0.00    -0.090 S 
ATOM     28  N   UNL     1      -0.104  -2.200   1.073  0.00  0.00    -0.263 N 
ATOM     29  C   UNL     1      -0.073  -0.842   0.970  0.00  0.00    +0.239 A 
ATOM     30  N   UNL     1       0.075  -0.372   2.189  0.00  0.00    -0.110 NA
ATOM     31  N   UNL     1       0.142  -1.346   3.027  0.00  0.00    -0.131 NA
ATOM     32  C   UNL     1       0.029  -2.485   2.400  0.00  0.00    +0.150 A 
ENDBRANCH  18  32
ENDBRANCH   1  18
TORSDOF 5
