REMARK  Name = ZINC63140717
REMARK  6 active torsions:
REMARK  status: ('A' for Active; 'I' for Inactive)
REMARK    1  A    between atoms: C_1  and  C_2
REMARK    2  A    between atoms: C_7  and  C_8
REMARK    3  A    between atoms: N_27  and  C_30
REMARK    4  A    between atoms: C_30  and  C_31
REMARK    5  A    between atoms: C_36  and  O_37
REMARK    6  A    between atoms: O_37  and  C_38
REMARK                            x       y       z     vdW  Elec       q    Type
REMARK                         _______ _______ _______ _____ _____    ______ ____
ROOT
ATOM      1  C   UNL     1       0.184   0.171   2.423  0.00  0.00    +0.134 C 
ATOM      2  C   UNL     1       1.584   0.777   2.558  0.00  0.00    +0.131 C 
ATOM      3  C   UNL     1       2.535  -0.377   2.849  0.00  0.00    -0.034 C 
ATOM      4  C   UNL     1       3.477  -0.331   1.915  0.00  0.00    -0.001 A 
ATOM      5  C   UNL     1       4.696  -1.131   1.712  0.00  0.00    +0.010 A 
ATOM      6  C   UNL     1       5.445  -0.817   0.623  0.00  0.00    +0.001 A 
ATOM      7  C   UNL     1       5.108   0.201  -0.276  0.00  0.00    +0.002 A 
ATOM      8  C   UNL     1       4.009   0.990  -0.164  0.00  0.00    +0.026 A 
ATOM      9  C   UNL     1       3.145   0.758   0.946  0.00  0.00    +0.043 A 
ATOM     10  N   UNL     1       2.040   1.383   1.306  0.00  0.00    -0.375 N 
ATOM     11  C   UNL     1       2.293  -1.362   3.966  0.00  0.00    +0.065 C 
ATOM     12  C   UNL     1       0.839  -1.846   3.817  0.00  0.00    +0.167 C 
ATOM     13  N   UNL     1      -0.044  -0.704   3.595  0.00  0.00    -0.279 N 
ATOM     14  C   UNL     1      -1.060  -0.403   4.413  0.00  0.00    +0.234 C 
ATOM     15  O   UNL     1      -1.722   0.579   4.151  0.00  0.00    -0.274 OA
ATOM     16  C   UNL     1      -1.437  -1.192   5.623  0.00  0.00    +0.204 C 
ATOM     17  N   UNL     1      -0.574  -2.345   5.819  0.00  0.00    -0.287 N 
ATOM     18  C   UNL     1       0.451  -2.646   5.017  0.00  0.00    +0.237 C 
ATOM     19  O   UNL     1       1.105  -3.633   5.277  0.00  0.00    -0.274 OA
ATOM     20  H   UNL     1       1.601   2.108   0.833  0.00  0.00    +0.160 HD
ENDROOT
BRANCH   1  27
ATOM     21  C   UNL     1      -1.761   0.852   0.398  0.00  0.00    +0.044 C 
ATOM     22  C   UNL     1      -0.832  -0.315   0.188  0.00  0.00    -0.045 A 
ATOM     23  C   UNL     1      -0.906  -1.057  -0.977  0.00  0.00    +0.004 A 
ATOM     24  C   UNL     1      -0.053  -2.127  -1.170  0.00  0.00    +0.000 A 
ATOM     25  C   UNL     1       0.874  -2.457  -0.199  0.00  0.00    +0.000 A 
ATOM     26  C   UNL     1       0.949  -1.715   0.965  0.00  0.00    +0.006 A 
ATOM     27  C   UNL     1       0.099  -0.641   1.156  0.00  0.00    -0.022 A 
ENDBRANCH   1  27
BRANCH  17  28
ATOM     28  C   UNL     1      -0.840  -3.223   6.961  0.00  0.00    +0.147 C 
BRANCH  28  29
ATOM     29  C   UNL     1      -1.798  -4.310   6.545  0.00  0.00    +0.011 A 
ATOM     30  C   UNL     1      -3.140  -4.203   6.854  0.00  0.00    +0.009 A 
ATOM     31  C   UNL     1      -4.019  -5.200   6.474  0.00  0.00    +0.001 A 
ATOM     32  C   UNL     1      -3.558  -6.306   5.784  0.00  0.00    +0.004 A 
ATOM     33  C   UNL     1      -2.217  -6.417   5.473  0.00  0.00    +0.046 A 
ATOM     34  C   UNL     1      -1.333  -5.415   5.848  0.00  0.00    +0.125 A 
BRANCH  34  35
ATOM     35  O   UNL     1      -0.014  -5.519   5.538  0.00  0.00    -0.495 OA
ATOM     36  C   UNL     1       0.393  -6.685   4.819  0.00  0.00    +0.277 C 
ENDBRANCH  34  35
ENDBRANCH  28  29
ENDBRANCH  17  28
TORSDOF 4
