REMARK  Name = ZINC66178408
REMARK  7 active torsions:
REMARK  status: ('A' for Active; 'I' for Inactive)
REMARK    1  A    between atoms: C_1  and  N_2
REMARK    2  A    between atoms: N_2  and  C_3
REMARK    3  A    between atoms: N_2  and  C_4
REMARK    4  A    between atoms: C_4  and  C_6
REMARK    5  A    between atoms: C_4  and  C_21
REMARK    6  A    between atoms: C_6  and  N_7
REMARK    7  A    between atoms: C_13  and  N_16
REMARK                            x       y       z     vdW  Elec       q    Type
REMARK                         _______ _______ _______ _____ _____    ______ ____
ROOT
ATOM      1  N   UNL     1       0.073  -2.014   0.995  0.00  0.00    -0.300 N 
ATOM      2  C   UNL     1       0.492  -3.276   1.210  0.00  0.00    +0.302 C 
ATOM      3  O   UNL     1       0.136  -4.170   0.465  0.00  0.00    -0.253 OA
ATOM      4  N   UNL     1       1.304  -3.549   2.250  0.00  0.00    -0.287 N 
ATOM      5  C   UNL     1       1.803  -2.570   3.227  0.00  0.00    +0.108 C 
ATOM      6  C   UNL     1       2.714  -3.331   4.213  0.00  0.00    +0.005 C 
ATOM      7  C   UNL     1       3.129  -4.588   3.404  0.00  0.00    -0.049 C 
ATOM      8  C   UNL     1       1.835  -4.879   2.600  0.00  0.00    +0.094 C 
ATOM      9  H   UNL     1       0.356  -1.301   1.588  0.00  0.00    +0.150 HD
ENDROOT
BRANCH   7  10
ATOM     10  N   UNL     1       3.454  -5.707   4.298  0.00  0.00    +0.383 N 
ATOM     11  C   UNL     1       3.933  -6.871   3.510  0.00  0.00    -0.078 C 
ATOM     12  C   UNL     1       4.736  -7.696   4.547  0.00  0.00    -0.020 C 
ATOM     13  C   UNL     1       5.424  -6.604   5.398  0.00  0.00    -0.020 C 
ATOM     14  C   UNL     1       4.574  -5.337   5.191  0.00  0.00    -0.078 C 
ATOM     15  H   UNL     1       2.645  -5.963   4.844  0.00  0.00    -0.081 HD
ENDBRANCH   7  10
BRANCH   1  16
ATOM     16  C   UNL     1      -0.810  -1.717  -0.136  0.00  0.00    +0.095 C 
BRANCH  16  17
ATOM     17  C   UNL     1      -1.238  -0.249  -0.078  0.00  0.00    -0.020 C 
BRANCH  17  18
ATOM     18  C   UNL     1      -2.079  -0.019   1.150  0.00  0.00    -0.052 A 
ATOM     19  C   UNL     1      -1.526   0.550   2.283  0.00  0.00    +0.009 A 
ATOM     20  C   UNL     1      -2.311   0.743   3.371  0.00  0.00    +0.045 A 
ATOM     21  S   UNL     1      -3.884   0.113   2.809  0.00  0.00    -0.105 S 
ATOM     22  C   UNL     1      -3.391  -0.361   1.160  0.00  0.00    +0.047 A 
ENDBRANCH  17  18
BRANCH  17  24
ATOM     23  C   UNL     1      -2.469   1.477  -1.200  0.00  0.00    -0.096 C 
ATOM     24  N   UNL     1      -2.021   0.081  -1.277  0.00  0.00    +0.382 N 
ATOM     25  C   UNL     1      -1.186  -0.101  -2.472  0.00  0.00    -0.096 C 
ATOM     26  H   UNL     1      -2.824  -0.528  -1.332  0.00  0.00    -0.082 HD
ENDBRANCH  17  24
ENDBRANCH  16  17
ENDBRANCH   1  16
TORSDOF 5
