REMARK  Name = ZINC18046510
REMARK  3 active torsions:
REMARK  status: ('A' for Active; 'I' for Inactive)
REMARK    1  A    between atoms: C_4  and  C_7
REMARK    2  A    between atoms: C_7  and  C_9
REMARK    3  A    between atoms: N_24  and  C_27
REMARK                            x       y       z     vdW  Elec       q    Type
REMARK                         _______ _______ _______ _____ _____    ______ ____
ROOT
ATOM      1  C   UNL     1       3.695  -2.157  -0.074  0.00  0.00    +0.176 C 
ATOM      2  C   UNL     1       3.484  -2.716  -1.497  0.00  0.00    +0.119 C 
ATOM      3  C   UNL     1       4.307  -4.037  -1.501  0.00  0.00    +0.116 C 
ATOM      4  C   UNL     1       5.334  -3.873  -0.379  0.00  0.00    +0.129 C 
ATOM      5  N   UNL     1       5.009  -2.629   0.349  0.00  0.00    -0.237 N 
ATOM      6  N   UNL     1       5.918  -2.027   1.235  0.00  0.00    -0.191 NA
ATOM      7  C   UNL     1       7.186  -2.186   0.942  0.00  0.00    +0.130 C 
ATOM      8  C   UNL     1       7.577  -2.928  -0.261  0.00  0.00    +0.019 C 
ATOM      9  C   UNL     1       6.735  -3.755  -0.927  0.00  0.00    -0.001 C 
ATOM     10  C   UNL     1       3.263  -5.066  -1.117  0.00  0.00    +0.232 C 
ATOM     11  O   UNL     1       3.490  -6.186  -0.712  0.00  0.00    -0.274 OA
ATOM     12  N   UNL     1       2.047  -4.531  -1.300  0.00  0.00    -0.210 N 
ATOM     13  C   UNL     1       2.055  -3.207  -1.623  0.00  0.00    +0.232 C 
ATOM     14  O   UNL     1       1.103  -2.535  -1.956  0.00  0.00    -0.274 OA
ENDROOT
BRANCH  12  15
ATOM     15  C   UNL     1       0.863  -5.271  -1.171  0.00  0.00    +0.044 A 
ATOM     16  C   UNL     1      -0.368  -4.632  -1.247  0.00  0.00    +0.025 A 
ATOM     17  C   UNL     1      -1.533  -5.362  -1.121  0.00  0.00    +0.017 A 
ATOM     18  C   UNL     1      -1.475  -6.730  -0.918  0.00  0.00    +0.018 A 
ATOM     19  C   UNL     1      -0.250  -7.369  -0.842  0.00  0.00    +0.017 A 
ATOM     20  C   UNL     1       0.918  -6.644  -0.974  0.00  0.00    +0.025 A 
ATOM     21 BR   UNL     1      -3.072  -7.727  -0.744  0.00  0.00    -0.050 Br
ENDBRANCH  12  15
BRANCH   1  22
ATOM     22  C   UNL     1       3.667  -0.650  -0.097  0.00  0.00    +0.186 C 
ATOM     23  O   UNL     1       4.705  -0.025  -0.104  0.00  0.00    -0.290 OA
BRANCH  22  27
ATOM     24  C   UNL     1      -0.046   1.401  -0.140  0.00  0.00    +0.000 A 
ATOM     25  C   UNL     1       1.137   2.119  -0.147  0.00  0.00    +0.001 A 
ATOM     26  C   UNL     1       2.348   1.459  -0.133  0.00  0.00    +0.011 A 
ATOM     27  C   UNL     1       2.379   0.061  -0.112  0.00  0.00    +0.019 A 
ATOM     28  C   UNL     1       1.179  -0.657  -0.104  0.00  0.00    +0.011 A 
ATOM     29  C   UNL     1      -0.024   0.017  -0.119  0.00  0.00    +0.001 A 
ENDBRANCH  22  27
ENDBRANCH   1  22
TORSDOF 3
