REMARK  Name = ZINC05123608
REMARK  4 active torsions:
REMARK  status: ('A' for Active; 'I' for Inactive)
REMARK    1  A    between atoms: C_1  and  C_2
REMARK    2  A    between atoms: C_5  and  N_8
REMARK    3  A    between atoms: C_10  and  N_15
REMARK    4  A    between atoms: C_22  and  C_28
REMARK                            x       y       z     vdW  Elec       q    Type
REMARK                         _______ _______ _______ _____ _____    ______ ____
ROOT
ATOM      1  N   UNL     1      -0.323  -7.444  -1.496  0.00  0.00    -0.294 N 
ATOM      2  C   UNL     1       0.172  -8.694  -1.582  0.00  0.00    +0.306 C 
ATOM      3  O   UNL     1       1.256  -8.954  -1.099  0.00  0.00    -0.252 OA
ATOM      4  N   UNL     1      -0.537  -9.658  -2.204  0.00  0.00    -0.248 N 
ATOM      5  C   UNL     1      -0.029 -10.943  -2.292  0.00  0.00    +0.167 A 
ATOM      6  N   UNL     1      -0.566 -12.005  -2.847  0.00  0.00    -0.224 NA
ATOM      7  C   UNL     1       0.050 -13.206  -2.863  0.00  0.00    +0.083 A 
ATOM      8  C   UNL     1      -0.413 -14.418  -3.426  0.00  0.00    -0.024 A 
ATOM      9  C   UNL     1       0.341 -15.559  -3.349  0.00  0.00    +0.005 A 
ATOM     10  C   UNL     1       1.578 -15.570  -2.720  0.00  0.00    +0.001 A 
ATOM     11  C   UNL     1       2.062 -14.403  -2.159  0.00  0.00    +0.017 A 
ATOM     12  C   UNL     1       1.314 -13.255  -2.231  0.00  0.00    +0.041 A 
ATOM     13  S   UNL     1       1.522 -11.581  -1.673  0.00  0.00    -0.052 S 
ATOM     14  C   UNL     1      -1.751 -14.454  -4.120  0.00  0.00    +0.046 C 
ATOM     15  H   UNL     1      -1.189  -7.237  -1.882  0.00  0.00    +0.151 HD
ATOM     16  H   UNL     1      -1.403  -9.451  -2.589  0.00  0.00    +0.158 HD
ENDROOT
BRANCH   1  19
ATOM     17  N   UNL     1       0.057  -4.170  -0.021  0.00  0.00    -0.270 N 
ATOM     18  C   UNL     1      -0.056  -4.993  -1.231  0.00  0.00    +0.136 C 
ATOM     19  C   UNL     1       0.447  -6.397  -0.820  0.00  0.00    +0.101 C 
ATOM     20  C   UNL     1       0.167  -6.397   0.700  0.00  0.00    +0.120 C 
ATOM     21  C   UNL     1       0.173  -4.933   1.080  0.00  0.00    +0.222 C 
ATOM     22  O   UNL     1       0.270  -4.509   2.212  0.00  0.00    -0.275 OA
BRANCH  17  27
ATOM     23  C   UNL     1      -0.018   1.503   0.010  0.00  0.00    +0.044 C 
ATOM     24  C   UNL     1       0.002  -0.004   0.002  0.00  0.00    -0.050 A 
ATOM     25  C   UNL     1       0.010  -0.687  -1.200  0.00  0.00    +0.005 A 
ATOM     26  C   UNL     1       0.033  -2.068  -1.211  0.00  0.00    +0.024 A 
ATOM     27  C   UNL     1       0.039  -2.771  -0.013  0.00  0.00    +0.036 A 
ATOM     28  C   UNL     1       0.026  -2.082   1.192  0.00  0.00    +0.024 A 
ATOM     29  C   UNL     1       0.007  -0.701   1.197  0.00  0.00    +0.005 A 
ENDBRANCH  17  27
ENDBRANCH   1  19
TORSDOF 2
