REMARK  Name = ZINC40759250
REMARK  7 active torsions:
REMARK  status: ('A' for Active; 'I' for Inactive)
REMARK    1  A    between atoms: C_5  and  N_7
REMARK    2  A    between atoms: C_9  and  N_28
REMARK    3  A    between atoms: C_10  and  N_14
REMARK    4  A    between atoms: N_14  and  N_15
REMARK    5  A    between atoms: C_16  and  C_18
REMARK    6  A    between atoms: C_18  and  O_19
REMARK    7  A    between atoms: O_19  and  C_20
REMARK                            x       y       z     vdW  Elec       q    Type
REMARK                         _______ _______ _______ _____ _____    ______ ____
ROOT
ATOM      1  N   UNL     1       1.236  -2.079  -0.021  0.00  0.00    -0.296 N 
ATOM      2  C   UNL     1       0.049  -2.794   0.091  0.00  0.00    +0.149 A 
ATOM      3  C   UNL     1       0.067  -4.186   0.194  0.00  0.00    +0.107 A 
ATOM      4  C   UNL     1      -1.153  -4.855   0.305  0.00  0.00    +0.161 A 
ATOM      5  N   UNL     1      -2.279  -4.145   0.308  0.00  0.00    -0.217 NA
ATOM      6  C   UNL     1      -2.252  -2.831   0.208  0.00  0.00    +0.225 A 
ATOM      7  N   UNL     1      -1.121  -2.162   0.107  0.00  0.00    -0.219 NA
ATOM      8  H   UNL     1       2.079  -2.551  -0.116  0.00  0.00    +0.154 HD
ENDROOT
BRANCH   1  13
ATOM      9  C   UNL     1       0.154   1.370   0.646  0.00  0.00    +0.002 A 
ATOM     10  C   UNL     1       1.174   2.087   0.048  0.00  0.00    +0.003 A 
ATOM     11  C   UNL     1       2.217   1.424  -0.574  0.00  0.00    +0.040 A 
ATOM     12  C   UNL     1       2.241   0.042  -0.599  0.00  0.00    +0.144 A 
ATOM     13  C   UNL     1       1.216  -0.681   0.002  0.00  0.00    +0.068 A 
ATOM     14  C   UNL     1       0.172  -0.011   0.625  0.00  0.00    +0.026 A 
ATOM     15  F   UNL     1       3.259  -0.606  -1.206  0.00  0.00    -0.204 F 
ENDBRANCH   1  13
BRANCH   3  16
ATOM     16  N   UNL     1       1.279  -4.895   0.187  0.00  0.00    -0.353 N 
ATOM     17  H   UNL     1       2.120  -4.417   0.109  0.00  0.00    +0.143 HD
ATOM     18  H   UNL     1       1.276  -5.862   0.259  0.00  0.00    +0.143 HD
ENDBRANCH   3  16
BRANCH   4  19
ATOM     19  N   UNL     1      -1.192  -6.240   0.410  0.00  0.00    -0.247 N 
ATOM     20  H   UNL     1      -0.367  -6.750   0.407  0.00  0.00    +0.172 HD
BRANCH  19  21
ATOM     21  N   UNL     1      -2.424  -6.900   0.521  0.00  0.00    -0.232 N 
ATOM     22  C   UNL     1      -2.461  -8.243   0.623  0.00  0.00    +0.267 C 
ATOM     23  O   UNL     1      -1.430  -8.881   0.619  0.00  0.00    -0.271 OA
ATOM     24  H   UNL     1      -3.249  -6.390   0.524  0.00  0.00    +0.173 HD
BRANCH  22  25
ATOM     25  C   UNL     1      -3.786  -8.953   0.741  0.00  0.00    +0.326 C 
BRANCH  25  26
ATOM     26  O   UNL     1      -3.564 -10.361   0.835  0.00  0.00    -0.481 OA
BRANCH  26  27
ATOM     27  C   UNL     1      -4.664 -11.153   0.949  0.00  0.00    +0.140 A 
ATOM     28  C   UNL     1      -5.929 -10.585   0.964  0.00  0.00    +0.048 A 
ATOM     29  C   UNL     1      -7.046 -11.390   1.080  0.00  0.00    +0.023 A 
ATOM     30  C   UNL     1      -6.903 -12.763   1.181  0.00  0.00    +0.043 A 
ATOM     31  C   UNL     1      -5.642 -13.332   1.166  0.00  0.00    +0.043 A 
ATOM     32  C   UNL     1      -4.522 -12.530   1.045  0.00  0.00    +0.084 A 
ATOM     33 CL   UNL     1      -2.940 -13.245   1.019  0.00  0.00    -0.080 Cl
ATOM     34 CL   UNL     1      -8.308 -13.773   1.327  0.00  0.00    -0.083 Cl
ENDBRANCH  26  27
ENDBRANCH  25  26
ENDBRANCH  22  25
ENDBRANCH  19  21
ENDBRANCH   4  19
TORSDOF 7
