REMARK  Name = ZINC08636722
REMARK  8 active torsions:
REMARK  status: ('A' for Active; 'I' for Inactive)
REMARK    1  A    between atoms: C_4  and  C_7
REMARK    2  A    between atoms: C_9  and  N_35
REMARK    3  A    between atoms: C_10  and  C_22
REMARK    4  A    between atoms: C_15  and  C_16
REMARK    5  A    between atoms: N_24  and  N_25
REMARK    6  A    between atoms: N_25  and  C_26
REMARK    7  A    between atoms: C_26  and  N_28
REMARK    8  A    between atoms: N_28  and  C_29
REMARK                            x       y       z     vdW  Elec       q    Type
REMARK                         _______ _______ _______ _____ _____    ______ ____
ROOT
ATOM      1  C   UNL     1       0.166   3.837   0.507  0.00  0.00    +0.021 A 
ATOM      2  C   UNL     1       0.672   4.465   1.684  0.00  0.00    +0.041 A 
ATOM      3  C   UNL     1       1.537   3.926   2.716  0.00  0.00    +0.054 A 
ATOM      4  C   UNL     1       1.889   4.745   3.768  0.00  0.00    +0.099 A 
ATOM      5  S   UNL     1       1.058   6.277   3.393  0.00  0.00    -0.060 S 
ATOM      6  C   UNL     1       0.272   5.809   1.872  0.00  0.00    +0.134 A 
ATOM      7  N   UNL     1      -0.512   6.428   1.016  0.00  0.00    -0.141 NA
ATOM      8  N   UNL     1      -0.961   5.850  -0.042  0.00  0.00    -0.148 NA
ATOM      9  C   UNL     1      -0.655   4.592  -0.338  0.00  0.00    +0.102 A 
ENDROOT
BRANCH   1  13
ATOM     10  C   UNL     1       1.139  -0.195  -0.415  0.00  0.00    +0.000 A 
ATOM     11  C   UNL     1      -0.147   0.131  -0.024  0.00  0.00    +0.001 A 
ATOM     12  C   UNL     1      -0.470   1.438   0.277  0.00  0.00    +0.008 A 
ATOM     13  C   UNL     1       0.505   2.433   0.186  0.00  0.00    -0.015 A 
ATOM     14  C   UNL     1       1.801   2.097  -0.208  0.00  0.00    +0.008 A 
ATOM     15  C   UNL     1       2.110   0.786  -0.507  0.00  0.00    +0.001 A 
ENDBRANCH   1  13
BRANCH   9  16
ATOM     16  C   UNL     1      -1.195   3.978  -1.574  0.00  0.00    +0.003 A 
ATOM     17  C   UNL     1      -0.429   3.062  -2.293  0.00  0.00    +0.010 A 
ATOM     18  C   UNL     1      -0.939   2.490  -3.441  0.00  0.00    +0.001 A 
ATOM     19  C   UNL     1      -2.204   2.833  -3.884  0.00  0.00    +0.000 A 
ATOM     20  C   UNL     1      -2.967   3.745  -3.178  0.00  0.00    +0.001 A 
ATOM     21  C   UNL     1      -2.470   4.319  -2.026  0.00  0.00    +0.010 A 
ENDBRANCH   9  16
BRANCH   4  22
ATOM     22  C   UNL     1       2.740   4.433   4.915  0.00  0.00    +0.269 C 
ATOM     23  O   UNL     1       3.235   3.326   5.022  0.00  0.00    -0.268 OA
ATOM     24  N   UNL     1       2.976   5.370   5.854  0.00  0.00    -0.231 N 
ATOM     25  H   UNL     1       2.581   6.252   5.769  0.00  0.00    +0.173 HD
BRANCH  24  26
ATOM     26  N   UNL     1       3.791   5.071   6.953  0.00  0.00    -0.245 N 
ATOM     27  H   UNL     1       4.186   4.189   7.038  0.00  0.00    +0.172 HD
BRANCH  26  28
ATOM     28  C   UNL     1       4.027   6.008   7.892  0.00  0.00    +0.151 C 
ATOM     29  S   UNL     1       5.023   5.643   9.236  0.00  0.00    -0.017 S 
BRANCH  28  30
ATOM     30  N   UNL     1       3.478   7.234   7.774  0.00  0.00    -0.296 N 
ATOM     31  H   UNL     1       2.845   7.415   7.062  0.00  0.00    +0.154 HD
BRANCH  30  32
ATOM     32  C   UNL     1       3.822   8.244   8.678  0.00  0.00    +0.033 A 
ATOM     33  C   UNL     1       2.851   9.121   9.144  0.00  0.00    +0.023 A 
ATOM     34  C   UNL     1       3.192  10.115  10.041  0.00  0.00    +0.002 A 
ATOM     35  C   UNL     1       4.502  10.244  10.466  0.00  0.00    +0.000 A 
ATOM     36  C   UNL     1       5.472   9.376  10.000  0.00  0.00    +0.002 A 
ATOM     37  C   UNL     1       5.136   8.377   9.107  0.00  0.00    +0.023 A 
ENDBRANCH  30  32
ENDBRANCH  28  30
ENDBRANCH  26  28
ENDBRANCH  24  26
ENDBRANCH   4  22
BRANCH   3  38
ATOM     38  N   UNL     1       1.999   2.618   2.647  0.00  0.00    -0.356 N 
ATOM     39  H   UNL     1       1.619   2.003   2.001  0.00  0.00    +0.142 HD
ATOM     40  H   UNL     1       2.702   2.319   3.245  0.00  0.00    +0.142 HD
ENDBRANCH   3  38
TORSDOF 8
