REMARK  Name = ZINC45166798
REMARK  6 active torsions:
REMARK  status: ('A' for Active; 'I' for Inactive)
REMARK    1  A    between atoms: C_1  and  C_2
REMARK    2  A    between atoms: C_2  and  C_4
REMARK    3  A    between atoms: C_2  and  N_9
REMARK    4  A    between atoms: N_9  and  S_10
REMARK    5  A    between atoms: S_10  and  C_13
REMARK    6  A    between atoms: C_14  and  N_20
REMARK                            x       y       z     vdW  Elec       q    Type
REMARK                         _______ _______ _______ _____ _____    ______ ____
ROOT
ATOM      1  S   UNL     1      -0.591  -1.210  -3.228  0.00  0.00    +0.062 S 
ATOM      2  O   UNL     1       0.125  -1.553  -4.407  0.00  0.00    -0.153 OA
ATOM      3  O   UNL     1      -1.718  -1.949  -2.779  0.00  0.00    -0.153 OA
ENDROOT
BRANCH   1   4
ATOM      4  C   UNL     1      -1.128   0.456  -3.430  0.00  0.00    +0.144 A 
ATOM      5  C   UNL     1      -2.249   0.912  -2.750  0.00  0.00    +0.053 A 
ATOM      6  C   UNL     1      -2.670   2.226  -2.912  0.00  0.00    +0.025 A 
ATOM      7  C   UNL     1      -1.972   3.075  -3.750  0.00  0.00    +0.003 A 
ATOM      8  C   UNL     1      -0.857   2.618  -4.427  0.00  0.00    +0.022 A 
ATOM      9  C   UNL     1      -0.431   1.311  -4.263  0.00  0.00    +0.069 A 
ATOM     10 CL   UNL     1       0.975   0.744  -5.108  0.00  0.00    -0.081 Cl
BRANCH   5  11
ATOM     11  N   UNL     1      -2.953   0.052  -1.903  0.00  0.00    -0.356 N 
ATOM     12  H   UNL     1      -2.511  -0.724  -1.525  0.00  0.00    +0.142 HD
ATOM     13  H   UNL     1      -3.883   0.231  -1.695  0.00  0.00    +0.142 HD
ENDBRANCH   5  11
ENDBRANCH   1   4
BRANCH   1  14
ATOM     14  N   UNL     1       0.507  -1.223  -1.988  0.00  0.00    -0.180 NA
ATOM     15  H   UNL     1       1.433  -1.456  -2.162  0.00  0.00    +0.149 HD
BRANCH  14  17
ATOM     16  C   UNL     1       0.350   0.601  -0.366  0.00  0.00    +0.034 C 
ATOM     17  C   UNL     1       0.081  -0.882  -0.628  0.00  0.00    +0.145 C 
BRANCH  17  18
ATOM     18  C   UNL     1       0.850  -1.716   0.364  0.00  0.00    +0.195 A 
ATOM     19  N   UNL     1       0.354  -2.351   1.415  0.00  0.00    -0.109 NA
ATOM     20  N   UNL     1       1.332  -2.947   2.007  0.00  0.00    -0.021 NA
ATOM     21  N   UNL     1       2.421  -2.708   1.364  0.00  0.00    -0.021 NA
ATOM     22  N   UNL     1       2.153  -1.959   0.349  0.00  0.00    -0.109 NA
ENDBRANCH  17  18
ENDBRANCH  14  17
ENDBRANCH   1  14
TORSDOF 5
