REMARK  Name = ZINC63530464
REMARK  6 active torsions:
REMARK  status: ('A' for Active; 'I' for Inactive)
REMARK    1  A    between atoms: C_1  and  C_2
REMARK    2  A    between atoms: C_2  and  C_4
REMARK    3  A    between atoms: C_2  and  N_14
REMARK    4  A    between atoms: C_15  and  C_17
REMARK    5  A    between atoms: C_19  and  S_27
REMARK    6  A    between atoms: S_27  and  C_28
REMARK                            x       y       z     vdW  Elec       q    Type
REMARK                         _______ _______ _______ _____ _____    ______ ____
ROOT
ATOM      1  C   UNL     1       0.629  -1.128   3.437  0.00  0.00    +0.204 C 
ATOM      2  C   UNL     1       0.889  -2.616   3.509  0.00  0.00    +0.030 C 
ATOM      3  C   UNL     1       0.343  -3.035   4.718  0.00  0.00    +0.010 A 
ATOM      4  C   UNL     1       0.269  -4.300   5.343  0.00  0.00    +0.011 A 
ATOM      5  C   UNL     1      -0.338  -4.419   6.552  0.00  0.00    +0.001 A 
ATOM      6  C   UNL     1      -0.897  -3.317   7.200  0.00  0.00    +0.002 A 
ATOM      7  C   UNL     1      -0.862  -2.074   6.658  0.00  0.00    +0.026 A 
ATOM      8  C   UNL     1      -0.244  -1.871   5.399  0.00  0.00    +0.044 A 
ATOM      9  N   UNL     1      -0.082  -0.780   4.671  0.00  0.00    -0.369 N 
ATOM     10  H   UNL     1      -0.385   0.109   4.914  0.00  0.00    +0.161 HD
ENDROOT
BRANCH   1  12
ATOM     11  N   UNL     1       0.338  -0.707   1.017  0.00  0.00    -0.307 N 
ATOM     12  C   UNL     1      -0.225  -0.807   2.238  0.00  0.00    +0.241 C 
ATOM     13  O   UNL     1      -1.418  -0.640   2.370  0.00  0.00    -0.273 OA
ATOM     14  H   UNL     1       1.293  -0.841   0.911  0.00  0.00    +0.149 HD
BRANCH  11  16
ATOM     15  C   UNL     1      -0.661   1.121  -0.264  0.00  0.00    +0.033 C 
ATOM     16  C   UNL     1      -0.492  -0.396  -0.149  0.00  0.00    +0.100 C 
BRANCH  16  17
ATOM     17  C   UNL     1       0.173  -0.923  -1.394  0.00  0.00    -0.024 A 
ATOM     18  C   UNL     1       1.544  -0.820  -1.541  0.00  0.00    +0.009 A 
ATOM     19  C   UNL     1       2.158  -1.301  -2.682  0.00  0.00    +0.050 A 
ATOM     20  C   UNL     1       1.399  -1.888  -3.683  0.00  0.00    +0.162 A 
ATOM     21  C   UNL     1       0.022  -1.994  -3.535  0.00  0.00    +0.162 A 
ATOM     22  C   UNL     1      -0.587  -1.513  -2.386  0.00  0.00    +0.055 A 
ATOM     23  O   UNL     1      -0.740  -2.574  -4.503  0.00  0.00    -0.485 OA
ATOM     24  C   UNL     1      -0.143  -2.712  -5.796  0.00  0.00    +0.270 C 
ATOM     25  C   UNL     1       1.275  -3.271  -5.614  0.00  0.00    +0.270 C 
ATOM     26  O   UNL     1       2.017  -2.354  -4.803  0.00  0.00    -0.485 OA
ENDBRANCH  16  17
ENDBRANCH  11  16
ENDBRANCH   1  12
BRANCH   2  27
ATOM     27  S   UNL     1       1.664  -3.554   2.380  0.00  0.00    -0.091 S 
BRANCH  27  28
ATOM     28  C   UNL     1       3.336  -3.003   2.443  0.00  0.00    +0.013 A 
ATOM     29  C   UNL     1       3.732  -2.089   3.412  0.00  0.00    +0.016 A 
ATOM     30  C   UNL     1       5.043  -1.659   3.459  0.00  0.00    +0.021 A 
ATOM     31  C   UNL     1       5.963  -2.137   2.542  0.00  0.00    +0.041 A 
ATOM     32  C   UNL     1       5.572  -3.047   1.575  0.00  0.00    +0.021 A 
ATOM     33  C   UNL     1       4.263  -3.486   1.527  0.00  0.00    +0.016 A 
ATOM     34 CL   UNL     1       7.610  -1.593   2.603  0.00  0.00    -0.084 Cl
ENDBRANCH  27  28
ENDBRANCH   2  27
TORSDOF 5
