REMARK  Name = ZINC16449372
REMARK  5 active torsions:
REMARK  status: ('A' for Active; 'I' for Inactive)
REMARK    1  A    between atoms: C_4  and  N_9
REMARK    2  A    between atoms: C_5  and  C_7
REMARK    3  A    between atoms: N_9  and  C_10
REMARK    4  A    between atoms: N_13  and  C_18
REMARK    5  A    between atoms: C_29  and  C_31
REMARK                            x       y       z     vdW  Elec       q    Type
REMARK                         _______ _______ _______ _____ _____    ______ ____
ROOT
ATOM      1  C   UNL     1      -1.195   4.528  -3.415  0.00  0.00    +0.075 A 
ATOM      2  C   UNL     1      -0.737   3.208  -3.216  0.00  0.00    +0.157 A 
ATOM      3  N   UNL     1      -0.002   2.914  -2.180  0.00  0.00    -0.174 NA
ATOM      4  N   UNL     1       0.350   3.893  -1.244  0.00  0.00    -0.221 N 
ATOM      5  C   UNL     1      -0.069   5.165  -1.392  0.00  0.00    +0.288 A 
ATOM      6  O   UNL     1       0.238   6.013  -0.569  0.00  0.00    -0.265 OA
ATOM      7  C   UNL     1      -0.857   5.509  -2.501  0.00  0.00    +0.129 A 
ATOM      8 CL   UNL     1      -1.405   7.142  -2.719  0.00  0.00    -0.076 Cl
ENDROOT
BRANCH   4   9
ATOM      9  C   UNL     1       1.177   3.530  -0.090  0.00  0.00    +0.081 C 
ATOM     10  C   UNL     1       2.472   4.344  -0.115  0.00  0.00    +0.034 C 
ATOM     11  C   UNL     1       3.335   3.966   1.090  0.00  0.00    -0.008 C 
ATOM     12  C   UNL     1       2.569   4.265   2.381  0.00  0.00    +0.007 C 
ATOM     13  C   UNL     1       1.274   3.450   2.405  0.00  0.00    -0.008 C 
ATOM     14  C   UNL     1       0.411   3.829   1.200  0.00  0.00    +0.034 C 
ATOM     15  C   UNL     1       1.608   1.958   2.344  0.00  0.00    +0.008 C 
ATOM     16  C   UNL     1       2.374   1.660   1.054  0.00  0.00    +0.006 C 
ATOM     17  C   UNL     1       3.669   2.474   1.030  0.00  0.00    +0.008 C 
ATOM     18  C   UNL     1       1.511   2.038  -0.151  0.00  0.00    +0.133 C 
BRANCH  18  19
ATOM     19  C   UNL     1       0.235   1.236  -0.127  0.00  0.00    +0.362 C 
ATOM     20  O   UNL     1      -0.832   1.800  -0.072  0.00  0.00    -0.246 OA
ATOM     21  O   UNL     1       0.285  -0.104  -0.172  0.00  0.00    -0.246 OA
ENDBRANCH  18  19
ENDBRANCH   4   9
BRANCH   1  22
ATOM     22  N   UNL     1      -1.975   4.838  -4.518  0.00  0.00    -0.311 N 
ATOM     23  H   UNL     1      -2.338   5.732  -4.620  0.00  0.00    +0.152 HD
BRANCH  22  27
ATOM     24  C   UNL     1      -2.762   1.929  -7.397  0.00  0.00    +0.001 A 
ATOM     25  C   UNL     1      -1.812   2.910  -7.635  0.00  0.00    +0.002 A 
ATOM     26  C   UNL     1      -1.549   3.874  -6.684  0.00  0.00    +0.024 A 
ATOM     27  C   UNL     1      -2.238   3.868  -5.478  0.00  0.00    +0.046 A 
ATOM     28  C   UNL     1      -3.198   2.873  -5.232  0.00  0.00    +0.084 A 
ATOM     29  C   UNL     1      -3.456   1.906  -6.208  0.00  0.00    +0.017 A 
BRANCH  28  30
ATOM     30  C   UNL     1      -3.932   2.851  -3.954  0.00  0.00    +0.388 C 
ATOM     31  O   UNL     1      -3.792   3.758  -3.158  0.00  0.00    -0.241 OA
ATOM     32  O   UNL     1      -4.759   1.826  -3.670  0.00  0.00    -0.241 OA
ENDBRANCH  28  30
ENDBRANCH  22  27
ENDBRANCH   1  22
TORSDOF 5
