REMARK  Name = ZINC31888135
REMARK  2 active torsions:
REMARK  status: ('A' for Active; 'I' for Inactive)
REMARK    1  A    between atoms: C_7  and  C_10
REMARK    2  A    between atoms: C_10  and  C_11
REMARK                            x       y       z     vdW  Elec       q    Type
REMARK                         _______ _______ _______ _____ _____    ______ ____
ROOT
ATOM      1  C   UNL     1       3.226  -0.667  -0.493  0.00  0.00    +0.017 A 
ATOM      2  C   UNL     1       4.479  -0.996  -0.921  0.00  0.00    +0.050 A 
ATOM      3  C   UNL     1       4.692  -1.423  -2.229  0.00  0.00    +0.170 A 
ATOM      4  C   UNL     1       3.627  -1.522  -3.115  0.00  0.00    +0.211 A 
ATOM      5  C   UNL     1       2.344  -1.190  -2.692  0.00  0.00    +0.213 A 
ATOM      6  C   UNL     1       2.142  -0.759  -1.370  0.00  0.00    +0.048 A 
ATOM      7  C   UNL     1       0.707  -0.490  -1.238  0.00  0.00    +0.093 A 
ATOM      8  N   UNL     1       0.155  -0.753  -2.382  0.00  0.00    -0.082 NA
ATOM      9  O   UNL     1       1.140  -1.182  -3.301  0.00  0.00    -0.351 OA
ATOM     10  O   UNL     1       4.098  -1.960  -4.321  0.00  0.00    -0.449 OA
ATOM     11  C   UNL     1       5.520  -1.737  -4.280  0.00  0.00    +0.467 C 
ATOM     12  O   UNL     1       5.834  -1.800  -2.877  0.00  0.00    -0.452 OA
ENDROOT
BRANCH   7  13
ATOM     13  C   UNL     1       0.002  -0.004   0.002  0.00  0.00    +0.075 C 
BRANCH  13  14
ATOM     14  C   UNL     1      -0.019   1.526   0.010  0.00  0.00    +0.115 C 
ATOM     15 CL   UNL     1      -0.863   2.107   1.494  0.00  0.00    -0.125 Cl
ENDBRANCH  13  14
ENDBRANCH   7  13
TORSDOF 2
