REMARK  Name = ZINC36049753
REMARK  11 active torsions:
REMARK  status: ('A' for Active; 'I' for Inactive)
REMARK    1  A    between atoms: C_1  and  C_2
REMARK    2  A    between atoms: C_2  and  N_3
REMARK    3  A    between atoms: C_11  and  C_36
REMARK    4  A    between atoms: C_13  and  S_15
REMARK    5  A    between atoms: S_15  and  C_16
REMARK    6  A    between atoms: C_16  and  C_17
REMARK    7  A    between atoms: C_20  and  C_23
REMARK    8  A    between atoms: N_25  and  C_26
REMARK    9  A    between atoms: C_26  and  C_27
REMARK   10  A    between atoms: C_36  and  C_37
REMARK   11  A    between atoms: C_36  and  C_38
REMARK                            x       y       z     vdW  Elec       q    Type
REMARK                         _______ _______ _______ _____ _____    ______ ____
ROOT
ATOM      1  C   UNL     1      -4.062  -6.819  -0.297  0.00  0.00    +0.112 C 
ENDROOT
BRANCH   1   2
ATOM      2  C   UNL     1      -4.000  -8.258   0.147  0.00  0.00    -0.037 A 
ATOM      3  C   UNL     1      -4.915  -8.734   1.069  0.00  0.00    +0.005 A 
ATOM      4  C   UNL     1      -4.864 -10.050   1.480  0.00  0.00    +0.013 A 
ATOM      5  C   UNL     1      -3.887 -10.902   0.962  0.00  0.00    +0.037 A 
ATOM      6  C   UNL     1      -2.968 -10.415   0.031  0.00  0.00    +0.013 A 
ATOM      7  C   UNL     1      -3.033  -9.099  -0.375  0.00  0.00    +0.005 A 
BRANCH   5   8
ATOM      8  C   UNL     1      -3.827 -12.313   1.397  0.00  0.00    +0.244 C 
ATOM      9  O   UNL     1      -4.628 -12.734   2.208  0.00  0.00    -0.270 OA
ATOM     10  N   UNL     1      -2.882 -13.134   0.895  0.00  0.00    -0.307 N 
ATOM     11  H   UNL     1      -2.243 -12.798   0.248  0.00  0.00    +0.149 HD
BRANCH  10  12
ATOM     12  C   UNL     1      -2.822 -14.532   1.327  0.00  0.00    +0.140 C 
BRANCH  12  13
ATOM     13  C   UNL     1      -1.686 -15.227   0.622  0.00  0.00    -0.027 A 
ATOM     14  C   UNL     1      -1.905 -15.847  -0.594  0.00  0.00    +0.009 A 
ATOM     15  C   UNL     1      -0.865 -16.485  -1.245  0.00  0.00    +0.050 A 
ATOM     16  C   UNL     1       0.399 -16.506  -0.678  0.00  0.00    +0.166 A 
ATOM     17  C   UNL     1       0.619 -15.881   0.547  0.00  0.00    +0.167 A 
ATOM     18  C   UNL     1      -0.426 -15.239   1.190  0.00  0.00    +0.054 A 
ATOM     19  O   UNL     1       1.932 -16.040   0.888  0.00  0.00    -0.453 OA
ATOM     20  C   UNL     1       2.416 -17.114   0.061  0.00  0.00    +0.466 C 
ATOM     21  O   UNL     1       1.573 -17.055  -1.105  0.00  0.00    -0.453 OA
ENDBRANCH  12  13
ENDBRANCH  10  12
ENDBRANCH   5   8
ENDBRANCH   1   2
BRANCH   1  22
ATOM     22  S   UNL     1      -5.149  -6.678  -1.742  0.00  0.00    -0.081 S 
BRANCH  22  33
ATOM     23  N   UNL     1      -1.339  -0.643   0.119  0.00  0.00    +0.382 N 
ATOM     24  C   UNL     1      -1.832  -0.317  -1.225  0.00  0.00    -0.060 C 
ATOM     25  C   UNL     1      -3.337  -0.596  -1.297  0.00  0.00    +0.088 C 
ATOM     26  N   UNL     1      -3.574  -1.988  -0.884  0.00  0.00    -0.319 N 
ATOM     27  C   UNL     1      -2.974  -2.449   0.378  0.00  0.00    +0.088 C 
ATOM     28  C   UNL     1      -1.486  -2.082   0.370  0.00  0.00    -0.060 C 
ATOM     29  C   UNL     1      -4.340  -2.841  -1.662  0.00  0.00    +0.126 A 
ATOM     30  C   UNL     1      -5.076  -2.347  -2.741  0.00  0.00    +0.067 A 
ATOM     31  C   UNL     1      -5.825  -3.234  -3.489  0.00  0.00    +0.050 A 
ATOM     32  N   UNL     1      -5.824  -4.519  -3.164  0.00  0.00    -0.226 NA
ATOM     33  C   UNL     1      -5.116  -4.960  -2.134  0.00  0.00    +0.190 A 
ATOM     34  N   UNL     1      -4.381  -4.143  -1.395  0.00  0.00    -0.207 NA
ATOM     35  H   UNL     1      -1.870  -0.127   0.804  0.00  0.00    -0.082 HD
BRANCH  31  36
ATOM     36  C   UNL     1      -6.636  -2.746  -4.662  0.00  0.00    +0.032 C 
ATOM     37  C   UNL     1      -7.995  -2.245  -4.170  0.00  0.00    +0.014 C 
ATOM     38  C   UNL     1      -5.892  -1.603  -5.356  0.00  0.00    +0.014 C 
ENDBRANCH  31  36
BRANCH  23  40
ATOM     39  C   UNL     1       0.222   1.244   0.083  0.00  0.00    -0.017 C 
ATOM     40  C   UNL     1       0.079  -0.273   0.221  0.00  0.00    -0.082 C 
ENDBRANCH  23  40
ENDBRANCH  22  33
ENDBRANCH   1  22
TORSDOF 8
