REMARK  Name = ZINC40902423
REMARK  6 active torsions:
REMARK  status: ('A' for Active; 'I' for Inactive)
REMARK    1  A    between atoms: C_1  and  C_2
REMARK    2  A    between atoms: C_2  and  C_3
REMARK    3  A    between atoms: C_2  and  C_4
REMARK    4  A    between atoms: C_4  and  O_6
REMARK    5  A    between atoms: O_6  and  C_7
REMARK    6  A    between atoms: C_10  and  C_14
REMARK                            x       y       z     vdW  Elec       q    Type
REMARK                         _______ _______ _______ _____ _____    ______ ____
ROOT
ATOM      1  C   UNL     1       1.038  -0.703   3.454  0.00  0.00    +0.146 A 
ATOM      2  C   UNL     1       2.191  -1.416   3.157  0.00  0.00    +0.048 A 
ATOM      3  C   UNL     1       2.964  -1.935   4.175  0.00  0.00    +0.012 A 
ATOM      4  C   UNL     1       2.585  -1.743   5.503  0.00  0.00    -0.017 A 
ATOM      5  C   UNL     1       1.427  -1.027   5.798  0.00  0.00    +0.027 A 
ATOM      6  C   UNL     1       0.661  -0.505   4.776  0.00  0.00    +0.061 A 
ATOM      7 BR   UNL     1      -0.907   0.474   5.175  0.00  0.00    -0.046 Br
ENDROOT
BRANCH   4   8
ATOM      8  C   UNL     1       3.414  -2.301   6.600  0.00  0.00    -0.018 A 
ATOM      9  C   UNL     1       4.575  -3.014   6.306  0.00  0.00    +0.008 A 
ATOM     10  C   UNL     1       5.342  -3.530   7.331  0.00  0.00    +0.001 A 
ATOM     11  C   UNL     1       4.960  -3.342   8.647  0.00  0.00    +0.000 A 
ATOM     12  C   UNL     1       3.808  -2.636   8.944  0.00  0.00    +0.001 A 
ATOM     13  C   UNL     1       3.037  -2.110   7.928  0.00  0.00    +0.008 A 
ENDBRANCH   4   8
BRANCH   1  14
ATOM     14  O   UNL     1       0.280  -0.192   2.448  0.00  0.00    -0.425 OA
BRANCH  14  15
ATOM     15  C   UNL     1       0.504   1.077   2.071  0.00  0.00    +0.315 C 
ATOM     16  O   UNL     1       1.296   1.757   2.681  0.00  0.00    -0.250 OA
BRANCH  15  18
ATOM     17  C   UNL     1      -1.737   1.607   1.151  0.00  0.00    +0.019 C 
ATOM     18  C   UNL     1      -0.230   1.653   0.888  0.00  0.00    +0.092 C 
ATOM     19  C   UNL     1       0.206   3.104   0.674  0.00  0.00    +0.019 C 
ENDBRANCH  15  18
ENDBRANCH  14  15
ENDBRANCH   1  14
TORSDOF 4
