REMARK  Name = ZINC39325565
REMARK  10 active torsions:
REMARK  status: ('A' for Active; 'I' for Inactive)
REMARK    1  A    between atoms: C_1  and  C_2
REMARK    2  A    between atoms: C_6  and  C_15
REMARK    3  A    between atoms: C_13  and  C_14
REMARK    4  A    between atoms: C_15  and  N_16
REMARK    5  A    between atoms: N_16  and  C_17
REMARK    6  A    between atoms: N_16  and  S_26
REMARK    7  A    between atoms: C_17  and  C_18
REMARK    8  A    between atoms: C_21  and  O_24
REMARK    9  A    between atoms: O_24  and  C_25
REMARK   10  A    between atoms: S_26  and  C_29
REMARK                            x       y       z     vdW  Elec       q    Type
REMARK                         _______ _______ _______ _____ _____    ______ ____
ROOT
ATOM      1  N   UNL     1      -1.178  -6.479  -2.816  0.00  0.00    -0.171 NA
ENDROOT
BRANCH   1   2
ATOM      2  S   UNL     1      -0.412  -7.294  -4.037  0.00  0.00    +0.063 S 
ATOM      3  O   UNL     1      -0.944  -8.611  -4.043  0.00  0.00    -0.153 OA
ATOM      4  O   UNL     1      -0.456  -6.449  -5.179  0.00  0.00    -0.153 OA
BRANCH   2   5
ATOM      5  C   UNL     1       1.285  -7.438  -3.583  0.00  0.00    +0.134 A 
ATOM      6  C   UNL     1       1.817  -8.658  -3.336  0.00  0.00    +0.031 A 
ATOM      7  C   UNL     1       3.156  -8.809  -2.975  0.00  0.00    +0.004 A 
ATOM      8  C   UNL     1       3.981  -7.743  -2.855  0.00  0.00    +0.031 A 
ATOM      9  C   UNL     1       3.492  -6.431  -3.100  0.00  0.00    +0.102 A 
ATOM     10  C   UNL     1       2.094  -6.273  -3.483  0.00  0.00    +0.126 A 
ATOM     11  N   UNL     1       1.748  -5.002  -3.692  0.00  0.00    -0.189 NA
ATOM     12  S   UNL     1       3.080  -4.140  -3.428  0.00  0.00    +0.117 S 
ATOM     13  N   UNL     1       4.151  -5.274  -3.032  0.00  0.00    -0.191 NA
ENDBRANCH   2   5
ENDBRANCH   1   2
BRANCH   1  14
ATOM     14  C   UNL     1      -1.403  -5.036  -2.926  0.00  0.00    +0.126 C 
BRANCH  14  20
ATOM     15  C   UNL     1      -4.293   0.722  -6.008  0.00  0.00    +0.044 C 
ATOM     16  C   UNL     1      -4.050  -0.760  -5.886  0.00  0.00    -0.047 A 
ATOM     17  C   UNL     1      -3.672  -1.274  -4.687  0.00  0.00    +0.013 A 
ATOM     18  C   UNL     1      -3.440  -2.715  -4.580  0.00  0.00    -0.007 A 
ATOM     19  C   UNL     1      -3.059  -3.276  -3.397  0.00  0.00    -0.003 C 
ATOM     20  C   UNL     1      -2.841  -4.777  -3.378  0.00  0.00    +0.114 C 
ATOM     21  C   UNL     1      -3.063  -5.528  -4.671  0.00  0.00    +0.225 C 
ATOM     22  O   UNL     1      -2.902  -6.733  -4.713  0.00  0.00    -0.275 OA
ATOM     23  N   UNL     1      -3.432  -4.870  -5.757  0.00  0.00    -0.284 N 
ATOM     24  C   UNL     1      -3.625  -3.551  -5.779  0.00  0.00    +0.041 A 
ATOM     25  C   UNL     1      -4.019  -2.918  -6.972  0.00  0.00    +0.027 A 
ATOM     26  C   UNL     1      -4.224  -1.575  -7.005  0.00  0.00    -0.046 A 
ATOM     27  C   UNL     1      -4.651  -0.940  -8.303  0.00  0.00    +0.044 C 
ATOM     28  H   UNL     1      -3.569  -5.371  -6.577  0.00  0.00    +0.155 HD
ENDBRANCH  14  20
ENDBRANCH   1  14
BRANCH   1  29
ATOM     29  C   UNL     1      -1.631  -7.202  -1.625  0.00  0.00    +0.144 C 
BRANCH  29  30
ATOM     30  C   UNL     1      -3.068  -7.617  -1.806  0.00  0.00    -0.031 A 
ATOM     31  C   UNL     1      -4.087  -6.773  -1.405  0.00  0.00    +0.008 A 
ATOM     32  C   UNL     1      -5.405  -7.152  -1.569  0.00  0.00    +0.046 A 
ATOM     33  C   UNL     1      -5.707  -8.380  -2.138  0.00  0.00    +0.120 A 
ATOM     34  C   UNL     1      -4.683  -9.226  -2.541  0.00  0.00    +0.046 A 
ATOM     35  C   UNL     1      -3.366  -8.840  -2.379  0.00  0.00    +0.008 A 
BRANCH  33  36
ATOM     36  O   UNL     1      -7.003  -8.755  -2.301  0.00  0.00    -0.495 OA
ATOM     37  C   UNL     1      -7.239 -10.034  -2.894  0.00  0.00    +0.277 C 
ENDBRANCH  33  36
ENDBRANCH  29  30
ENDBRANCH   1  29
TORSDOF 7
