REMARK  Name = ZINC06817403
REMARK  3 active torsions:
REMARK  status: ('A' for Active; 'I' for Inactive)
REMARK    1  A    between atoms: C_1  and  C_2
REMARK    2  A    between atoms: C_7  and  N_8
REMARK    3  A    between atoms: C_9  and  C_11
REMARK                            x       y       z     vdW  Elec       q    Type
REMARK                         _______ _______ _______ _____ _____    ______ ____
ROOT
ATOM      1  C   UNL     1       3.890   5.542   0.283  0.00  0.00    +0.172 A 
ATOM      2  C   UNL     1       2.521   5.247   0.410  0.00  0.00    +0.042 A 
ATOM      3  C   UNL     1       2.412   3.945   0.007  0.00  0.00    +0.173 A 
ATOM      4  O   UNL     1       3.647   3.551  -0.325  0.00  0.00    -0.354 OA
ATOM      5  N   UNL     1       4.455   4.442  -0.167  0.00  0.00    -0.073 NA
ATOM      6  C   UNL     1       1.152   3.184  -0.028  0.00  0.00    +0.034 A 
ATOM      7  C   UNL     1       1.167   1.789  -0.047  0.00  0.00    +0.013 A 
ATOM      8  C   UNL     1      -0.021   1.088  -0.047  0.00  0.00    +0.001 A 
ATOM      9  C   UNL     1      -1.231   1.763  -0.034  0.00  0.00    +0.001 A 
ATOM     10  C   UNL     1      -1.261   3.143  -0.015  0.00  0.00    +0.015 A 
ATOM     11  C   UNL     1      -0.075   3.866  -0.020  0.00  0.00    +0.019 A 
ATOM     12  S   UNL     1      -0.119   5.628  -0.024  0.00  0.00    -0.120 S 
ATOM     13  C   UNL     1       1.385   6.111   0.874  0.00  0.00    +0.115 C 
ENDROOT
BRANCH   1  15
ATOM     14  N   UNL     1       5.889   6.956   0.418  0.00  0.00    -0.280 N 
ATOM     15  C   UNL     1       4.559   6.829   0.593  0.00  0.00    +0.270 C 
ATOM     16  O   UNL     1       3.909   7.768   1.006  0.00  0.00    -0.268 OA
ATOM     17  H   UNL     1       6.492   6.082   0.132  0.00  0.00    +0.155 HD
BRANCH  14  24
ATOM     18  C   UNL     1       8.655   7.005   1.085  0.00  0.00    +0.045 C 
ATOM     19  C   UNL     1       7.851   8.269   0.925  0.00  0.00    -0.029 A 
ATOM     20  C   UNL     1       8.454   9.499   1.103  0.00  0.00    +0.005 A 
ATOM     21  C   UNL     1       7.717  10.660   0.956  0.00  0.00    +0.000 A 
ATOM     22  C   UNL     1       6.375  10.594   0.630  0.00  0.00    +0.002 A 
ATOM     23  C   UNL     1       5.767   9.368   0.447  0.00  0.00    +0.023 A 
ATOM     24  C   UNL     1       6.503   8.199   0.599  0.00  0.00    +0.037 A 
ENDBRANCH  14  24
ENDBRANCH   1  15
TORSDOF 2
