REMARK  Name = ZINC43619625
REMARK  5 active torsions:
REMARK  status: ('A' for Active; 'I' for Inactive)
REMARK    1  A    between atoms: C_1  and  C_2
REMARK    2  A    between atoms: C_3  and  C_17
REMARK    3  A    between atoms: C_5  and  C_7
REMARK    4  A    between atoms: C_11  and  C_13
REMARK    5  A    between atoms: C_17  and  N_18
REMARK                            x       y       z     vdW  Elec       q    Type
REMARK                         _______ _______ _______ _____ _____    ______ ____
ROOT
ATOM      1  C   UNL     1      -0.018   1.503   0.010  0.00  0.00    +0.088 C 
ATOM      2  C   UNL     1       0.002  -0.004   0.002  0.00  0.00    +0.124 A 
ATOM      3  C   UNL     1      -1.071  -0.816   0.003  0.00  0.00    +0.066 A 
ATOM      4  N   UNL     1      -0.627  -2.083  -0.006  0.00  0.00    -0.216 NA
ATOM      5  C   UNL     1       0.685  -2.068  -0.012  0.00  0.00    +0.228 A 
ATOM      6  O   UNL     1       1.098  -0.788  -0.013  0.00  0.00    -0.440 OA
ENDROOT
BRANCH   5   7
ATOM      7  C   UNL     1       1.562  -3.258  -0.023  0.00  0.00    +0.037 A 
ATOM      8  C   UNL     1       1.006  -4.538  -0.033  0.00  0.00    +0.013 A 
ATOM      9  C   UNL     1       1.830  -5.644  -0.043  0.00  0.00    +0.001 A 
ATOM     10  C   UNL     1       3.204  -5.487  -0.043  0.00  0.00    +0.012 A 
ATOM     11  C   UNL     1       3.762  -4.221  -0.033  0.00  0.00    +0.056 A 
ATOM     12  C   UNL     1       2.949  -3.106  -0.028  0.00  0.00    +0.025 A 
BRANCH  11  13
ATOM     13  C   UNL     1       5.260  -4.059  -0.032  0.00  0.00    +0.417 C 
ATOM     14  F   UNL     1       5.865  -5.321  -0.044  0.00  0.00    -0.166 F 
ATOM     15  F   UNL     1       5.652  -3.344  -1.169  0.00  0.00    -0.166 F 
ATOM     16  F   UNL     1       5.654  -3.364   1.116  0.00  0.00    -0.166 F 
ENDBRANCH  11  13
ENDBRANCH   5   7
BRANCH   3  17
ATOM     17  C   UNL     1      -2.513  -0.381   0.012  0.00  0.00    -0.019 C 
BRANCH  17  18
ATOM     18  N   UNL     1      -2.989  -0.232  -1.370  0.00  0.00    +0.384 N 
ATOM     19  C   UNL     1      -4.424   0.066  -1.362  0.00  0.00    -0.073 C 
ATOM     20  C   UNL     1      -4.959   0.231  -2.776  0.00  0.00    -0.007 C 
ATOM     21  C   UNL     1      -4.180   1.316  -3.527  0.00  0.00    +0.011 C 
ATOM     22  C   UNL     1      -2.699   0.922  -3.495  0.00  0.00    +0.020 C 
ATOM     23  C   UNL     1      -2.256   0.862  -2.023  0.00  0.00    -0.069 C 
ATOM     24  C   UNL     1      -2.542  -0.461  -4.086  0.00  0.00    +0.023 A 
ATOM     25  C   UNL     1      -1.361  -0.756  -4.690  0.00  0.00    +0.022 A 
ATOM     26  C   UNL     1      -1.124  -2.037  -5.201  0.00  0.00    +0.007 A 
ATOM     27  C   UNL     1      -2.089  -2.991  -5.060  0.00  0.00    +0.070 A 
ATOM     28  C   UNL     1      -3.295  -2.655  -4.429  0.00  0.00    +0.251 A 
ATOM     29  O   UNL     1      -4.139  -3.515  -4.242  0.00  0.00    -0.268 OA
ATOM     30  N   UNL     1      -3.531  -1.383  -4.023  0.00  0.00    -0.312 N 
ATOM     31  C   UNL     1      -4.881  -1.066  -3.565  0.00  0.00    +0.126 C 
ATOM     32  H   UNL     1      -2.828  -1.091  -1.875  0.00  0.00    -0.081 HD
ENDBRANCH  17  18
ENDBRANCH   3  17
TORSDOF 4
