REMARK  Name = ZINC48888661
REMARK  7 active torsions:
REMARK  status: ('A' for Active; 'I' for Inactive)
REMARK    1  A    between atoms: C_1  and  C_2
REMARK    2  A    between atoms: C_3  and  C_8
REMARK    3  A    between atoms: C_5  and  C_7
REMARK    4  A    between atoms: C_8  and  C_10
REMARK    5  A    between atoms: C_8  and  N_11
REMARK    6  A    between atoms: N_14  and  C_15
REMARK    7  A    between atoms: C_18  and  O_21
REMARK                            x       y       z     vdW  Elec       q    Type
REMARK                         _______ _______ _______ _____ _____    ______ ____
ROOT
ATOM      1  N   UNL     1      -0.978  -0.991  -3.359  0.00  0.00    -0.292 N 
ATOM      2  C   UNL     1      -1.540  -0.459  -4.462  0.00  0.00    +0.300 C 
ATOM      3  O   UNL     1      -1.242   0.667  -4.813  0.00  0.00    -0.253 OA
ATOM      4  N   UNL     1      -2.432  -1.173  -5.176  0.00  0.00    -0.297 N 
ATOM      5  H   UNL     1      -1.216  -1.889  -3.079  0.00  0.00    +0.151 HD
ATOM      6  H   UNL     1      -2.670  -2.071  -4.896  0.00  0.00    +0.151 HD
ENDROOT
BRANCH   4   7
ATOM      7  C   UNL     1      -3.043  -0.594  -6.375  0.00  0.00    +0.075 C 
ATOM      8  C   UNL     1      -4.257   0.246  -5.974  0.00  0.00    +0.025 C 
ATOM      9  C   UNL     1      -4.895   0.851  -7.227  0.00  0.00    +0.033 C 
ATOM     10  C   UNL     1      -5.340  -0.272  -8.166  0.00  0.00    +0.115 C 
ATOM     11  C   UNL     1      -4.125  -1.112  -8.567  0.00  0.00    +0.033 C 
ATOM     12  C   UNL     1      -3.488  -1.717  -7.314  0.00  0.00    +0.025 C 
BRANCH  10  13
ATOM     13  O   UNL     1      -5.936   0.293  -9.335  0.00  0.00    -0.392 OA
ATOM     14  H   UNL     1      -6.242  -0.363  -9.977  0.00  0.00    +0.210 HD
ENDBRANCH  10  13
ENDBRANCH   4   7
BRANCH   1  15
ATOM     15  C   UNL     1      -0.008  -0.215  -2.583  0.00  0.00    +0.110 C 
ATOM     16  C   UNL     1       1.384  -0.381  -3.194  0.00  0.00    +0.033 C 
BRANCH  15  19
ATOM     17  C   UNL     1      -0.018   1.503   0.010  0.00  0.00    +0.066 C 
ATOM     18  C   UNL     1       0.002  -0.004   0.002  0.00  0.00    +0.051 A 
ATOM     19  C   UNL     1       0.006  -0.708  -1.159  0.00  0.00    +0.032 A 
ATOM     20  S   UNL     1       0.032  -2.379  -0.531  0.00  0.00    -0.075 S 
ATOM     21  C   UNL     1       0.036  -2.009   1.111  0.00  0.00    +0.076 A 
ATOM     22  N   UNL     1       0.023  -0.699   1.122  0.00  0.00    -0.249 NA
ATOM     23  C   UNL     1       0.055  -2.955   2.284  0.00  0.00    +0.073 C 
ENDBRANCH  15  19
ENDBRANCH   1  15
TORSDOF 4
