REMARK  Name = ZINC46009175
REMARK  4 active torsions:
REMARK  status: ('A' for Active; 'I' for Inactive)
REMARK    1  A    between atoms: C_1  and  C_2
REMARK    2  A    between atoms: C_4  and  N_22
REMARK    3  A    between atoms: C_7  and  N_8
REMARK    4  A    between atoms: C_15  and  C_17
REMARK                            x       y       z     vdW  Elec       q    Type
REMARK                         _______ _______ _______ _____ _____    ______ ____
ROOT
ATOM      1  N   UNL     1       0.024  -0.010   2.418  0.00  0.00    -0.269 N 
ATOM      2  C   UNL     1      -0.446  -0.539   3.565  0.00  0.00    +0.307 C 
ATOM      3  O   UNL     1      -0.812  -1.698   3.595  0.00  0.00    -0.252 OA
ATOM      4  N   UNL     1      -0.510   0.216   4.679  0.00  0.00    -0.278 N 
ATOM      5  C   UNL     1      -0.107   1.631   4.782  0.00  0.00    +0.110 C 
ATOM      6  C   UNL     1       0.221   1.841   6.282  0.00  0.00    +0.021 C 
ATOM      7  C   UNL     1      -0.858   0.959   6.963  0.00  0.00    +0.029 C 
ATOM      8  C   UNL     1      -0.999  -0.232   5.991  0.00  0.00    +0.108 C 
ATOM      9  H   UNL     1       0.370   0.896   2.408  0.00  0.00    +0.156 HD
ENDROOT
BRANCH   1  16
ATOM     10  C   UNL     1      -0.065   1.369  -0.068  0.00  0.00    +0.046 C 
ATOM     11  C   UNL     1      -0.029  -0.136   0.006  0.00  0.00    -0.027 A 
ATOM     12  C   UNL     1      -0.033  -0.884  -1.155  0.00  0.00    +0.028 A 
ATOM     13  C   UNL     1       0.001  -2.270  -1.088  0.00  0.00    +0.030 A 
ATOM     14  C   UNL     1       0.039  -2.905   0.147  0.00  0.00    +0.025 A 
ATOM     15  C   UNL     1       0.043  -2.156   1.308  0.00  0.00    +0.025 A 
ATOM     16  C   UNL     1       0.015  -0.770   1.240  0.00  0.00    +0.038 A 
BRANCH  13  17
ATOM     17  N   UNL     1      -0.003  -3.029  -2.264  0.00  0.00    -0.326 N 
ATOM     18  C   UNL     1      -0.155  -2.386  -3.579  0.00  0.00    +0.133 C 
ATOM     19  C   UNL     1       0.965  -2.891  -4.496  0.00  0.00    +0.178 C 
ATOM     20  O   UNL     1       0.972  -4.321  -4.485  0.00  0.00    -0.377 OA
ATOM     21  C   UNL     1       1.249  -4.895  -3.205  0.00  0.00    +0.178 C 
ATOM     22  C   UNL     1       0.149  -4.491  -2.222  0.00  0.00    +0.133 C 
ENDBRANCH  13  17
ENDBRANCH   1  16
BRANCH   8  23
ATOM     23  C   UNL     1      -2.445  -0.643   5.886  0.00  0.00    -0.020 A 
ATOM     24  C   UNL     1      -2.916  -1.735   6.590  0.00  0.00    +0.013 A 
ATOM     25  C   UNL     1      -4.222  -2.079   6.473  0.00  0.00    +0.045 A 
ATOM     26  S   UNL     1      -4.830  -0.839   5.341  0.00  0.00    -0.105 S 
ATOM     27  C   UNL     1      -3.304   0.056   5.105  0.00  0.00    +0.050 A 
ENDBRANCH   8  23
TORSDOF 3
