REMARK  Name = ZINC05664310
REMARK  8 active torsions:
REMARK  status: ('A' for Active; 'I' for Inactive)
REMARK    1  A    between atoms: C_1  and  C_2
REMARK    2  A    between atoms: C_2  and  N_16
REMARK    3  A    between atoms: C_3  and  C_4
REMARK    4  A    between atoms: N_6  and  C_7
REMARK    5  A    between atoms: C_10  and  C_13
REMARK    6  A    between atoms: N_16  and  N_17
REMARK    7  A    between atoms: C_18  and  C_20
REMARK    8  A    between atoms: C_20  and  C_21
REMARK                            x       y       z     vdW  Elec       q    Type
REMARK                         _______ _______ _______ _____ _____    ______ ____
ROOT
ATOM      1  C   UNL     1       1.132   3.024  -0.660  0.00  0.00    +0.062 C 
ATOM      2  C   UNL     1       1.164   1.546  -0.367  0.00  0.00    +0.024 C 
ATOM      3  C   UNL     1       0.012   0.875  -0.159  0.00  0.00    +0.087 C 
ENDROOT
BRANCH   3   4
ATOM      4  C   UNL     1      -1.214   1.576  -0.098  0.00  0.00    +0.243 C 
ATOM      5  O   UNL     1      -1.243   2.772  -0.326  0.00  0.00    -0.270 OA
ATOM      6  N   UNL     1      -2.350   0.921   0.213  0.00  0.00    -0.282 N 
ATOM      7  H   UNL     1      -2.340  -0.043   0.321  0.00  0.00    +0.155 HD
BRANCH   6   8
ATOM      8  C   UNL     1      -3.539   1.629   0.378  0.00  0.00    +0.034 A 
ATOM      9  C   UNL     1      -4.749   1.049   0.009  0.00  0.00    +0.024 A 
ATOM     10  C   UNL     1      -5.926   1.743   0.176  0.00  0.00    +0.015 A 
ATOM     11  C   UNL     1      -5.903   3.035   0.708  0.00  0.00    +0.037 A 
ATOM     12  C   UNL     1      -4.686   3.617   1.073  0.00  0.00    +0.015 A 
ATOM     13  C   UNL     1      -3.513   2.915   0.908  0.00  0.00    +0.024 A 
BRANCH  11  14
ATOM     14  C   UNL     1      -7.163   3.784   0.885  0.00  0.00    +0.242 C 
ATOM     15  O   UNL     1      -7.142   4.908   1.348  0.00  0.00    -0.270 OA
ATOM     16  N   UNL     1      -8.336   3.223   0.532  0.00  0.00    -0.325 N 
ATOM     17  H   UNL     1      -8.353   2.326   0.163  0.00  0.00    +0.145 HD
ATOM     18  H   UNL     1      -9.164   3.715   0.648  0.00  0.00    +0.145 HD
ENDBRANCH  11  14
ENDBRANCH   6   8
ENDBRANCH   3   4
BRANCH   2  19
ATOM     19  N   UNL     1       2.359   0.886  -0.313  0.00  0.00    -0.269 N 
ATOM     20  H   UNL     1       3.187   1.369  -0.462  0.00  0.00    +0.170 HD
BRANCH  19  21
ATOM     21  N   UNL     1       2.389  -0.488  -0.041  0.00  0.00    -0.236 N 
ATOM     22  C   UNL     1       3.568  -1.139   0.013  0.00  0.00    +0.235 C 
ATOM     23  O   UNL     1       4.603  -0.536  -0.174  0.00  0.00    -0.274 OA
ATOM     24  H   UNL     1       1.561  -0.971   0.109  0.00  0.00    +0.173 HD
BRANCH  22  25
ATOM     25  C   UNL     1       3.599  -2.617   0.306  0.00  0.00    +0.153 C 
BRANCH  25  26
ATOM     26  C   UNL     1       5.028  -3.098   0.310  0.00  0.00    +0.059 A 
ATOM     27  C   UNL     1       5.536  -3.752   1.381  0.00  0.00    +0.072 A 
ATOM     28  S   UNL     1       7.205  -4.060   0.823  0.00  0.00    -0.061 S 
ATOM     29  C   UNL     1       7.064  -3.309  -0.736  0.00  0.00    +0.156 A 
ATOM     30  N   UNL     1       5.811  -2.896  -0.734  0.00  0.00    -0.230 NA
ATOM     31  N   UNL     1       8.021  -3.181  -1.731  0.00  0.00    -0.338 N 
ATOM     32  H   UNL     1       8.912  -3.540  -1.597  0.00  0.00    +0.144 HD
ATOM     33  H   UNL     1       7.800  -2.732  -2.562  0.00  0.00    +0.144 HD
ENDBRANCH  25  26
ENDBRANCH  22  25
ENDBRANCH  19  21
ENDBRANCH   2  19
TORSDOF 7
