REMARK  Name = ZINC12251116
REMARK  4 active torsions:
REMARK  status: ('A' for Active; 'I' for Inactive)
REMARK    1  A    between atoms: C_3  and  C_10
REMARK    2  A    between atoms: C_5  and  N_7
REMARK    3  A    between atoms: N_17  and  C_24
REMARK    4  A    between atoms: C_21  and  C_22
REMARK                            x       y       z     vdW  Elec       q    Type
REMARK                         _______ _______ _______ _____ _____    ______ ____
ROOT
ATOM      1  C   UNL     1      -0.070   5.347   0.032  0.00  0.00    +0.071 C 
ATOM      2  C   UNL     1       0.655   5.864   1.279  0.00  0.00    +0.110 C 
ATOM      3  C   UNL     1       2.128   5.592   1.137  0.00  0.00    +0.222 C 
ATOM      4  O   UNL     1       2.777   5.290   2.116  0.00  0.00    -0.275 OA
ATOM      5  N   UNL     1       2.738   5.679  -0.069  0.00  0.00    -0.248 N 
ATOM      6  C   UNL     1       4.149   5.328  -0.128  0.00  0.00    +0.222 C 
ATOM      7  N   UNL     1       4.914   5.931  -1.199  0.00  0.00    -0.304 N 
ATOM      8  C   UNL     1       4.332   5.717  -2.530  0.00  0.00    +0.182 C 
ATOM      9  S   UNL     1       2.793   6.676  -2.615  0.00  0.00    -0.090 S 
ATOM     10  C   UNL     1       1.996   6.023  -1.179  0.00  0.00    +0.087 C 
ATOM     11  C   UNL     1       0.642   5.870  -1.189  0.00  0.00    +0.065 C 
ENDROOT
BRANCH   7  12
ATOM     12  C   UNL     1       6.246   5.512  -1.161  0.00  0.00    +0.032 A 
ATOM     13  C   UNL     1       6.671   4.632  -0.174  0.00  0.00    +0.024 A 
ATOM     14  C   UNL     1       7.987   4.215  -0.142  0.00  0.00    +0.017 A 
ATOM     15  C   UNL     1       8.884   4.680  -1.087  0.00  0.00    +0.018 A 
ATOM     16  C   UNL     1       8.465   5.561  -2.068  0.00  0.00    +0.017 A 
ATOM     17  C   UNL     1       7.149   5.978  -2.108  0.00  0.00    +0.024 A 
ATOM     18 BR   UNL     1      10.687   4.112  -1.036  0.00  0.00    -0.050 Br
ENDBRANCH   7  12
BRANCH   1  21
ATOM     19  C   UNL     1       1.175   1.783   0.000  0.00  0.00    +0.003 A 
ATOM     20  C   UNL     1       1.156   3.166   0.008  0.00  0.00    +0.004 A 
ATOM     21  C   UNL     1      -0.050   3.840   0.023  0.00  0.00    -0.037 A 
ATOM     22  C   UNL     1      -1.238   3.133   0.029  0.00  0.00    +0.037 A 
ATOM     23  C   UNL     1      -1.219   1.751   0.017  0.00  0.00    +0.126 A 
ATOM     24  C   UNL     1      -0.013   1.076   0.008  0.00  0.00    +0.033 A 
BRANCH  23  25
ATOM     25  N   UNL     1      -2.491   0.993   0.019  0.00  0.00    +0.056 N 
ATOM     26  O   UNL     1      -2.474  -0.225   0.013  0.00  0.00    -0.126 OA
ATOM     27  O   UNL     1      -3.554   1.588   0.028  0.00  0.00    -0.126 OA
ENDBRANCH  23  25
ENDBRANCH   1  21
BRANCH  11  28
ATOM     28  C   UNL     1      -0.107   6.208  -2.362  0.00  0.00    +0.098 C 
ATOM     29  N   UNL     1      -0.700   6.475  -3.293  0.00  0.00    -0.191 NA
ENDBRANCH  11  28
TORSDOF 4
