REMARK  Name = ZINC55170311
REMARK  5 active torsions:
REMARK  status: ('A' for Active; 'I' for Inactive)
REMARK    1  A    between atoms: C_1  and  C_2
REMARK    2  A    between atoms: C_3  and  C_8
REMARK    3  A    between atoms: N_16  and  C_17
REMARK    4  A    between atoms: C_17  and  C_18
REMARK    5  A    between atoms: C_17  and  C_19
REMARK                            x       y       z     vdW  Elec       q    Type
REMARK                         _______ _______ _______ _____ _____    ______ ____
ROOT
ATOM      1  C   UNL     1      -0.036  -0.254  -2.541  0.00  0.00    +0.151 A 
ATOM      2  N   UNL     1      -0.140   1.007  -2.896  0.00  0.00    -0.227 NA
ATOM      3  C   UNL     1      -0.091   1.105  -4.247  0.00  0.00    +0.091 A 
ATOM      4  C   UNL     1      -0.155   2.186  -5.133  0.00  0.00    +0.045 A 
ATOM      5  C   UNL     1      -0.076   1.964  -6.490  0.00  0.00    +0.020 A 
ATOM      6  C   UNL     1       0.066   0.674  -6.985  0.00  0.00    +0.017 A 
ATOM      7  C   UNL     1       0.130  -0.402  -6.125  0.00  0.00    +0.029 A 
ATOM      8  C   UNL     1       0.053  -0.198  -4.755  0.00  0.00    +0.069 A 
ATOM      9  N   UNL     1       0.091  -1.040  -3.658  0.00  0.00    -0.321 N 
ATOM     10 BR   UNL     1      -0.163   3.425  -7.687  0.00  0.00    -0.050 Br
ENDROOT
BRANCH   1  13
ATOM     11  C   UNL     1      -0.065   1.462   0.048  0.00  0.00    +0.067 C 
ATOM     12  C   UNL     1      -0.063  -0.045   0.024  0.00  0.00    +0.058 A 
ATOM     13  C   UNL     1      -0.050  -0.747  -1.157  0.00  0.00    +0.079 A 
ATOM     14  S   UNL     1      -0.053  -2.425  -0.545  0.00  0.00    -0.049 S 
ATOM     15  C   UNL     1      -0.071  -2.072   1.101  0.00  0.00    +0.156 A 
ATOM     16  N   UNL     1      -0.067  -0.753   1.130  0.00  0.00    -0.230 NA
ATOM     17  N   UNL     1      -0.081  -2.953   2.165  0.00  0.00    -0.337 N 
ATOM     18  H   UNL     1      -0.078  -3.909   2.003  0.00  0.00    +0.144 HD
ATOM     19  H   UNL     1      -0.091  -2.614   3.074  0.00  0.00    +0.144 HD
ENDBRANCH   1  13
BRANCH   9  20
ATOM     20  C   UNL     1       0.237  -2.497  -3.684  0.00  0.00    +0.083 C 
ATOM     21  C   UNL     1      -0.875  -3.106  -4.542  0.00  0.00    +0.030 C 
ATOM     22  C   UNL     1       1.598  -2.863  -4.280  0.00  0.00    +0.030 C 
ENDBRANCH   9  20
TORSDOF 2
