REMARK  Name = ZINC45773443
REMARK  7 active torsions:
REMARK  status: ('A' for Active; 'I' for Inactive)
REMARK    1  A    between atoms: C_1  and  C_2
REMARK    2  A    between atoms: C_3  and  C_29
REMARK    3  A    between atoms: C_8  and  C_10
REMARK    4  A    between atoms: C_14  and  S_16
REMARK    5  A    between atoms: S_16  and  N_19
REMARK    6  A    between atoms: C_21  and  C_28
REMARK    7  A    between atoms: C_24  and  C_27
REMARK                            x       y       z     vdW  Elec       q    Type
REMARK                         _______ _______ _______ _____ _____    ______ ____
ROOT
ATOM      1  C   UNL     1       0.071  -3.335   4.587  0.00  0.00    +0.039 A 
ATOM      2  C   UNL     1       0.094  -4.715   4.373  0.00  0.00    +0.013 A 
ATOM      3  C   UNL     1       0.111  -5.576   5.450  0.00  0.00    +0.003 A 
ATOM      4  C   UNL     1       0.105  -5.077   6.740  0.00  0.00    +0.028 A 
ATOM      5  C   UNL     1       0.082  -3.711   6.960  0.00  0.00    +0.106 A 
ATOM      6  C   UNL     1       0.071  -2.837   5.891  0.00  0.00    +0.041 A 
ENDROOT
BRANCH   1  14
ATOM      7  C   UNL     1      -0.018   1.503   0.010  0.00  0.00    +0.067 C 
ATOM      8  C   UNL     1       0.002  -0.004   0.002  0.00  0.00    +0.057 A 
ATOM      9  C   UNL     1       0.006  -0.717  -1.169  0.00  0.00    +0.062 A 
ATOM     10  S   UNL     1       0.033  -2.388  -0.539  0.00  0.00    -0.050 S 
ATOM     11  C   UNL     1       0.036  -2.018   1.103  0.00  0.00    +0.165 A 
ATOM     12  N   UNL     1       0.023  -0.700   1.117  0.00  0.00    -0.229 NA
ATOM     13  N   UNL     1       0.053  -2.889   2.180  0.00  0.00    -0.261 N 
ATOM     14  C   UNL     1       0.053  -2.406   3.438  0.00  0.00    +0.250 C 
ATOM     15  O   UNL     1       0.037  -1.205   3.628  0.00  0.00    -0.270 OA
ATOM     16  H   UNL     1       0.065  -3.847   2.029  0.00  0.00    +0.157 HD
BRANCH   9  17
ATOM     17  C   UNL     1      -0.008  -0.237  -2.565  0.00  0.00    +0.079 A 
ATOM     18  C   UNL     1      -0.006  -1.157  -3.615  0.00  0.00    +0.029 A 
ATOM     19  C   UNL     1      -0.021  -0.691  -4.917  0.00  0.00    +0.004 A 
ATOM     20  C   UNL     1      -0.036   0.681  -5.130  0.00  0.00    +0.020 A 
ATOM     21  C   UNL     1      -0.036   1.537  -4.045  0.00  0.00    +0.111 A 
ATOM     22  N   UNL     1      -0.028   1.069  -2.813  0.00  0.00    -0.254 NA
ENDBRANCH   9  17
ENDBRANCH   1  14
BRANCH   5  23
ATOM     23  S   UNL     1       0.073  -3.085   8.607  0.00  0.00    +0.061 S 
ATOM     24  O   UNL     1      -0.500  -1.786   8.545  0.00  0.00    -0.153 OA
ATOM     25  O   UNL     1      -0.459  -4.114   9.429  0.00  0.00    -0.153 OA
BRANCH  23  26
ATOM     26  N   UNL     1       1.653  -2.884   9.062  0.00  0.00    -0.176 NA
ATOM     27  C   UNL     1       2.389  -3.976   9.712  0.00  0.00    +0.112 C 
ATOM     28  C   UNL     1       3.685  -4.227   8.935  0.00  0.00    +0.002 C 
ATOM     29  C   UNL     1       4.471  -2.918   8.824  0.00  0.00    +0.009 C 
ATOM     30  C   UNL     1       3.640  -1.887   8.057  0.00  0.00    +0.002 C 
ATOM     31  C   UNL     1       2.345  -1.611   8.819  0.00  0.00    +0.112 C 
ATOM     32  C   UNL     1       3.305  -2.431   6.667  0.00  0.00    +0.009 C 
ATOM     33  C   UNL     1       4.529  -5.269   9.672  0.00  0.00    +0.009 C 
ENDBRANCH  23  26
ENDBRANCH   5  23
TORSDOF 4
