REMARK  Name = ZINC11802267
REMARK  7 active torsions:
REMARK  status: ('A' for Active; 'I' for Inactive)
REMARK    1  A    between atoms: C_1  and  C_2
REMARK    2  A    between atoms: C_5  and  N_8
REMARK    3  A    between atoms: C_11  and  C_13
REMARK    4  A    between atoms: C_16  and  C_20
REMARK    5  A    between atoms: C_20  and  C_21
REMARK    6  A    between atoms: C_20  and  C_22
REMARK    7  A    between atoms: C_20  and  C_23
REMARK                            x       y       z     vdW  Elec       q    Type
REMARK                         _______ _______ _______ _____ _____    ______ ____
ROOT
ATOM      1  N   UNL     1      -2.728   3.529   0.036  0.00  0.00    -0.236 N 
ATOM      2  C   UNL     1      -3.458   2.391   0.034  0.00  0.00    +0.049 A 
ATOM      3  C   UNL     1      -2.584   1.355   0.022  0.00  0.00    +0.008 A 
ATOM      4  C   UNL     1      -1.302   1.931   0.019  0.00  0.00    +0.177 A 
ATOM      5  N   UNL     1      -1.472   3.243   0.033  0.00  0.00    -0.159 NA
ATOM      6  C   UNL     1      -2.980  -0.096   0.011  0.00  0.00    +0.043 C 
ATOM      7  C   UNL     1      -4.458  -0.189  -0.393  0.00  0.00    -0.001 C 
ATOM      8  C   UNL     1      -5.282   0.786   0.454  0.00  0.00    +0.010 C 
ATOM      9  C   UNL     1      -4.957   2.228   0.043  0.00  0.00    +0.056 C 
ENDROOT
BRANCH   1  14
ATOM     10  C   UNL     1      -4.876   8.781   0.074  0.00  0.00    +0.044 C 
ATOM     11  C   UNL     1      -4.306   7.386   0.064  0.00  0.00    -0.050 A 
ATOM     12  C   UNL     1      -3.132   7.116   0.744  0.00  0.00    +0.005 A 
ATOM     13  C   UNL     1      -2.607   5.838   0.737  0.00  0.00    +0.028 A 
ATOM     14  C   UNL     1      -3.259   4.825   0.046  0.00  0.00    +0.066 A 
ATOM     15  C   UNL     1      -4.434   5.101  -0.640  0.00  0.00    +0.028 A 
ATOM     16  C   UNL     1      -4.958   6.380  -0.624  0.00  0.00    +0.005 A 
ENDBRANCH   1  14
BRANCH   7  17
ATOM     17  C   UNL     1      -4.960  -1.615  -0.163  0.00  0.00    -0.035 C 
ATOM     18  C   UNL     1      -6.434  -1.708  -0.566  0.00  0.00    +0.011 C 
ATOM     19  C   UNL     1      -4.138  -2.589  -1.009  0.00  0.00    +0.011 C 
ATOM     20  C   UNL     1      -4.813  -1.975   1.317  0.00  0.00    +0.011 C 
ENDBRANCH   7  17
BRANCH   4  21
ATOM     21  C   UNL     1      -0.014   1.211   0.009  0.00  0.00    +0.406 C 
ATOM     22  O   UNL     1       0.002  -0.004   0.002  0.00  0.00    -0.239 OA
ATOM     23  O   UNL     1       1.143   1.900   0.001  0.00  0.00    -0.239 OA
ENDBRANCH   4  21
TORSDOF 3
