REMARK  Name = ZINC13426368
REMARK  5 active torsions:
REMARK  status: ('A' for Active; 'I' for Inactive)
REMARK    1  A    between atoms: C_2  and  C_13
REMARK    2  A    between atoms: C_14  and  C_15
REMARK    3  A    between atoms: N_17  and  C_18
REMARK    4  A    between atoms: C_20  and  C_26
REMARK    5  A    between atoms: C_22  and  C_24
REMARK                            x       y       z     vdW  Elec       q    Type
REMARK                         _______ _______ _______ _____ _____    ______ ____
ROOT
ATOM      1  C   UNL     1       1.830   8.238  -4.402  0.00  0.00    +0.241 C 
ATOM      2  O   UNL     1       1.668   9.197  -3.670  0.00  0.00    -0.270 OA
ATOM      3  N   UNL     1       2.345   8.412  -5.636  0.00  0.00    -0.282 N 
ATOM      4  H   UNL     1       2.545   7.643  -6.191  0.00  0.00    +0.155 HD
ENDROOT
BRANCH   3   5
ATOM      5  C   UNL     1       2.589   9.704  -6.115  0.00  0.00    +0.035 A 
ATOM      6  C   UNL     1       1.754  10.748  -5.747  0.00  0.00    +0.038 A 
ATOM      7  C   UNL     1       1.999  12.039  -6.220  0.00  0.00    +0.066 A 
ATOM      8  C   UNL     1       3.076  12.275  -7.072  0.00  0.00    +0.030 A 
ATOM      9  C   UNL     1       3.910  11.222  -7.444  0.00  0.00    +0.066 A 
ATOM     10  C   UNL     1       3.663   9.935  -6.963  0.00  0.00    +0.038 A 
BRANCH   9  11
ATOM     11  C   UNL     1       5.054  11.468  -8.347  0.00  0.00    +0.387 C 
ATOM     12  O   UNL     1       5.780  10.549  -8.671  0.00  0.00    -0.241 OA
ATOM     13  O   UNL     1       5.291  12.710  -8.811  0.00  0.00    -0.241 OA
ENDBRANCH   9  11
BRANCH   7  14
ATOM     14  C   UNL     1       1.112  13.153  -5.823  0.00  0.00    +0.387 C 
ATOM     15  O   UNL     1       0.173  12.946  -5.081  0.00  0.00    -0.241 OA
ATOM     16  O   UNL     1       1.345  14.397  -6.285  0.00  0.00    -0.241 OA
ENDBRANCH   7  14
ENDBRANCH   3   5
BRANCH   1  18
ATOM     17  C   UNL     1       0.951   6.724  -2.709  0.00  0.00    +0.013 C 
ATOM     18  C   UNL     1       1.466   6.898  -3.944  0.00  0.00    +0.068 C 
BRANCH  17  20
ATOM     19  C   UNL     1       0.051   5.194  -0.967  0.00  0.00    +0.057 A 
ATOM     20  C   UNL     1       0.586   5.376  -2.248  0.00  0.00    -0.020 A 
ATOM     21  C   UNL     1       0.772   4.274  -3.089  0.00  0.00    +0.031 A 
ATOM     22  C   UNL     1       0.428   3.009  -2.657  0.00  0.00    +0.087 A 
ATOM     23  C   UNL     1      -0.102   2.833  -1.385  0.00  0.00    +0.180 A 
ATOM     24  C   UNL     1      -0.289   3.924  -0.545  0.00  0.00    +0.164 A 
ATOM     25  O   UNL     1      -0.812   3.733   0.702  0.00  0.00    -0.488 OA
ATOM     26  C   UNL     1       0.018   3.030   1.627  0.00  0.00    +0.232 C 
ATOM     27  C   UNL     1      -0.136   1.527   1.454  0.00  0.00    +0.082 C 
ATOM     28  C   UNL     1       0.359   1.046   0.099  0.00  0.00    +0.232 C 
ATOM     29  O   UNL     1      -0.443   1.585  -0.953  0.00  0.00    -0.487 OA
ATOM     30 CL   UNL     1       0.660   1.641  -3.700  0.00  0.00    -0.080 Cl
ENDBRANCH  17  20
ENDBRANCH   1  18
TORSDOF 5
