REMARK  Name = ZINC59170453
REMARK  6 active torsions:
REMARK  status: ('A' for Active; 'I' for Inactive)
REMARK    1  A    between atoms: C_1  and  C_2
REMARK    2  A    between atoms: C_7  and  N_8
REMARK    3  A    between atoms: C_9  and  C_11
REMARK    4  A    between atoms: N_21  and  C_22
REMARK    5  A    between atoms: C_25  and  S_28
REMARK    6  A    between atoms: S_28  and  N_31
REMARK                            x       y       z     vdW  Elec       q    Type
REMARK                         _______ _______ _______ _____ _____    ______ ____
ROOT
ATOM      1  C   UNL     1      -0.225   0.032   4.819  0.00  0.00    +0.098 A 
ATOM      2  C   UNL     1      -0.192  -0.657   6.025  0.00  0.00    +0.030 A 
ATOM      3  C   UNL     1      -0.234   0.136   7.255  0.00  0.00    +0.019 A 
ATOM      4  C   UNL     1       0.061  -0.446   8.494  0.00  0.00    +0.026 A 
ATOM      5  C   UNL     1       0.017   0.323   9.635  0.00  0.00    +0.019 A 
ATOM      6  C   UNL     1      -0.318   1.669   9.562  0.00  0.00    +0.019 A 
ATOM      7  C   UNL     1      -0.613   2.256   8.348  0.00  0.00    +0.048 A 
ATOM      8  C   UNL     1      -0.577   1.500   7.186  0.00  0.00    +0.137 A 
ATOM      9  O   UNL     1      -0.871   2.061   5.988  0.00  0.00    -0.439 OA
ATOM     10  C   UNL     1      -0.296   1.505   4.889  0.00  0.00    +0.212 A 
ATOM     11  N   UNL     1       0.180   2.253   3.917  0.00  0.00    -0.325 N 
ATOM     12 BR   UNL     1       0.414  -0.457  11.311  0.00  0.00    -0.050 Br
ATOM     13  H   UNL     1       0.688   1.847   3.197  0.00  0.00    +0.169 HD
ENDROOT
BRANCH  11  14
ATOM     14  C   UNL     1      -0.043   3.602   3.921  0.00  0.00    +0.042 A 
ATOM     15  C   UNL     1      -1.313   4.103   4.217  0.00  0.00    +0.027 A 
ATOM     16  C   UNL     1      -1.530   5.465   4.219  0.00  0.00    +0.030 A 
ATOM     17  C   UNL     1      -0.493   6.335   3.930  0.00  0.00    +0.105 A 
ATOM     18  C   UNL     1       0.767   5.846   3.637  0.00  0.00    +0.030 A 
ATOM     19  C   UNL     1       1.001   4.486   3.636  0.00  0.00    +0.027 A 
BRANCH  17  20
ATOM     20  S   UNL     1      -0.780   8.073   3.935  0.00  0.00    +0.056 S 
ATOM     21  O   UNL     1       0.214   8.651   3.100  0.00  0.00    -0.153 OA
ATOM     22  O   UNL     1      -2.170   8.256   3.703  0.00  0.00    -0.153 OA
BRANCH  20  23
ATOM     23  N   UNL     1      -0.481   8.615   5.471  0.00  0.00    -0.204 NA
ATOM     24  H   UNL     1      -0.156   9.518   5.612  0.00  0.00    +0.144 HD
ATOM     25  H   UNL     1      -0.630   8.029   6.229  0.00  0.00    +0.144 HD
ENDBRANCH  20  23
ENDBRANCH  17  20
ENDBRANCH  11  14
BRANCH   1  27
ATOM     26  N   UNL     1      -0.329   0.013   2.379  0.00  0.00    -0.281 N 
ATOM     27  C   UNL     1      -0.186  -0.676   3.529  0.00  0.00    +0.253 C 
ATOM     28  O   UNL     1      -0.025  -1.881   3.500  0.00  0.00    -0.270 OA
ATOM     29  H   UNL     1      -0.410   0.979   2.398  0.00  0.00    +0.155 HD
BRANCH  26  36
ATOM     30  C   UNL     1      -1.517   1.318   0.147  0.00  0.00    +0.045 C 
ATOM     31  C   UNL     1      -0.931  -0.067   0.042  0.00  0.00    -0.029 A 
ATOM     32  C   UNL     1      -0.955  -0.738  -1.165  0.00  0.00    +0.005 A 
ATOM     33  C   UNL     1      -0.418  -2.008  -1.263  0.00  0.00    +0.000 A 
ATOM     34  C   UNL     1       0.145  -2.611  -0.153  0.00  0.00    +0.002 A 
ATOM     35  C   UNL     1       0.172  -1.946   1.057  0.00  0.00    +0.023 A 
ATOM     36  C   UNL     1      -0.361  -0.667   1.157  0.00  0.00    +0.037 A 
ENDBRANCH  26  36
ENDBRANCH   1  27
TORSDOF 5
