REMARK  Name = ZINC58377652
REMARK  8 active torsions:
REMARK  status: ('A' for Active; 'I' for Inactive)
REMARK    1  A    between atoms: C_1  and  C_2
REMARK    2  A    between atoms: C_2  and  C_3
REMARK    3  A    between atoms: C_2  and  N_4
REMARK    4  A    between atoms: N_4  and  C_5
REMARK    5  A    between atoms: N_4  and  C_6
REMARK    6  A    between atoms: C_6  and  C_7
REMARK    7  A    between atoms: N_9  and  C_10
REMARK    8  A    between atoms: C_17  and  C_19
REMARK                            x       y       z     vdW  Elec       q    Type
REMARK                         _______ _______ _______ _____ _____    ______ ____
ROOT
ATOM      1  C   UNL     1       1.033  -0.501   6.013  0.00  0.00    +0.036 A 
ATOM      2  C   UNL     1       2.236  -1.197   5.921  0.00  0.00    +0.027 A 
ATOM      3  C   UNL     1       2.889  -1.616   7.061  0.00  0.00    +0.050 A 
ATOM      4  C   UNL     1       2.349  -1.344   8.309  0.00  0.00    +0.156 A 
ATOM      5  C   UNL     1       1.137  -0.643   8.410  0.00  0.00    +0.112 A 
ATOM      6  C   UNL     1       0.484  -0.217   7.251  0.00  0.00    +0.055 A 
ATOM      7  N   UNL     1       0.862  -0.528   9.735  0.00  0.00    -0.209 NA
ATOM      8  C   UNL     1       1.819  -1.108  10.415  0.00  0.00    +0.230 A 
ATOM      9  O   UNL     1       2.740  -1.615   9.575  0.00  0.00    -0.435 OA
ENDROOT
BRANCH   8  10
ATOM     10  C   UNL     1       1.879  -1.193  11.889  0.00  0.00    +0.054 A 
ATOM     11  C   UNL     1       0.862  -0.634  12.665  0.00  0.00    +0.052 A 
ATOM     12  C   UNL     1       0.924  -0.718  14.043  0.00  0.00    +0.124 A 
ATOM     13  C   UNL     1       1.993  -1.354  14.654  0.00  0.00    +0.039 A 
ATOM     14  C   UNL     1       3.003  -1.909  13.890  0.00  0.00    +0.019 A 
ATOM     15  C   UNL     1       2.950  -1.837  12.511  0.00  0.00    +0.030 A 
ATOM     16 BR   UNL     1       4.329  -2.604  11.469  0.00  0.00    -0.050 Br
ATOM     17  F   UNL     1      -0.059  -0.177  14.796  0.00  0.00    -0.205 F 
ENDBRANCH   8  10
BRANCH   1  20
ATOM     18  C   UNL     1       0.417  -0.847   3.740  0.00  0.00    +0.201 C 
ATOM     19  O   UNL     1       1.086  -1.859   3.726  0.00  0.00    -0.278 OA
ATOM     20  N   UNL     1       0.379  -0.081   4.848  0.00  0.00    -0.287 N 
ATOM     21  H   UNL     1      -0.102   0.762   4.838  0.00  0.00    +0.155 HD
BRANCH  18  22
ATOM     22  C   UNL     1      -0.371  -0.448   2.520  0.00  0.00    +0.019 C 
BRANCH  22  23
ATOM     23  N   UNL     1      -0.164  -1.440   1.456  0.00  0.00    +0.385 N 
ATOM     24  C   UNL     1      -0.724  -2.732   1.875  0.00  0.00    -0.095 C 
ATOM     25  H   UNL     1       0.825  -1.543   1.281  0.00  0.00    -0.081 HD
BRANCH  23  27
ATOM     26  C   UNL     1      -0.251   0.355  -0.207  0.00  0.00    -0.014 C 
ATOM     27  C   UNL     1      -0.834  -0.990   0.229  0.00  0.00    -0.075 C 
ATOM     28  C   UNL     1      -0.618  -2.023  -0.878  0.00  0.00    -0.014 C 
ENDBRANCH  23  27
ENDBRANCH  22  23
ENDBRANCH  18  22
ENDBRANCH   1  20
TORSDOF 5
