REMARK  Name = ZINC58761272
REMARK  12 active torsions:
REMARK  status: ('A' for Active; 'I' for Inactive)
REMARK    1  A    between atoms: C_1  and  C_2
REMARK    2  A    between atoms: C_2  and  O_3
REMARK    3  A    between atoms: O_3  and  C_4
REMARK    4  A    between atoms: C_7  and  C_12
REMARK    5  A    between atoms: C_9  and  O_10
REMARK    6  A    between atoms: O_10  and  C_11
REMARK    7  A    between atoms: C_12  and  C_14
REMARK    8  A    between atoms: C_12  and  N_15
REMARK    9  A    between atoms: N_15  and  C_16
REMARK   10  A    between atoms: C_16  and  C_18
REMARK   11  A    between atoms: C_16  and  C_19
REMARK   12  A    between atoms: N_21  and  C_22
REMARK                            x       y       z     vdW  Elec       q    Type
REMARK                         _______ _______ _______ _____ _____    ______ ____
ROOT
ATOM      1  N   UNL     1      -0.115  -6.702   1.349  0.00  0.00    +0.391 N 
ATOM      2  H   UNL     1      -0.876  -6.302   1.877  0.00  0.00    -0.084 HD
ATOM      3  H   UNL     1      -0.271  -6.547   0.364  0.00  0.00    -0.084 HD
ENDROOT
BRANCH   1   4
ATOM      4  C   UNL     1       1.147  -6.065   1.751  0.00  0.00    -0.043 C 
ATOM      5  C   UNL     1       2.283  -6.581   0.865  0.00  0.00    -0.009 C 
BRANCH   4   9
ATOM      6  C   UNL     1       0.804  -1.826   1.307  0.00  0.00    +0.162 A 
ATOM      7  C   UNL     1       0.256  -2.671   0.356  0.00  0.00    +0.049 A 
ATOM      8  C   UNL     1       0.369  -4.041   0.502  0.00  0.00    +0.006 A 
ATOM      9  C   UNL     1       1.027  -4.571   1.596  0.00  0.00    -0.058 A 
ATOM     10  C   UNL     1       1.576  -3.733   2.549  0.00  0.00    +0.051 A 
ATOM     11  C   UNL     1       1.472  -2.359   2.405  0.00  0.00    +0.162 A 
BRANCH  11  12
ATOM     12  O   UNL     1       2.017  -1.533   3.338  0.00  0.00    -0.491 OA
ATOM     13  C   UNL     1       2.688  -2.150   4.439  0.00  0.00    +0.277 C 
ENDBRANCH  11  12
BRANCH   6  14
ATOM     14  O   UNL     1       0.695  -0.478   1.165  0.00  0.00    -0.489 OA
BRANCH  14  16
ATOM     15  C   UNL     1      -0.025   1.528   0.024  0.00  0.00    +0.048 C 
ATOM     16  C   UNL     1      -0.004  -0.002   0.013  0.00  0.00    +0.226 C 
ENDBRANCH  14  16
ENDBRANCH   6  14
ENDBRANCH   4   9
ENDBRANCH   1   4
BRANCH   1  17
ATOM     17  C   UNL     1      -0.041  -8.145   1.612  0.00  0.00    +0.014 C 
ATOM     18  C   UNL     1       0.071  -8.384   3.119  0.00  0.00    -0.004 C 
BRANCH  17  19
ATOM     19  C   UNL     1      -1.284  -8.816   1.088  0.00  0.00    +0.203 C 
ATOM     20  O   UNL     1      -2.148  -8.156   0.549  0.00  0.00    -0.277 OA
ATOM     21  N   UNL     1      -1.438 -10.148   1.219  0.00  0.00    -0.287 N 
ATOM     22  H   UNL     1      -0.719 -10.685   1.589  0.00  0.00    +0.155 HD
BRANCH  21  23
ATOM     23  C   UNL     1      -2.633 -10.758   0.821  0.00  0.00    +0.034 A 
ATOM     24  C   UNL     1      -3.132 -11.841   1.533  0.00  0.00    +0.023 A 
ATOM     25  C   UNL     1      -4.312 -12.440   1.138  0.00  0.00    +0.003 A 
ATOM     26  C   UNL     1      -4.996 -11.964   0.035  0.00  0.00    +0.015 A 
ATOM     27  C   UNL     1      -4.501 -10.885  -0.677  0.00  0.00    +0.020 A 
ATOM     28  C   UNL     1      -3.324 -10.277  -0.283  0.00  0.00    +0.038 A 
ATOM     29 BR   UNL     1      -5.440 -10.237  -2.185  0.00  0.00    -0.050 Br
ENDBRANCH  21  23
ENDBRANCH  17  19
ENDBRANCH   1  17
TORSDOF 8
