REMARK  Name = ZINC39453169
REMARK  5 active torsions:
REMARK  status: ('A' for Active; 'I' for Inactive)
REMARK    1  A    between atoms: C_1  and  S_2
REMARK    2  A    between atoms: S_2  and  C_3
REMARK    3  A    between atoms: C_19  and  S_20
REMARK    4  A    between atoms: S_20  and  O_23
REMARK    5  A    between atoms: O_23  and  C_24
REMARK                            x       y       z     vdW  Elec       q    Type
REMARK                         _______ _______ _______ _____ _____    ______ ____
ROOT
ATOM      1  C   UNL     1       1.333  -0.648  -2.844  0.00  0.00    +0.136 C 
ATOM      2  C   UNL     1       2.346  -1.791  -2.711  0.00  0.00    +0.114 C 
ATOM      3  C   UNL     1       1.634  -3.038  -2.258  0.00  0.00    +0.186 C 
ATOM      4  O   UNL     1       2.228  -3.861  -1.591  0.00  0.00    -0.290 OA
ATOM      5  C   UNL     1       0.280  -3.260  -2.601  0.00  0.00    +0.144 A 
ATOM      6  C   UNL     1      -0.415  -2.299  -3.308  0.00  0.00    +0.084 A 
ATOM      7  C   UNL     1      -1.824  -2.530  -3.672  0.00  0.00    +0.100 A 
ATOM      8  C   UNL     1      -2.424  -3.752  -3.265  0.00  0.00    +0.070 A 
ATOM      9  C   UNL     1      -3.748  -4.019  -3.580  0.00  0.00    +0.027 A 
ATOM     10  C   UNL     1      -4.457  -3.048  -4.304  0.00  0.00    +0.029 A 
ATOM     11  C   UNL     1      -3.772  -1.812  -4.691  0.00  0.00    +0.074 A 
ATOM     12  N   UNL     1      -2.498  -1.623  -4.354  0.00  0.00    -0.245 NA
ATOM     13  C   UNL     1      -4.492  -0.846  -5.418  0.00  0.00    +0.028 A 
ATOM     14  C   UNL     1      -5.793  -1.078  -5.740  0.00  0.00    +0.004 A 
ATOM     15  C   UNL     1      -6.442  -2.253  -5.369  0.00  0.00    +0.031 A 
ATOM     16  C   UNL     1      -5.802  -3.228  -4.667  0.00  0.00    +0.137 A 
ATOM     17  C   UNL     1      -1.616  -4.721  -2.508  0.00  0.00    +0.289 A 
ATOM     18  O   UNL     1      -2.110  -5.774  -2.148  0.00  0.00    -0.265 OA
ATOM     19  N   UNL     1      -0.334  -4.446  -2.212  0.00  0.00    -0.136 N 
ATOM     20  F   UNL     1       0.356  -5.319  -1.540  0.00  0.00    -0.090 F 
ATOM     21  N   UNL     1       0.210  -1.120  -3.668  0.00  0.00    -0.328 N 
ATOM     22  H   UNL     1      -0.083  -0.618  -4.444  0.00  0.00    +0.147 HD
ENDROOT
BRANCH  16  23
ATOM     23  S   UNL     1      -6.655  -4.703  -4.215  0.00  0.00    +0.152 S 
ATOM     24  O   UNL     1      -6.495  -5.612  -5.295  0.00  0.00    -0.131 OA
ATOM     25  O   UNL     1      -6.250  -5.016  -2.889  0.00  0.00    -0.131 OA
BRANCH  23  26
ATOM     26  O   UNL     1      -8.137  -4.363  -4.148  0.00  0.00    -0.342 OA
BRANCH  26  27
ATOM     27  C   UNL     1      -8.495  -3.667  -3.038  0.00  0.00    +0.157 A 
ATOM     28  C   UNL     1      -8.777  -4.338  -1.857  0.00  0.00    +0.048 A 
ATOM     29  C   UNL     1      -9.140  -3.628  -0.729  0.00  0.00    +0.004 A 
ATOM     30  C   UNL     1      -9.223  -2.249  -0.776  0.00  0.00    +0.000 A 
ATOM     31  C   UNL     1      -8.943  -1.577  -1.952  0.00  0.00    +0.004 A 
ATOM     32  C   UNL     1      -8.574  -2.282  -3.081  0.00  0.00    +0.048 A 
ENDBRANCH  26  27
ENDBRANCH  23  26
ENDBRANCH  16  23
BRANCH   1  34
ATOM     33  C   UNL     1       0.764   1.642  -1.229  0.00  0.00    +0.086 C 
ATOM     34  S   UNL     1       0.729  -0.172  -1.201  0.00  0.00    -0.142 S 
ENDBRANCH   1  34
TORSDOF 4
