REMARK  Name = ZINC39480416
REMARK  5 active torsions:
REMARK  status: ('A' for Active; 'I' for Inactive)
REMARK    1  A    between atoms: C_1  and  C_2
REMARK    2  A    between atoms: C_2  and  O_3
REMARK    3  A    between atoms: O_3  and  C_4
REMARK    4  A    between atoms: N_11  and  C_23
REMARK    5  A    between atoms: C_20  and  O_22
REMARK                            x       y       z     vdW  Elec       q    Type
REMARK                         _______ _______ _______ _____ _____    ______ ____
ROOT
ATOM      1  C   UNL     1      -1.034  -1.823   0.538  0.00  0.00    +0.122 A 
ATOM      2  C   UNL     1      -2.371  -2.220   0.439  0.00  0.00    +0.051 A 
ATOM      3  C   UNL     1      -2.627  -3.536   0.319  0.00  0.00    -0.013 A 
ATOM      4  C   UNL     1      -1.639  -4.499   0.473  0.00  0.00    +0.052 A 
ATOM      5  C   UNL     1      -0.316  -4.130   0.389  0.00  0.00    +0.038 A 
ATOM      6  C   UNL     1      -0.023  -2.771   0.436  0.00  0.00    +0.061 A 
ATOM      7  I   UNL     1       1.201  -5.561   0.191  0.00  0.00    -0.042 I 
ATOM      8  N   UNL     1      -2.072  -5.627   1.159  0.00  0.00    -0.285 N 
ATOM      9  C   UNL     1      -1.653  -6.926   1.105  0.00  0.00    +0.156 A 
ATOM     10  C   UNL     1      -2.857  -7.588   0.558  0.00  0.00    +0.144 A 
ATOM     11  C   UNL     1      -2.800  -8.922   0.343  0.00  0.00    +0.160 A 
ATOM     12  N   UNL     1      -1.673  -9.573   0.641  0.00  0.00    -0.222 NA
ATOM     13  C   UNL     1      -0.625  -8.945   1.138  0.00  0.00    +0.225 A 
ATOM     14  N   UNL     1      -0.622  -7.635   1.366  0.00  0.00    -0.218 NA
ATOM     15 CL   UNL     1      -4.167  -9.771  -0.308  0.00  0.00    -0.060 Cl
ATOM     16  N   UNL     1      -3.791  -6.611   0.411  0.00  0.00    -0.211 NA
ATOM     17  C   UNL     1      -3.458  -5.614  -0.337  0.00  0.00    +0.192 C 
ATOM     18  C   UNL     1      -3.937  -4.171  -0.216  0.00  0.00    +0.132 C 
ATOM     19  C   UNL     1      -3.167  -5.381   2.102  0.00  0.00    +0.137 C 
ENDROOT
BRANCH  17  20
ATOM     20  O   UNL     1      -2.589  -5.876  -1.336  0.00  0.00    -0.495 OA
ATOM     21  H   UNL     1      -2.308  -6.801  -1.380  0.00  0.00    +0.293 HD
ENDBRANCH  17  20
BRANCH   1  22
ATOM     22  O   UNL     1      -0.724  -0.513   0.729  0.00  0.00    -0.492 OA
BRANCH  22  24
ATOM     23  C   UNL     1       0.814   1.327   1.029  0.00  0.00    +0.048 C 
ATOM     24  C   UNL     1       0.663  -0.181   0.815  0.00  0.00    +0.225 C 
ENDBRANCH  22  24
ENDBRANCH   1  22
TORSDOF 3
