REMARK  Name = ZINC52836171
REMARK  5 active torsions:
REMARK  status: ('A' for Active; 'I' for Inactive)
REMARK    1  A    between atoms: C_1  and  C_2
REMARK    2  A    between atoms: C_5  and  C_7
REMARK    3  A    between atoms: C_7  and  N_8
REMARK    4  A    between atoms: N_8  and  C_9
REMARK    5  A    between atoms: C_14  and  C_16
REMARK                            x       y       z     vdW  Elec       q    Type
REMARK                         _______ _______ _______ _____ _____    ______ ____
ROOT
ATOM      1  N   UNL     1       1.983  -3.620  -1.407  0.00  0.00    -0.311 N 
ATOM      2  C   UNL     1       3.123  -3.014  -2.100  0.00  0.00    +0.131 C 
ATOM      3  C   UNL     1       1.187  -4.547  -2.061  0.00  0.00    +0.126 A 
ATOM      4  C   UNL     1       0.036  -5.048  -1.452  0.00  0.00    +0.083 A 
ATOM      5  C   UNL     1      -0.724  -5.971  -2.146  0.00  0.00    +0.135 A 
ATOM      6  N   UNL     1      -0.338  -6.347  -3.358  0.00  0.00    -0.221 NA
ATOM      7  C   UNL     1       0.755  -5.854  -3.905  0.00  0.00    +0.130 A 
ATOM      8  N   UNL     1       1.506  -4.968  -3.282  0.00  0.00    -0.218 NA
ATOM      9  C   UNL     1       1.154  -6.311  -5.285  0.00  0.00    +0.088 C 
ATOM     10 CL   UNL     1      -2.166  -6.631  -1.439  0.00  0.00    -0.062 Cl
ENDROOT
BRANCH   1  11
ATOM     11  C   UNL     1       1.684  -3.245  -0.023  0.00  0.00    +0.180 C 
BRANCH  11  16
ATOM     12  C   UNL     1      -0.018   1.503   0.010  0.00  0.00    +0.086 C 
ATOM     13  C   UNL     1       0.002  -0.004   0.002  0.00  0.00    +0.102 A 
ATOM     14  C   UNL     1      -1.078  -0.805   0.003  0.00  0.00    +0.045 A 
ATOM     15  C   UNL     1      -0.601  -2.136  -0.007  0.00  0.00    +0.046 A 
ATOM     16  C   UNL     1       0.742  -2.069  -0.013  0.00  0.00    +0.122 A 
ATOM     17  O   UNL     1       1.102  -0.775  -0.013  0.00  0.00    -0.463 OA
ENDBRANCH  11  16
ENDBRANCH   1  11
TORSDOF 2
