REMARK  Name = ZINC63573012
REMARK  7 active torsions:
REMARK  status: ('A' for Active; 'I' for Inactive)
REMARK    1  A    between atoms: C_1  and  C_2
REMARK    2  A    between atoms: C_7  and  N_8
REMARK    3  A    between atoms: C_17  and  O_34
REMARK    4  A    between atoms: C_24  and  C_26
REMARK    5  A    between atoms: C_29  and  O_32
REMARK    6  A    between atoms: O_32  and  C_33
REMARK    7  A    between atoms: O_34  and  C_35
REMARK                            x       y       z     vdW  Elec       q    Type
REMARK                         _______ _______ _______ _____ _____    ______ ____
ROOT
ATOM      1  N   UNL     1       0.202  -0.396   2.369  0.00  0.00    -0.269 N 
ATOM      2  C   UNL     1       0.036  -0.947   3.588  0.00  0.00    +0.307 C 
ATOM      3  O   UNL     1      -0.031  -2.155   3.705  0.00  0.00    -0.252 OA
ATOM      4  N   UNL     1      -0.055  -0.158   4.677  0.00  0.00    -0.276 N 
ATOM      5  C   UNL     1      -0.082   1.299   4.517  0.00  0.00    +0.114 C 
ATOM      6  C   UNL     1      -1.367   1.861   5.152  0.00  0.00    +0.052 C 
ATOM      7  C   UNL     1      -1.515   1.191   6.495  0.00  0.00    -0.035 C 
ATOM      8  C   UNL     1      -1.701   1.691   7.710  0.00  0.00    +0.003 A 
ATOM      9  C   UNL     1      -1.940   3.064   8.182  0.00  0.00    +0.055 A 
ATOM     10  C   UNL     1      -2.072   3.234   9.526  0.00  0.00    +0.121 A 
ATOM     11  C   UNL     1      -1.992   2.191  10.460  0.00  0.00    +0.047 A 
ATOM     12  C   UNL     1      -1.783   0.889  10.135  0.00  0.00    +0.029 A 
ATOM     13  C   UNL     1      -1.634   0.578   8.706  0.00  0.00    +0.043 A 
ATOM     14  N   UNL     1      -1.452  -0.560   8.106  0.00  0.00    -0.375 N 
ATOM     15  C   UNL     1      -1.442  -0.322   6.662  0.00  0.00    +0.131 C 
ATOM     16  C   UNL     1      -0.133  -0.769   6.014  0.00  0.00    +0.134 C 
ATOM     17  H   UNL     1       0.295   0.565   2.280  0.00  0.00    +0.156 HD
ATOM     18  H   UNL     1      -1.340  -1.419   8.541  0.00  0.00    +0.160 HD
ENDROOT
BRANCH   1  25
ATOM     19  C   UNL     1      -0.600   0.728  -0.118  0.00  0.00    +0.045 C 
ATOM     20  C   UNL     1      -0.142  -0.703  -0.001  0.00  0.00    -0.029 A 
ATOM     21  C   UNL     1      -0.098  -1.508  -1.123  0.00  0.00    +0.006 A 
ATOM     22  C   UNL     1       0.322  -2.821  -1.018  0.00  0.00    +0.020 A 
ATOM     23  C   UNL     1       0.699  -3.333   0.212  0.00  0.00    +0.043 A 
ATOM     24  C   UNL     1       0.657  -2.532   1.337  0.00  0.00    +0.043 A 
ATOM     25  C   UNL     1       0.241  -1.211   1.233  0.00  0.00    +0.039 A 
ATOM     26 CL   UNL     1       1.225  -4.982   0.340  0.00  0.00    -0.083 Cl
ENDBRANCH   1  25
BRANCH  16  27
ATOM     27  C   UNL     1       1.031  -0.309   6.854  0.00  0.00    -0.024 A 
ATOM     28  C   UNL     1       1.172   1.031   7.163  0.00  0.00    +0.009 A 
ATOM     29  C   UNL     1       2.239   1.454   7.932  0.00  0.00    +0.046 A 
ATOM     30  C   UNL     1       3.167   0.534   8.395  0.00  0.00    +0.120 A 
ATOM     31  C   UNL     1       3.023  -0.810   8.084  0.00  0.00    +0.046 A 
ATOM     32  C   UNL     1       1.952  -1.230   7.319  0.00  0.00    +0.009 A 
BRANCH  30  33
ATOM     33  O   UNL     1       4.218   0.948   9.152  0.00  0.00    -0.495 OA
ATOM     34  C   UNL     1       5.135  -0.055   9.594  0.00  0.00    +0.277 C 
ENDBRANCH  30  33
ENDBRANCH  16  27
BRANCH  10  35
ATOM     35  O   UNL     1      -2.293   4.492   9.992  0.00  0.00    -0.495 OA
ATOM     36  C   UNL     1      -2.428   4.645  11.406  0.00  0.00    +0.277 C 
ENDBRANCH  10  35
TORSDOF 4
