REMARK  Name = ZINC16557441
REMARK  11 active torsions:
REMARK  status: ('A' for Active; 'I' for Inactive)
REMARK    1  A    between atoms: C_1  and  C_2
REMARK    2  A    between atoms: C_2  and  N_61
REMARK    3  A    between atoms: C_3  and  C_4
REMARK    4  A    between atoms: C_3  and  N_61
REMARK    5  A    between atoms: N_6  and  C_7
REMARK    6  A    between atoms: C_10  and  C_13
REMARK    7  A    between atoms: C_19  and  C_20
REMARK    8  A    between atoms: C_19  and  N_61
REMARK    9  A    between atoms: N_22  and  C_23
REMARK   10  A    between atoms: C_26  and  N_29
REMARK   11  A    between atoms: C_30  and  C_32
REMARK                            x       y       z     vdW  Elec       q    Type
REMARK                         _______ _______ _______ _____ _____    ______ ____
ROOT
ATOM      1  N   UNL     1       3.410   1.573   0.649  0.00  0.00    +0.391 N 
ATOM      2  H   UNL     1       3.294   2.223   1.436  0.00  0.00    -0.080 HD
ENDROOT
BRANCH   1   4
ATOM      3  C   UNL     1       2.129   3.313  -0.495  0.00  0.00    -0.017 C 
ATOM      4  C   UNL     1       3.293   2.327  -0.616  0.00  0.00    -0.081 C 
ENDBRANCH   1   4
BRANCH   1   5
ATOM      5  C   UNL     1       4.743   0.942   0.740  0.00  0.00    +0.020 C 
BRANCH   5   6
ATOM      6  C   UNL     1       5.783   2.023   0.887  0.00  0.00    +0.201 C 
ATOM      7  O   UNL     1       5.449   3.189   0.897  0.00  0.00    -0.278 OA
ATOM      8  N   UNL     1       7.085   1.694   1.008  0.00  0.00    -0.287 N 
ATOM      9  H   UNL     1       7.359   0.767   0.931  0.00  0.00    +0.155 HD
BRANCH   8  10
ATOM     10  C   UNL     1       8.038   2.688   1.244  0.00  0.00    +0.033 A 
ATOM     11  C   UNL     1       7.911   3.931   0.634  0.00  0.00    +0.024 A 
ATOM     12  C   UNL     1       8.847   4.915   0.870  0.00  0.00    +0.010 A 
ATOM     13  C   UNL     1       9.928   4.659   1.712  0.00  0.00    -0.018 A 
ATOM     14  C   UNL     1      10.057   3.411   2.318  0.00  0.00    +0.010 A 
ATOM     15  C   UNL     1       9.115   2.432   2.084  0.00  0.00    +0.024 A 
BRANCH  13  16
ATOM     16  C   UNL     1      10.941   5.714   1.962  0.00  0.00    -0.018 A 
ATOM     17  C   UNL     1      12.020   5.462   2.808  0.00  0.00    +0.008 A 
ATOM     18  C   UNL     1      12.961   6.446   3.032  0.00  0.00    +0.001 A 
ATOM     19  C   UNL     1      12.830   7.684   2.429  0.00  0.00    +0.000 A 
ATOM     20  C   UNL     1      11.759   7.941   1.593  0.00  0.00    +0.001 A 
ATOM     21  C   UNL     1      10.814   6.963   1.356  0.00  0.00    +0.008 A 
ENDBRANCH  13  16
ENDBRANCH   8  10
ENDBRANCH   5   6
ENDBRANCH   1   5
BRANCH   1  22
ATOM     22  C   UNL     1       2.356   0.539   0.721  0.00  0.00    +0.020 C 
BRANCH  22  23
ATOM     23  C   UNL     1       2.206   0.100   2.155  0.00  0.00    +0.201 C 
ATOM     24  O   UNL     1       2.857   0.639   3.025  0.00  0.00    -0.278 OA
ATOM     25  N   UNL     1       1.350  -0.891   2.470  0.00  0.00    -0.287 N 
ATOM     26  H   UNL     1       0.779  -1.275   1.786  0.00  0.00    +0.155 HD
BRANCH  25  27
ATOM     27  C   UNL     1       1.280  -1.364   3.787  0.00  0.00    +0.033 A 
ATOM     28  C   UNL     1       1.044  -2.711   4.029  0.00  0.00    +0.025 A 
ATOM     29  C   UNL     1       0.980  -3.178   5.327  0.00  0.00    +0.025 A 
ATOM     30  C   UNL     1       1.140  -2.299   6.390  0.00  0.00    +0.033 A 
ATOM     31  C   UNL     1       1.371  -0.951   6.147  0.00  0.00    +0.025 A 
ATOM     32  C   UNL     1       1.440  -0.485   4.850  0.00  0.00    +0.025 A 
BRANCH  30  33
ATOM     33  N   UNL     1       1.070  -2.771   7.706  0.00  0.00    -0.286 N 
ATOM     34  C   UNL     1       1.504  -4.013   8.001  0.00  0.00    +0.214 C 
ATOM     35  O   UNL     1       2.037  -4.688   7.145  0.00  0.00    -0.276 OA
ATOM     36  C   UNL     1       1.328  -4.563   9.393  0.00  0.00    +0.109 C 
ATOM     37  H   UNL     1       0.709  -2.205   8.406  0.00  0.00    +0.155 HD
ENDBRANCH  30  33
ENDBRANCH  25  27
ENDBRANCH  22  23
ENDBRANCH   1  22
TORSDOF 9
