REMARK  Name = ZINC36342675
REMARK  8 active torsions:
REMARK  status: ('A' for Active; 'I' for Inactive)
REMARK    1  A    between atoms: C_1  and  C_2
REMARK    2  A    between atoms: C_5  and  C_35
REMARK    3  A    between atoms: C_6  and  C_8
REMARK    4  A    between atoms: C_11  and  C_27
REMARK    5  A    between atoms: C_14  and  C_16
REMARK    6  A    between atoms: C_16  and  N_17
REMARK    7  A    between atoms: C_30  and  C_34
REMARK    8  A    between atoms: C_31  and  C_33
REMARK                            x       y       z     vdW  Elec       q    Type
REMARK                         _______ _______ _______ _____ _____    ______ ____
ROOT
ATOM      1  C   UNL     1       0.054  -2.845   2.489  0.00  0.00    +0.137 C 
ATOM      2  C   UNL     1       1.501  -3.162   2.913  0.00  0.00    +0.087 C 
ATOM      3  C   UNL     1       1.657  -2.448   4.237  0.00  0.00    +0.069 C 
ATOM      4  N   UNL     1       0.558  -1.845   4.533  0.00  0.00    -0.181 NA
ATOM      5  N   UNL     1      -0.455  -2.006   3.585  0.00  0.00    -0.187 N 
ATOM      6  C   UNL     1      -1.694  -1.480   3.660  0.00  0.00    +0.219 C 
ATOM      7  O   UNL     1      -2.495  -1.687   2.773  0.00  0.00    -0.276 OA
ENDROOT
BRANCH   1  13
ATOM      8  C   UNL     1      -0.018   1.503   0.010  0.00  0.00    +0.044 C 
ATOM      9  C   UNL     1       0.002  -0.004   0.002  0.00  0.00    -0.050 A 
ATOM     10  C   UNL     1       0.006  -0.689  -1.199  0.00  0.00    +0.003 A 
ATOM     11  C   UNL     1       0.025  -2.071  -1.207  0.00  0.00    +0.004 A 
ATOM     12  C   UNL     1       0.040  -2.768  -0.013  0.00  0.00    -0.045 A 
ATOM     13  C   UNL     1       0.037  -2.084   1.188  0.00  0.00    -0.022 A 
ATOM     14  C   UNL     1       0.023  -0.702   1.195  0.00  0.00    +0.009 A 
ATOM     15  C   UNL     1       0.059  -4.275  -0.021  0.00  0.00    +0.044 C 
ENDBRANCH   1  13
BRANCH   3  16
ATOM     16  C   UNL     1       2.880  -2.443   5.062  0.00  0.00    -0.002 A 
ATOM     17  C   UNL     1       4.018  -3.131   4.635  0.00  0.00    +0.010 A 
ATOM     18  C   UNL     1       5.157  -3.122   5.412  0.00  0.00    +0.004 A 
ATOM     19  C   UNL     1       5.175  -2.433   6.612  0.00  0.00    -0.048 A 
ATOM     20  C   UNL     1       4.051  -1.749   7.042  0.00  0.00    -0.047 A 
ATOM     21  C   UNL     1       2.906  -1.745   6.272  0.00  0.00    +0.013 A 
ATOM     22  C   UNL     1       4.080  -1.003   8.350  0.00  0.00    +0.044 C 
ATOM     23  C   UNL     1       6.423  -2.429   7.456  0.00  0.00    +0.044 C 
ENDBRANCH   3  16
BRANCH   6  24
ATOM     24  C   UNL     1      -2.084  -0.636   4.846  0.00  0.00    +0.021 C 
BRANCH  24  25
ATOM     25  N   UNL     1      -3.474  -0.186   4.691  0.00  0.00    +0.386 N 
ATOM     26  C   UNL     1      -4.369  -1.349   4.719  0.00  0.00    -0.073 C 
ATOM     27  C   UNL     1      -5.809  -0.895   4.473  0.00  0.00    +0.046 C 
ATOM     28  C   UNL     1      -6.217   0.100   5.562  0.00  0.00    +0.167 C 
ATOM     29  C   UNL     1      -5.232   1.270   5.581  0.00  0.00    +0.046 C 
ATOM     30  C   UNL     1      -3.814   0.732   5.784  0.00  0.00    -0.073 C 
ATOM     31  O   UNL     1      -7.540   0.590   5.293  0.00  0.00    -0.346 OA
ATOM     32  C   UNL     1      -8.414  -0.246   6.089  0.00  0.00    +0.191 C 
ATOM     33  C   UNL     1      -7.557  -0.478   7.359  0.00  0.00    +0.191 C 
ATOM     34  O   UNL     1      -6.214  -0.553   6.837  0.00  0.00    -0.346 OA
ATOM     35  H   UNL     1      -3.575   0.292   3.808  0.00  0.00    -0.081 HD
ENDBRANCH  24  25
ENDBRANCH   6  24
TORSDOF 4
