REMARK  Name = ZINC09312123
REMARK  5 active torsions:
REMARK  status: ('A' for Active; 'I' for Inactive)
REMARK    1  A    between atoms: C_6  and  N_7
REMARK    2  A    between atoms: C_10  and  C_11
REMARK    3  A    between atoms: N_12  and  C_13
REMARK    4  A    between atoms: C_13  and  C_14
REMARK    5  A    between atoms: C_23  and  O_27
REMARK                            x       y       z     vdW  Elec       q    Type
REMARK                         _______ _______ _______ _____ _____    ______ ____
ROOT
ATOM      1  N   UNL     1       0.950   1.701  -0.057  0.00  0.00    -0.192 N 
ATOM      2  C   UNL     1      -0.307   1.211   0.005  0.00  0.00    +0.245 C 
ATOM      3  O   UNL     1      -0.516   0.012  -0.011  0.00  0.00    -0.274 OA
ATOM      4  C   UNL     1      -1.418   2.176   0.087  0.00  0.00    +0.199 C 
ATOM      5  C   UNL     1      -1.063   3.602   0.105  0.00  0.00    +0.198 C 
ATOM      6  N   UNL     1       0.215   3.935   0.038  0.00  0.00    -0.131 NA
ATOM      7  C   UNL     1       1.179   3.022  -0.040  0.00  0.00    +0.339 C 
ATOM      8  O   UNL     1       2.334   3.407  -0.099  0.00  0.00    -0.250 OA
ENDROOT
BRANCH   1  14
ATOM      9  C   UNL     1       3.034   0.847   0.819  0.00  0.00    +0.025 A 
ATOM     10  C   UNL     1       4.097  -0.031   0.737  0.00  0.00    +0.016 A 
ATOM     11  C   UNL     1       4.169  -0.936  -0.307  0.00  0.00    +0.013 A 
ATOM     12  C   UNL     1       3.174  -0.967  -1.268  0.00  0.00    +0.016 A 
ATOM     13  C   UNL     1       2.106  -0.095  -1.188  0.00  0.00    +0.025 A 
ATOM     14  C   UNL     1       2.032   0.814  -0.141  0.00  0.00    +0.046 A 
ATOM     15  I   UNL     1       5.787  -2.260  -0.434  0.00  0.00    -0.044 I 
ENDBRANCH   1  14
BRANCH   4  16
ATOM     16  C   UNL     1      -2.739   1.757   0.148  0.00  0.00    +0.100 C 
ATOM     17  N   UNL     1      -3.735   2.658   0.063  0.00  0.00    -0.290 NA
BRANCH  17  18
ATOM     18  C   UNL     1      -5.130   2.216   0.128  0.00  0.00    +0.176 C 
BRANCH  18  19
ATOM     19  C   UNL     1      -6.042   3.410   0.010  0.00  0.00    -0.023 A 
ATOM     20  C   UNL     1      -6.449   4.082   1.147  0.00  0.00    +0.009 A 
ATOM     21  C   UNL     1      -7.282   5.181   1.044  0.00  0.00    +0.050 A 
ATOM     22  C   UNL     1      -7.718   5.605  -0.201  0.00  0.00    +0.166 A 
ATOM     23  C   UNL     1      -7.312   4.925  -1.346  0.00  0.00    +0.167 A 
ATOM     24  C   UNL     1      -6.474   3.827  -1.235  0.00  0.00    +0.055 A 
ATOM     25  O   UNL     1      -7.872   5.530  -2.434  0.00  0.00    -0.453 OA
ATOM     26  C   UNL     1      -8.292   6.829  -1.978  0.00  0.00    +0.466 C 
ATOM     27  O   UNL     1      -8.532   6.636  -0.571  0.00  0.00    -0.453 OA
ENDBRANCH  18  19
ENDBRANCH  17  18
ENDBRANCH   4  16
BRANCH   5  28
ATOM     28  O   UNL     1      -2.021   4.550   0.183  0.00  0.00    -0.496 OA
ATOM     29  H   UNL     1      -1.679   5.455   0.184  0.00  0.00    +0.293 HD
ENDBRANCH   5  28
TORSDOF 5
