REMARK  Name = ZINC09439661
REMARK  6 active torsions:
REMARK  status: ('A' for Active; 'I' for Inactive)
REMARK    1  A    between atoms: C_1  and  N_2
REMARK    2  A    between atoms: N_2  and  C_3
REMARK    3  A    between atoms: N_2  and  S_4
REMARK    4  A    between atoms: S_4  and  C_7
REMARK    5  A    between atoms: C_9  and  N_14
REMARK    6  A    between atoms: C_15  and  C_17
REMARK                            x       y       z     vdW  Elec       q    Type
REMARK                         _______ _______ _______ _____ _____    ______ ____
ROOT
ATOM      1  N   UNL     1       1.429  -4.854   0.029  0.00  0.00    -0.281 N 
ATOM      2  C   UNL     1       2.474  -4.211  -0.528  0.00  0.00    +0.255 C 
ATOM      3  O   UNL     1       3.354  -4.845  -1.079  0.00  0.00    -0.270 OA
ATOM      4  H   UNL     1       0.759  -4.354   0.522  0.00  0.00    +0.155 HD
ENDROOT
BRANCH   2   5
ATOM      5  C   UNL     1       2.551  -2.742  -0.470  0.00  0.00    +0.122 A 
ATOM      6  C   UNL     1       1.556  -2.008   0.153  0.00  0.00    +0.031 A 
ATOM      7  C   UNL     1       1.671  -0.595   0.186  0.00  0.00    +0.019 A 
ATOM      8  C   UNL     1       0.681   0.179   0.810  0.00  0.00    +0.026 A 
ATOM      9  C   UNL     1       0.797   1.539   0.837  0.00  0.00    +0.019 A 
ATOM     10  C   UNL     1       1.891   2.164   0.251  0.00  0.00    +0.019 A 
ATOM     11  C   UNL     1       2.875   1.422  -0.367  0.00  0.00    +0.048 A 
ATOM     12  C   UNL     1       2.779   0.035  -0.408  0.00  0.00    +0.139 A 
ATOM     13  O   UNL     1       3.745  -0.688  -1.013  0.00  0.00    -0.422 OA
ATOM     14  C   UNL     1       3.684  -2.029  -1.071  0.00  0.00    +0.350 A 
ATOM     15  O   UNL     1       4.569  -2.653  -1.625  0.00  0.00    -0.244 OA
ATOM     16 BR   UNL     1      -0.539   2.579   1.678  0.00  0.00    -0.050 Br
ENDBRANCH   2   5
BRANCH   1  19
ATOM     17  C   UNL     1       2.323  -8.410  -0.239  0.00  0.00    +0.125 A 
ATOM     18  C   UNL     1       2.444  -7.040  -0.108  0.00  0.00    +0.053 A 
ATOM     19  C   UNL     1       1.309  -6.241  -0.104  0.00  0.00    +0.036 A 
ATOM     20  C   UNL     1       0.053  -6.822  -0.228  0.00  0.00    +0.025 A 
ATOM     21  C   UNL     1      -0.062  -8.191  -0.364  0.00  0.00    +0.024 A 
ATOM     22  C   UNL     1       1.072  -8.986  -0.367  0.00  0.00    +0.067 A 
ATOM     23 CL   UNL     1       0.923 -10.707  -0.532  0.00  0.00    -0.082 Cl
BRANCH  17  24
ATOM     24  S   UNL     1       3.764  -9.424  -0.244  0.00  0.00    +0.062 S 
ATOM     25  O   UNL     1       4.871  -8.559  -0.034  0.00  0.00    -0.153 OA
ATOM     26  O   UNL     1       3.487 -10.527   0.608  0.00  0.00    -0.153 OA
BRANCH  24  28
ATOM     27  C   UNL     1       4.556  -9.232  -2.823  0.00  0.00    +0.131 C 
ATOM     28  N   UNL     1       3.925 -10.037  -1.774  0.00  0.00    -0.183 NA
ATOM     29  C   UNL     1       3.438 -11.385  -2.078  0.00  0.00    +0.131 C 
ENDBRANCH  24  28
ENDBRANCH  17  24
ENDBRANCH   1  19
TORSDOF 4
