REMARK  Name = ZINC36580436
REMARK  20 active torsions:
REMARK  status: ('A' for Active; 'I' for Inactive)
REMARK    1  A    between atoms: C_1  and  C_2
REMARK    2  A    between atoms: C_2  and  C_3
REMARK    3  A    between atoms: C_3  and  C_4
REMARK    4  A    between atoms: C_4  and  C_5
REMARK    5  A    between atoms: C_5  and  C_6
REMARK    6  A    between atoms: C_6  and  C_8
REMARK    7  A    between atoms: C_6  and  N_19
REMARK    8  A    between atoms: N_10  and  C_11
REMARK    9  A    between atoms: C_11  and  C_12
REMARK   10  A    between atoms: C_11  and  C_13
REMARK   11  A    between atoms: C_11  and  C_14
REMARK   12  A    between atoms: C_14  and  C_15
REMARK   13  A    between atoms: C_15  and  C_16
REMARK   14  A    between atoms: C_15  and  C_17
REMARK   15  A    between atoms: C_15  and  C_18
REMARK   16  A    between atoms: N_19  and  C_28
REMARK   17  A    between atoms: C_20  and  C_22
REMARK   18  A    between atoms: C_28  and  C_29
REMARK   19  A    between atoms: C_28  and  C_30
REMARK   20  A    between atoms: C_28  and  C_31
REMARK                            x       y       z     vdW  Elec       q    Type
REMARK                         _______ _______ _______ _____ _____    ______ ____
ROOT
ATOM      1  C   UNL     1       1.610  -5.139  -1.781  0.00  0.00    +0.162 C 
ENDROOT
BRANCH   1   2
ATOM      2  C   UNL     1       1.956  -5.982  -2.981  0.00  0.00    +0.234 C 
ATOM      3  O   UNL     1       1.084  -6.327  -3.750  0.00  0.00    -0.274 OA
ATOM      4  N   UNL     1       3.233  -6.351  -3.200  0.00  0.00    -0.309 N 
ATOM      5  H   UNL     1       3.930  -6.074  -2.585  0.00  0.00    +0.149 HD
BRANCH   4   6
ATOM      6  C   UNL     1       3.569  -7.171  -4.367  0.00  0.00    +0.030 C 
ATOM      7  C   UNL     1       3.132  -8.616  -4.118  0.00  0.00    +0.031 C 
ATOM      8  C   UNL     1       2.846  -6.624  -5.599  0.00  0.00    +0.031 C 
BRANCH   6   9
ATOM      9  C   UNL     1       5.080  -7.128  -4.602  0.00  0.00    +0.031 C 
BRANCH   9  10
ATOM     10  C   UNL     1       5.549  -5.672  -4.647  0.00  0.00    -0.036 C 
ATOM     11  C   UNL     1       5.366  -5.035  -3.269  0.00  0.00    +0.010 C 
ATOM     12  C   UNL     1       7.027  -5.624  -5.040  0.00  0.00    +0.010 C 
ATOM     13  C   UNL     1       4.722  -4.903  -5.679  0.00  0.00    +0.010 C 
ENDBRANCH   9  10
ENDBRANCH   6   9
ENDBRANCH   4   6
ENDBRANCH   1   2
BRANCH   1  14
ATOM     14  N   UNL     1       0.176  -4.840  -1.790  0.00  0.00    -0.285 N 
ATOM     15  C   UNL     1      -0.620  -5.325  -0.817  0.00  0.00    +0.220 C 
ATOM     16  O   UNL     1      -0.130  -5.806   0.183  0.00  0.00    -0.275 OA
BRANCH  15  17
ATOM     17  C   UNL     1      -2.118  -5.270  -0.971  0.00  0.00    +0.075 C 
ATOM     18  C   UNL     1      -2.552  -3.825  -1.224  0.00  0.00    +0.013 C 
ATOM     19  C   UNL     1      -4.073  -3.769  -1.381  0.00  0.00    +0.001 C 
ATOM     20  C   UNL     1      -4.736  -4.284  -0.102  0.00  0.00    +0.000 C 
ATOM     21  C   UNL     1      -4.302  -5.729   0.151  0.00  0.00    +0.001 C 
ATOM     22  C   UNL     1      -2.781  -5.785   0.307  0.00  0.00    +0.013 C 
ENDBRANCH  15  17
BRANCH  14  23
ATOM     23  C   UNL     1      -0.393  -4.013  -2.858  0.00  0.00    +0.030 C 
ATOM     24  C   UNL     1       0.595  -3.934  -4.023  0.00  0.00    +0.031 C 
ATOM     25  C   UNL     1      -1.703  -4.637  -3.342  0.00  0.00    +0.031 C 
ATOM     26  C   UNL     1      -0.664  -2.606  -2.323  0.00  0.00    +0.031 C 
ENDBRANCH  14  23
ENDBRANCH   1  14
BRANCH   1  27
ATOM     27  C   UNL     1       2.404  -3.831  -1.830  0.00  0.00    +0.032 C 
BRANCH  27  28
ATOM     28  C   UNL     1       2.071  -2.986  -0.599  0.00  0.00    +0.002 C 
BRANCH  28  29
ATOM     29  C   UNL     1       2.865  -1.679  -0.648  0.00  0.00    -0.000 C 
BRANCH  29  31
ATOM     30  C   UNL     1       3.326   0.473   0.534  0.00  0.00    +0.004 C 
ATOM     31  C   UNL     1       2.533  -0.834   0.583  0.00  0.00    -0.003 C 
ENDBRANCH  29  31
ENDBRANCH  28  29
ENDBRANCH  27  28
ENDBRANCH   1  27
TORSDOF 11
