REMARK  Name = ZINC62062340
REMARK  10 active torsions:
REMARK  status: ('A' for Active; 'I' for Inactive)
REMARK    1  A    between atoms: C_1  and  C_2
REMARK    2  A    between atoms: C_2  and  N_3
REMARK    3  A    between atoms: N_3  and  C_4
REMARK    4  A    between atoms: C_4  and  C_5
REMARK    5  A    between atoms: C_9  and  C_12
REMARK    6  A    between atoms: C_12  and  N_13
REMARK    7  A    between atoms: C_14  and  C_16
REMARK    8  A    between atoms: N_18  and  C_19
REMARK    9  A    between atoms: C_23  and  C_26
REMARK   10  A    between atoms: C_24  and  C_25
REMARK                            x       y       z     vdW  Elec       q    Type
REMARK                         _______ _______ _______ _____ _____    ______ ____
ROOT
ATOM      1  N   UNL     1      -5.337   0.438   4.244  0.00  0.00    -0.303 N 
ATOM      2  C   UNL     1      -5.920   0.197   5.435  0.00  0.00    +0.300 C 
ATOM      3  O   UNL     1      -5.909  -0.924   5.900  0.00  0.00    -0.265 OA
ATOM      4  H   UNL     1      -5.346   1.334   3.872  0.00  0.00    +0.149 HD
ENDROOT
BRANCH   2   5
ATOM      5  C   UNL     1      -6.578   1.309   6.183  0.00  0.00    +0.303 C 
ATOM      6  O   UNL     1      -6.589   2.430   5.718  0.00  0.00    -0.265 OA
ATOM      7  N   UNL     1      -7.160   1.068   7.374  0.00  0.00    -0.277 N 
ATOM      8  H   UNL     1      -7.218   0.160   7.711  0.00  0.00    +0.155 HD
BRANCH   7   9
ATOM      9  C   UNL     1      -7.681   2.126   8.125  0.00  0.00    +0.037 A 
ATOM     10  C   UNL     1      -7.245   3.425   7.890  0.00  0.00    +0.023 A 
ATOM     11  C   UNL     1      -7.756   4.475   8.629  0.00  0.00    +0.003 A 
ATOM     12  C   UNL     1      -8.703   4.240   9.607  0.00  0.00    +0.013 A 
ATOM     13  C   UNL     1      -9.146   2.940   9.851  0.00  0.00    +0.041 A 
ATOM     14  C   UNL     1      -8.635   1.881   9.100  0.00  0.00    -0.017 A 
ATOM     15  C   UNL     1      -9.114   0.474   9.353  0.00  0.00    +0.046 C 
BRANCH  13  16
ATOM     16  C   UNL     1     -10.160   2.686  10.897  0.00  0.00    +0.242 C 
ATOM     17  O   UNL     1     -10.453   1.544  11.195  0.00  0.00    -0.270 OA
ATOM     18  N   UNL     1     -10.758   3.720  11.521  0.00  0.00    -0.325 N 
ATOM     19  H   UNL     1     -10.524   4.631  11.283  0.00  0.00    +0.145 HD
ATOM     20  H   UNL     1     -11.423   3.553  12.207  0.00  0.00    +0.145 HD
ENDBRANCH  13  16
ENDBRANCH   7   9
ENDBRANCH   2   5
BRANCH   1  21
ATOM     21  C   UNL     1      -4.691  -0.653   3.510  0.00  0.00    +0.141 C 
BRANCH  21  26
ATOM     22  N   UNL     1      -2.693   1.294  -1.367  0.00  0.00    -0.317 N 
ATOM     23  C   UNL     1      -3.167   0.818  -0.150  0.00  0.00    +0.099 A 
ATOM     24  C   UNL     1      -2.339   0.841   0.968  0.00  0.00    +0.042 A 
ATOM     25  C   UNL     1      -2.823   0.364   2.173  0.00  0.00    +0.010 A 
ATOM     26  C   UNL     1      -4.123  -0.123   2.219  0.00  0.00    -0.014 A 
ATOM     27  C   UNL     1      -4.888  -0.116   1.071  0.00  0.00    +0.089 A 
ATOM     28  N   UNL     1      -4.402   0.350  -0.064  0.00  0.00    -0.349 N 
ATOM     29  H   UNL     1      -4.963   0.347  -0.856  0.00  0.00    +0.167 HD
BRANCH  22  31
ATOM     30  C   UNL     1      -1.327   3.314  -1.173  0.00  0.00    +0.024 C 
ATOM     31  C   UNL     1      -1.327   1.812  -1.470  0.00  0.00    +0.103 C 
ENDBRANCH  22  31
BRANCH  22  32
ATOM     32  C   UNL     1      -3.561   1.278  -2.547  0.00  0.00    +0.103 C 
ATOM     33  C   UNL     1      -3.387  -0.048  -3.290  0.00  0.00    +0.024 C 
ENDBRANCH  22  32
ENDBRANCH  21  26
ENDBRANCH   1  21
TORSDOF 7
