REMARK  Name = ZINC09389999
REMARK  8 active torsions:
REMARK  status: ('A' for Active; 'I' for Inactive)
REMARK    1  A    between atoms: C_1  and  O_2
REMARK    2  A    between atoms: O_2  and  C_3
REMARK    3  A    between atoms: C_6  and  C_11
REMARK    4  A    between atoms: C_7  and  O_9
REMARK    5  A    between atoms: O_9  and  C_10
REMARK    6  A    between atoms: C_17  and  C_19
REMARK    7  A    between atoms: N_22  and  C_25
REMARK    8  A    between atoms: C_28  and  C_30
REMARK                            x       y       z     vdW  Elec       q    Type
REMARK                         _______ _______ _______ _____ _____    ______ ____
ROOT
ATOM      1  C   UNL     1       1.698  -2.158   2.031  0.00  0.00    +0.078 C 
ATOM      2  C   UNL     1       0.731  -2.817   1.044  0.00  0.00    +0.032 C 
ATOM      3  C   UNL     1       0.531  -4.283   1.435  0.00  0.00    +0.107 C 
ATOM      4  N   UNL     1      -0.005  -4.360   2.800  0.00  0.00    -0.315 N 
ATOM      5  C   UNL     1       0.929  -3.776   3.771  0.00  0.00    +0.107 C 
ATOM      6  C   UNL     1       1.140  -2.294   3.450  0.00  0.00    +0.032 C 
ENDROOT
BRANCH   4   7
ATOM      7  C   UNL     1      -0.321  -5.671   3.138  0.00  0.00    +0.117 A 
ATOM      8  C   UNL     1      -1.613  -6.146   2.928  0.00  0.00    +0.079 A 
ATOM      9  C   UNL     1      -1.911  -7.455   3.264  0.00  0.00    +0.037 A 
ATOM     10  C   UNL     1      -0.908  -8.243   3.812  0.00  0.00    +0.072 A 
ATOM     11  C   UNL     1       0.349  -7.705   3.998  0.00  0.00    +0.096 A 
ATOM     12 CL   UNL     1      -2.830  -5.113   2.246  0.00  0.00    -0.080 Cl
ATOM     13  N   UNL     1       0.680  -6.426   3.675  0.00  0.00    -0.348 N 
ATOM     14  H   UNL     1       1.625  -6.053   3.825  0.00  0.00    +0.167 HD
BRANCH  10  15
ATOM     15  C   UNL     1      -1.189  -9.672   4.199  0.00  0.00    +0.419 C 
ATOM     16  F   UNL     1      -0.028 -10.251   4.723  0.00  0.00    -0.166 F 
ATOM     17  F   UNL     1      -2.202  -9.704   5.163  0.00  0.00    -0.166 F 
ATOM     18  F   UNL     1      -1.598 -10.389   3.069  0.00  0.00    -0.166 F 
ENDBRANCH  10  15
ENDBRANCH   4   7
BRANCH   1  24
ATOM     19  C   UNL     1       2.527   1.044   0.016  0.00  0.00    +0.110 C 
ATOM     20  C   UNL     1       3.112   0.972  -1.410  0.00  0.00    +0.029 C 
ATOM     21  C   UNL     1       3.736  -0.451  -1.455  0.00  0.00    +0.021 C 
ATOM     22  C   UNL     1       2.733  -1.260  -0.595  0.00  0.00    +0.108 C 
ATOM     23  N   UNL     1       2.328  -0.337   0.480  0.00  0.00    -0.294 N 
ATOM     24  C   UNL     1       1.852  -0.699   1.688  0.00  0.00    +0.219 C 
ATOM     25  O   UNL     1       1.547   0.150   2.499  0.00  0.00    -0.275 OA
BRANCH  19  29
ATOM     26  C   UNL     1      -1.217   3.110  -0.051  0.00  0.00    +0.124 A 
ATOM     27  C   UNL     1      -1.185   1.723  -0.054  0.00  0.00    +0.046 A 
ATOM     28  C   UNL     1       0.025   1.058  -0.027  0.00  0.00    +0.012 A 
ATOM     29  C   UNL     1       1.208   1.772  -0.007  0.00  0.00    +0.015 A 
ATOM     30  C   UNL     1       1.182   3.159  -0.009  0.00  0.00    +0.128 A 
ATOM     31  C   UNL     1      -0.032   3.829  -0.030  0.00  0.00    +0.091 A 
BRANCH  26  33
ATOM     32  C   UNL     1      -3.589   2.959  -0.092  0.00  0.00    +0.277 C 
ATOM     33  O   UNL     1      -2.408   3.764  -0.072  0.00  0.00    -0.495 OA
ENDBRANCH  26  33
BRANCH  30  34
ATOM     34  O   UNL     1       2.346   3.861   0.012  0.00  0.00    -0.495 OA
ATOM     35  C   UNL     1       2.244   5.287   0.009  0.00  0.00    +0.277 C 
ENDBRANCH  30  34
ENDBRANCH  19  29
ENDBRANCH   1  24
TORSDOF 6
