REMARK  Name = ZINC39323691
REMARK  4 active torsions:
REMARK  status: ('A' for Active; 'I' for Inactive)
REMARK    1  A    between atoms: C_1  and  C_2
REMARK    2  A    between atoms: C_10  and  N_25
REMARK    3  A    between atoms: C_11  and  C_15
REMARK    4  A    between atoms: N_17  and  C_18
REMARK                            x       y       z     vdW  Elec       q    Type
REMARK                         _______ _______ _______ _____ _____    ______ ____
ROOT
ATOM      1  C   UNL     1      -0.045   1.531   0.040  0.00  0.00    +0.008 C 
ATOM      2  C   UNL     1      -0.025   0.001   0.029  0.00  0.00    -0.009 C 
ATOM      3  C   UNL     1      -1.461  -0.534   0.063  0.00  0.00    +0.010 C 
ATOM      4  C   UNL     1      -1.420  -2.039  -0.195  0.00  0.00    +0.056 C 
ATOM      5  C   UNL     1      -0.433  -2.707   0.727  0.00  0.00    +0.046 A 
ATOM      6  C   UNL     1       0.554  -2.005   1.394  0.00  0.00    -0.025 A 
ATOM      7  C   UNL     1       1.438  -2.672   2.220  0.00  0.00    +0.017 A 
ATOM      8  C   UNL     1       1.322  -4.072   2.384  0.00  0.00    +0.029 A 
ATOM      9  C   UNL     1       2.132  -4.967   3.196  0.00  0.00    +0.053 A 
ATOM     10  C   UNL     1       1.822  -6.309   3.196  0.00  0.00    +0.097 A 
ATOM     11  S   UNL     1       0.422  -6.410   2.099  0.00  0.00    -0.062 S 
ATOM     12  C   UNL     1       0.277  -4.695   1.664  0.00  0.00    +0.111 A 
ATOM     13  N   UNL     1      -0.537  -4.019   0.887  0.00  0.00    -0.244 NA
ATOM     14  C   UNL     1       0.711  -0.512   1.265  0.00  0.00    +0.040 C 
ENDROOT
BRANCH  10  15
ATOM     15  C   UNL     1       2.464  -7.358   3.901  0.00  0.00    +0.257 C 
ATOM     16  O   UNL     1       3.418  -7.116   4.617  0.00  0.00    -0.269 OA
ATOM     17  N   UNL     1       2.017  -8.624   3.779  0.00  0.00    -0.281 N 
ATOM     18  H   UNL     1       1.217  -8.808   3.262  0.00  0.00    +0.155 HD
BRANCH  17  19
ATOM     19  C   UNL     1       2.707  -9.672   4.396  0.00  0.00    +0.034 A 
ATOM     20  C   UNL     1       2.784 -10.914   3.779  0.00  0.00    +0.024 A 
ATOM     21  C   UNL     1       3.466 -11.947   4.391  0.00  0.00    +0.017 A 
ATOM     22  C   UNL     1       4.072 -11.745   5.618  0.00  0.00    +0.018 A 
ATOM     23  C   UNL     1       3.997 -10.510   6.236  0.00  0.00    +0.017 A 
ATOM     24  C   UNL     1       3.322  -9.471   5.625  0.00  0.00    +0.024 A 
ATOM     25 BR   UNL     1       5.006 -13.162   6.453  0.00  0.00    -0.050 Br
ENDBRANCH  17  19
ENDBRANCH  10  15
BRANCH   9  26
ATOM     26  N   UNL     1       3.191  -4.481   3.950  0.00  0.00    -0.356 N 
ATOM     27  H   UNL     1       3.399  -3.533   3.940  0.00  0.00    +0.142 HD
ATOM     28  H   UNL     1       3.724  -5.088   4.486  0.00  0.00    +0.142 HD
ENDBRANCH   9  26
TORSDOF 3
