REMARK  Name = ZINC09661208
REMARK  4 active torsions:
REMARK  status: ('A' for Active; 'I' for Inactive)
REMARK    1  A    between atoms: C_1  and  C_2
REMARK    2  A    between atoms: C_4  and  N_23
REMARK    3  A    between atoms: N_11  and  C_16
REMARK    4  A    between atoms: C_24  and  C_26
REMARK                            x       y       z     vdW  Elec       q    Type
REMARK                         _______ _______ _______ _____ _____    ______ ____
ROOT
ATOM      1  C   UNL     1       7.077   2.717  -0.051  0.00  0.00    +0.067 C 
ATOM      2  C   UNL     1       5.572   2.789  -0.036  0.00  0.00    +0.062 A 
ATOM      3  C   UNL     1       4.810   3.962  -0.023  0.00  0.00    +0.068 A 
ATOM      4  C   UNL     1       3.497   3.607  -0.012  0.00  0.00    +0.131 A 
ATOM      5  N   UNL     1       3.442   2.245  -0.019  0.00  0.00    -0.199 N 
ATOM      6  N   UNL     1       4.758   1.765  -0.029  0.00  0.00    -0.169 NA
ATOM      7  C   UNL     1       2.286   1.470  -0.012  0.00  0.00    +0.170 A 
ATOM      8  C   UNL     1       2.361   0.066  -0.020  0.00  0.00    +0.083 A 
ATOM      9  C   UNL     1       3.415  -0.873  -0.036  0.00  0.00    +0.148 A 
ATOM     10  N   UNL     1       2.903  -2.071  -0.037  0.00  0.00    -0.172 NA
ATOM     11  N   UNL     1       1.505  -1.988  -0.023  0.00  0.00    -0.214 N 
ATOM     12  C   UNL     1       1.156  -0.667  -0.013  0.00  0.00    +0.168 A 
ATOM     13  N   UNL     1       0.002  -0.004   0.002  0.00  0.00    -0.216 NA
ATOM     14  C   UNL     1      -0.016   1.311   0.009  0.00  0.00    +0.226 A 
ATOM     15  N   UNL     1       1.087   2.038   0.003  0.00  0.00    -0.216 NA
ENDROOT
BRANCH  11  16
ATOM     16  C   UNL     1       0.617  -3.072  -0.021  0.00  0.00    +0.068 A 
ATOM     17  C   UNL     1      -0.576  -2.992   0.685  0.00  0.00    +0.030 A 
ATOM     18  C   UNL     1      -1.452  -4.059   0.682  0.00  0.00    +0.040 A 
ATOM     19  C   UNL     1      -1.137  -5.213  -0.016  0.00  0.00    +0.124 A 
ATOM     20  C   UNL     1       0.055  -5.297  -0.716  0.00  0.00    +0.040 A 
ATOM     21  C   UNL     1       0.931  -4.229  -0.720  0.00  0.00    +0.030 A 
ATOM     22  F   UNL     1      -1.993  -6.258  -0.013  0.00  0.00    -0.205 F 
ENDBRANCH  11  16
BRANCH   4  23
ATOM     23  N   UNL     1       2.408   4.476   0.002  0.00  0.00    -0.266 N 
ATOM     24  C   UNL     1       2.609   5.808   0.007  0.00  0.00    +0.255 C 
ATOM     25  O   UNL     1       3.741   6.252  -0.001  0.00  0.00    -0.270 OA
ATOM     26  H   UNL     1       1.505   4.122   0.008  0.00  0.00    +0.157 HD
BRANCH  24  27
ATOM     27  C   UNL     1       1.456   6.728   0.022  0.00  0.00    +0.107 A 
ATOM     28  C   UNL     1       0.913   7.156   1.239  0.00  0.00    +0.138 A 
ATOM     29  C   UNL     1      -0.164   8.022   1.244  0.00  0.00    +0.039 A 
ATOM     30  C   UNL     1      -0.712   8.457   0.051  0.00  0.00    +0.006 A 
ATOM     31  C   UNL     1      -0.185   8.035  -1.156  0.00  0.00    +0.039 A 
ATOM     32  C   UNL     1       0.896   7.173  -1.180  0.00  0.00    +0.138 A 
ATOM     33  F   UNL     1       1.409   6.762  -2.360  0.00  0.00    -0.205 F 
ATOM     34  F   UNL     1       1.444   6.728   2.405  0.00  0.00    -0.205 F 
ENDBRANCH  24  27
ENDBRANCH   4  23
TORSDOF 3
