REMARK  Name = ZINC39881456
REMARK  5 active torsions:
REMARK  status: ('A' for Active; 'I' for Inactive)
REMARK    1  A    between atoms: C_1  and  C_2
REMARK    2  A    between atoms: N_12  and  C_15
REMARK    3  A    between atoms: C_18  and  C_21
REMARK    4  A    between atoms: N_23  and  C_24
REMARK    5  A    between atoms: C_24  and  C_25
REMARK                            x       y       z     vdW  Elec       q    Type
REMARK                         _______ _______ _______ _____ _____    ______ ____
ROOT
ATOM      1  C   UNL     1       0.090  -4.526   4.776  0.00  0.00    +0.035 A 
ATOM      2  C   UNL     1       0.171  -3.168   5.073  0.00  0.00    +0.024 A 
ATOM      3  C   UNL     1       0.172  -2.748   6.384  0.00  0.00    +0.015 A 
ATOM      4  C   UNL     1       0.091  -3.686   7.417  0.00  0.00    +0.037 A 
ATOM      5  C   UNL     1       0.009  -5.049   7.115  0.00  0.00    +0.015 A 
ATOM      6  C   UNL     1       0.003  -5.462   5.802  0.00  0.00    +0.024 A 
ENDROOT
BRANCH   1  18
ATOM      7  C   UNL     1       6.880  -3.102   1.470  0.00  0.00    +0.044 C 
ATOM      8  C   UNL     1       5.526  -3.690   1.171  0.00  0.00    -0.048 A 
ATOM      9  C   UNL     1       5.262  -4.190  -0.102  0.00  0.00    +0.004 A 
ATOM     10  C   UNL     1       4.047  -4.728  -0.403  0.00  0.00    +0.010 A 
ATOM     11  C   UNL     1       3.049  -4.779   0.582  0.00  0.00    -0.001 A 
ATOM     12  C   UNL     1       1.779  -5.327   0.313  0.00  0.00    +0.017 A 
ATOM     13  C   UNL     1       0.857  -5.345   1.315  0.00  0.00    -0.007 A 
ATOM     14  C   UNL     1       1.166  -4.831   2.580  0.00  0.00    +0.107 A 
ATOM     15  N   UNL     1       2.367  -4.318   2.818  0.00  0.00    -0.342 N 
ATOM     16  C   UNL     1       3.313  -4.271   1.877  0.00  0.00    +0.048 A 
ATOM     17  C   UNL     1       4.581  -3.728   2.150  0.00  0.00    +0.029 A 
ATOM     18  N   UNL     1       0.089  -4.947   3.449  0.00  0.00    -0.286 N 
ATOM     19  C   UNL     1      -1.047  -5.577   2.773  0.00  0.00    +0.117 C 
ATOM     20  C   UNL     1      -0.566  -5.856   1.340  0.00  0.00    +0.058 C 
ATOM     21  H   UNL     1       2.563  -3.966   3.700  0.00  0.00    +0.167 HD
ENDBRANCH   1  18
BRANCH   4  22
ATOM     22  C   UNL     1       0.092  -3.239   8.823  0.00  0.00    +0.244 C 
ATOM     23  O   UNL     1       0.164  -2.054   9.084  0.00  0.00    -0.270 OA
ATOM     24  N   UNL     1       0.013  -4.145   9.818  0.00  0.00    -0.307 N 
ATOM     25  H   UNL     1      -0.044  -5.091   9.610  0.00  0.00    +0.149 HD
BRANCH  24  26
ATOM     26  C   UNL     1       0.014  -3.701  11.214  0.00  0.00    +0.140 C 
BRANCH  26  27
ATOM     27  C   UNL     1      -0.082  -4.900  12.122  0.00  0.00    -0.027 A 
ATOM     28  C   UNL     1      -1.321  -5.375  12.510  0.00  0.00    +0.009 A 
ATOM     29  C   UNL     1      -1.414  -6.474  13.342  0.00  0.00    +0.050 A 
ATOM     30  C   UNL     1      -0.264  -7.104  13.791  0.00  0.00    +0.166 A 
ATOM     31  C   UNL     1       0.984  -6.625  13.401  0.00  0.00    +0.167 A 
ATOM     32  C   UNL     1       1.070  -5.527  12.562  0.00  0.00    +0.054 A 
ATOM     33  O   UNL     1       1.948  -7.407  13.969  0.00  0.00    -0.453 OA
ATOM     34  C   UNL     1       1.289  -8.115  15.036  0.00  0.00    +0.466 C 
ATOM     35  O   UNL     1      -0.083  -8.185  14.604  0.00  0.00    -0.453 OA
ENDBRANCH  26  27
ENDBRANCH  24  26
ENDBRANCH   4  22
TORSDOF 4
