REMARK  Name = ZINC65168196
REMARK  6 active torsions:
REMARK  status: ('A' for Active; 'I' for Inactive)
REMARK    1  A    between atoms: C_1  and  C_2
REMARK    2  A    between atoms: C_2  and  C_3
REMARK    3  A    between atoms: C_2  and  C_4
REMARK    4  A    between atoms: C_5  and  C_10
REMARK    5  A    between atoms: C_8  and  N_9
REMARK    6  A    between atoms: C_16  and  C_18
REMARK                            x       y       z     vdW  Elec       q    Type
REMARK                         _______ _______ _______ _____ _____    ______ ____
ROOT
ATOM      1  C   UNL     1      -2.110  -1.944  -2.162  0.00  0.00    +0.044 C 
ATOM      2  C   UNL     1      -2.534  -1.391  -3.524  0.00  0.00    +0.029 C 
ATOM      3  C   UNL     1      -1.548  -1.869  -4.595  0.00  0.00    +0.109 C 
ATOM      4  N   UNL     1      -1.464  -3.335  -4.539  0.00  0.00    -0.295 N 
ATOM      5  C   UNL     1      -1.152  -3.976  -3.254  0.00  0.00    +0.109 C 
ATOM      6  C   UNL     1      -2.142  -3.474  -2.199  0.00  0.00    +0.029 C 
ATOM      7  C   UNL     1      -1.670  -4.077  -5.645  0.00  0.00    +0.282 C 
ATOM      8  O   UNL     1      -2.057  -3.547  -6.670  0.00  0.00    -0.267 OA
ENDROOT
BRANCH   7   9
ATOM      9  C   UNL     1      -1.429  -5.522  -5.613  0.00  0.00    +0.191 A 
ATOM     10  C   UNL     1      -1.734  -6.409  -6.606  0.00  0.00    +0.056 A 
ATOM     11  C   UNL     1      -1.333  -7.675  -6.154  0.00  0.00    +0.058 A 
ATOM     12  C   UNL     1      -0.807  -7.509  -4.919  0.00  0.00    +0.171 A 
ATOM     13  O   UNL     1      -0.862  -6.209  -4.599  0.00  0.00    -0.444 OA
ATOM     14 BR   UNL     1      -0.103  -8.883  -3.827  0.00  0.00    -0.008 Br
ENDBRANCH   7   9
BRANCH   1  16
ATOM     15  C   UNL     1      -2.711  -0.673   0.013  0.00  0.00    +0.039 A 
ATOM     16  C   UNL     1      -3.058  -1.448  -1.101  0.00  0.00    +0.092 A 
ATOM     17  N   UNL     1      -4.345  -1.665  -1.062  0.00  0.00    -0.081 NA
ATOM     18  O   UNL     1      -4.864  -1.029   0.091  0.00  0.00    -0.339 OA
ATOM     19  C   UNL     1      -3.841  -0.436   0.730  0.00  0.00    +0.219 A 
BRANCH  15  21
ATOM     20  C   UNL     1      -1.314   1.337   0.410  0.00  0.00    +0.012 C 
ATOM     21  C   UNL     1      -1.325  -0.192   0.360  0.00  0.00    +0.020 C 
ATOM     22  C   UNL     1      -0.919  -0.750   1.726  0.00  0.00    +0.012 C 
ENDBRANCH  15  21
BRANCH  19  23
ATOM     23  N   UNL     1      -3.925   0.289   1.904  0.00  0.00    -0.327 N 
ATOM     24  H   UNL     1      -3.126   0.683   2.289  0.00  0.00    +0.145 HD
ATOM     25  H   UNL     1      -4.782   0.403   2.344  0.00  0.00    +0.145 HD
ENDBRANCH  19  23
ENDBRANCH   1  16
TORSDOF 4
