REMARK  Name = ZINC13234259
REMARK  9 active torsions:
REMARK  status: ('A' for Active; 'I' for Inactive)
REMARK    1  A    between atoms: C_1  and  C_2
REMARK    2  A    between atoms: C_2  and  C_3
REMARK    3  A    between atoms: C_2  and  C_4
REMARK    4  A    between atoms: C_4  and  C_6
REMARK    5  A    between atoms: C_4  and  N_9
REMARK    6  A    between atoms: C_19  and  S_20
REMARK    7  A    between atoms: S_20  and  C_21
REMARK    8  A    between atoms: C_21  and  C_22
REMARK    9  A    between atoms: C_30  and  C_34
REMARK                            x       y       z     vdW  Elec       q    Type
REMARK                         _______ _______ _______ _____ _____    ______ ____
ROOT
ATOM      1  N   UNL     1      -2.215  -0.081   1.032  0.00  0.00    -0.273 N 
ATOM      2  C   UNL     1      -2.548   1.230   1.013  0.00  0.00    +0.263 A 
ATOM      3  O   UNL     1      -2.175   1.964   0.116  0.00  0.00    -0.267 OA
ATOM      4  C   UNL     1      -3.377   1.736   2.115  0.00  0.00    +0.065 A 
ATOM      5  C   UNL     1      -3.775   3.070   2.187  0.00  0.00    +0.015 A 
ATOM      6  C   UNL     1      -4.547   3.488   3.235  0.00  0.00    +0.001 A 
ATOM      7  C   UNL     1      -4.939   2.598   4.227  0.00  0.00    +0.002 A 
ATOM      8  C   UNL     1      -4.564   1.285   4.182  0.00  0.00    +0.028 A 
ATOM      9  C   UNL     1      -3.774   0.827   3.123  0.00  0.00    +0.079 A 
ATOM     10  N   UNL     1      -3.382  -0.460   3.039  0.00  0.00    -0.223 NA
ATOM     11  C   UNL     1      -2.647  -0.890   2.044  0.00  0.00    +0.173 A 
ENDROOT
BRANCH   1  12
ATOM     12  C   UNL     1      -1.390  -0.638  -0.043  0.00  0.00    +0.208 C 
BRANCH  12  14
ATOM     13  C   UNL     1       0.605   0.213   1.198  0.00  0.00    +0.010 C 
ATOM     14  C   UNL     1      -0.095   0.169  -0.162  0.00  0.00    +0.017 C 
ATOM     15  C   UNL     1       0.826  -0.494  -1.188  0.00  0.00    +0.010 C 
ENDBRANCH  12  14
BRANCH  12  16
ATOM     16  C   UNL     1      -2.147  -0.568  -1.344  0.00  0.00    +0.379 C 
ATOM     17  O   UNL     1      -1.717  -1.142  -2.331  0.00  0.00    -0.244 OA
ATOM     18  O   UNL     1      -3.188   0.063  -1.411  0.00  0.00    -0.244 OA
ENDBRANCH  12  16
ENDBRANCH   1  12
BRANCH  11  19
ATOM     19  S   UNL     1      -2.187  -2.591   2.013  0.00  0.00    -0.080 S 
BRANCH  19  20
ATOM     20  C   UNL     1      -2.955  -3.280   3.506  0.00  0.00    +0.151 C 
BRANCH  20  21
ATOM     21  C   UNL     1      -2.636  -4.750   3.602  0.00  0.00    +0.121 A 
ATOM     22  N   UNL     1      -3.130  -5.449   4.657  0.00  0.00    -0.310 N 
ATOM     23  H   UNL     1      -3.673  -4.996   5.321  0.00  0.00    +0.170 HD
ATOM     24  C   UNL     1      -2.873  -6.771   4.789  0.00  0.00    +0.259 A 
ATOM     25  O   UNL     1      -3.310  -7.409   5.729  0.00  0.00    -0.267 OA
ATOM     26  C   UNL     1      -2.043  -7.407   3.751  0.00  0.00    +0.065 A 
ATOM     27  C   UNL     1      -1.722  -8.762   3.797  0.00  0.00    +0.016 A 
ATOM     28  C   UNL     1      -0.951  -9.312   2.813  0.00  0.00    +0.016 A 
ATOM     29  C   UNL     1      -0.477  -8.525   1.755  0.00  0.00    +0.065 A 
ATOM     30  C   UNL     1      -0.786  -7.171   1.692  0.00  0.00    +0.043 A 
ATOM     31  C   UNL     1      -1.575  -6.599   2.692  0.00  0.00    +0.079 A 
ATOM     32  N   UNL     1      -1.907  -5.284   2.670  0.00  0.00    -0.233 NA
BRANCH  29  33
ATOM     33  C   UNL     1       0.356  -9.138   0.700  0.00  0.00    +0.387 C 
ATOM     34  O   UNL     1       0.631 -10.329   0.752  0.00  0.00    -0.241 OA
ATOM     35  O   UNL     1       0.772  -8.455  -0.225  0.00  0.00    -0.241 OA
ENDBRANCH  29  33
ENDBRANCH  20  21
ENDBRANCH  19  20
ENDBRANCH  11  19
TORSDOF 7
