REMARK  Name = ZINC18011170
REMARK  4 active torsions:
REMARK  status: ('A' for Active; 'I' for Inactive)
REMARK    1  A    between atoms: C_3  and  S_18
REMARK    2  A    between atoms: C_6  and  N_7
REMARK    3  A    between atoms: N_7  and  N_8
REMARK    4  A    between atoms: S_18  and  N_21
REMARK                            x       y       z     vdW  Elec       q    Type
REMARK                         _______ _______ _______ _____ _____    ______ ____
ROOT
ATOM      1  N   UNL     1      -1.205  -0.741  -0.232  0.00  0.00    -0.237 N 
ATOM      2  H   UNL     1      -2.050  -0.301  -0.411  0.00  0.00    +0.174 HD
ENDROOT
BRANCH   1   3
ATOM      3  N   UNL     1      -1.176  -2.009   0.003  0.00  0.00    -0.172 NA
ATOM      4  C   UNL     1      -2.305  -2.688   0.110  0.00  0.00    +0.207 C 
ATOM      5  C   UNL     1      -3.611  -2.010   0.124  0.00  0.00    +0.294 C 
ATOM      6  O   UNL     1      -3.693  -0.666   0.027  0.00  0.00    -0.266 OA
ATOM      7  N   UNL     1      -4.702  -2.748   0.234  0.00  0.00    -0.152 NA
ATOM      8  C   UNL     1      -4.652  -4.074   0.332  0.00  0.00    +0.164 C 
ATOM      9  S   UNL     1      -6.128  -4.930   0.470  0.00  0.00    -0.016 S 
ATOM     10  N   UNL     1      -3.510  -4.777   0.327  0.00  0.00    -0.261 N 
ATOM     11  C   UNL     1      -2.313  -4.161   0.215  0.00  0.00    +0.275 C 
ATOM     12  O   UNL     1      -1.277  -4.798   0.206  0.00  0.00    -0.268 OA
ATOM     13  H   UNL     1      -3.545  -5.743   0.402  0.00  0.00    +0.157 HD
ENDBRANCH   1   3
BRANCH   1  19
ATOM     14  C   UNL     1      -0.051   1.363  -0.483  0.00  0.00    +0.026 A 
ATOM     15  C   UNL     1       1.123   2.089  -0.478  0.00  0.00    +0.030 A 
ATOM     16  C   UNL     1       2.328   1.459  -0.222  0.00  0.00    +0.105 A 
ATOM     17  C   UNL     1       2.361   0.100   0.030  0.00  0.00    +0.030 A 
ATOM     18  C   UNL     1       1.191  -0.634   0.027  0.00  0.00    +0.026 A 
ATOM     19  C   UNL     1      -0.021  -0.004  -0.229  0.00  0.00    +0.048 A 
BRANCH  16  20
ATOM     20  S   UNL     1       3.823   2.391  -0.218  0.00  0.00    +0.056 S 
ATOM     21  O   UNL     1       4.874   1.474  -0.491  0.00  0.00    -0.153 OA
ATOM     22  O   UNL     1       3.588   3.540  -1.020  0.00  0.00    -0.153 OA
BRANCH  20  23
ATOM     23  N   UNL     1       4.058   2.933   1.329  0.00  0.00    -0.204 NA
ATOM     24  H   UNL     1       4.958   3.072   1.662  0.00  0.00    +0.144 HD
ATOM     25  H   UNL     1       3.296   3.111   1.901  0.00  0.00    +0.144 HD
ENDBRANCH  20  23
ENDBRANCH  16  20
ENDBRANCH   1  19
TORSDOF 4
