REMARK  Name = ZINC33418091
REMARK  4 active torsions:
REMARK  status: ('A' for Active; 'I' for Inactive)
REMARK    1  A    between atoms: C_1  and  C_2
REMARK    2  A    between atoms: C_2  and  C_3
REMARK    3  A    between atoms: C_4  and  C_18
REMARK    4  A    between atoms: C_6  and  C_11
REMARK                            x       y       z     vdW  Elec       q    Type
REMARK                         _______ _______ _______ _____ _____    ______ ____
ROOT
ATOM      1  C   UNL     1       3.641   0.902  -0.706  0.00  0.00    +0.075 A 
ATOM      2  C   UNL     1       2.303   0.583  -0.596  0.00  0.00    +0.159 A 
ATOM      3  N   UNL     1       2.232  -0.795  -0.324  0.00  0.00    -0.280 N 
ATOM      4  C   UNL     1       1.256  -1.749  -0.113  0.00  0.00    +0.063 A 
ATOM      5  C   UNL     1       1.600  -3.032   0.119  0.00  0.00    +0.075 A 
ATOM      6  S   UNL     1       3.382  -2.951   0.039  0.00  0.00    -0.057 S 
ATOM      7  C   UNL     1       3.526  -1.211  -0.298  0.00  0.00    +0.179 A 
ATOM      8  N   UNL     1       4.342  -0.210  -0.519  0.00  0.00    -0.225 NA
ENDROOT
BRANCH   4   9
ATOM      9  C   UNL     1      -0.171  -1.360  -0.136  0.00  0.00    -0.001 A 
ATOM     10  C   UNL     1      -0.574  -0.142   0.412  0.00  0.00    +0.011 A 
ATOM     11  C   UNL     1      -1.906   0.217   0.384  0.00  0.00    +0.020 A 
ATOM     12  C   UNL     1      -2.843  -0.634  -0.178  0.00  0.00    +0.041 A 
ATOM     13  C   UNL     1      -2.450  -1.846  -0.719  0.00  0.00    +0.020 A 
ATOM     14  C   UNL     1      -1.120  -2.213  -0.701  0.00  0.00    +0.011 A 
ATOM     15 CL   UNL     1      -4.518  -0.178  -0.203  0.00  0.00    -0.084 Cl
ENDBRANCH   4   9
BRANCH   2  16
ATOM     16  C   UNL     1       1.211   1.473  -0.727  0.00  0.00    +0.405 C 
ATOM     17  O   UNL     1       0.945   2.246   0.175  0.00  0.00    -0.239 OA
ATOM     18  O   UNL     1       0.464   1.464  -1.851  0.00  0.00    -0.239 OA
ENDBRANCH   2  16
BRANCH   1  20
ATOM     19  C   UNL     1       4.449   3.003   0.333  0.00  0.00    +0.010 C 
ATOM     20  C   UNL     1       4.206   2.270  -0.988  0.00  0.00    +0.054 C 
ENDBRANCH   1  20
TORSDOF 3
