REMARK  Name = ZINC66230010
REMARK  4 active torsions:
REMARK  status: ('A' for Active; 'I' for Inactive)
REMARK    1  A    between atoms: C_1  and  C_2
REMARK    2  A    between atoms: C_6  and  C_8
REMARK    3  A    between atoms: N_10  and  S_11
REMARK    4  A    between atoms: S_11  and  C_14
REMARK                            x       y       z     vdW  Elec       q    Type
REMARK                         _______ _______ _______ _____ _____    ______ ____
ROOT
ATOM      1  C   UNL     1       0.053  -2.843   2.460  0.00  0.00    +0.298 C 
ATOM      2  O   UNL     1       0.050  -2.177   3.637  0.00  0.00    -0.264 OA
ATOM      3  N   UNL     1       0.071  -4.144   2.449  0.00  0.00    -0.086 NA
ENDROOT
BRANCH   1   9
ATOM      4  C   UNL     1      -0.018   1.503   0.010  0.00  0.00    +0.044 C 
ATOM      5  C   UNL     1       0.002  -0.004   0.002  0.00  0.00    -0.050 A 
ATOM      6  C   UNL     1       0.006  -0.687  -1.202  0.00  0.00    +0.006 A 
ATOM      7  C   UNL     1       0.025  -2.069  -1.220  0.00  0.00    +0.039 A 
ATOM      8  C   UNL     1       0.041  -2.778  -0.032  0.00  0.00    +0.136 A 
ATOM      9  C   UNL     1       0.037  -2.093   1.186  0.00  0.00    +0.078 A 
ATOM     10  C   UNL     1       0.023  -0.698   1.194  0.00  0.00    +0.019 A 
ATOM     11  F   UNL     1       0.059  -4.129  -0.050  0.00  0.00    -0.205 F 
ENDBRANCH   1   9
BRANCH   3  12
ATOM     12  S   UNL     1       0.090  -4.983   3.876  0.00  0.00    +0.103 S 
ATOM     13  O   UNL     1       1.335  -4.697   4.500  0.00  0.00    -0.146 OA
ATOM     14  O   UNL     1      -1.156  -4.732   4.512  0.00  0.00    -0.146 OA
BRANCH  12  15
ATOM     15  C   UNL     1       0.112  -6.698   3.471  0.00  0.00    +0.131 A 
ATOM     16  C   UNL     1       1.207  -7.473   3.805  0.00  0.00    +0.030 A 
ATOM     17  C   UNL     1       1.224  -8.818   3.487  0.00  0.00    +0.002 A 
ATOM     18  C   UNL     1       0.147  -9.389   2.836  0.00  0.00    +0.002 A 
ATOM     19  C   UNL     1      -0.949  -8.616   2.502  0.00  0.00    +0.022 A 
ATOM     20  C   UNL     1      -0.969  -7.270   2.825  0.00  0.00    +0.068 A 
ATOM     21 CL   UNL     1      -2.347  -6.299   2.412  0.00  0.00    -0.082 Cl
ENDBRANCH  12  15
ENDBRANCH   3  12
TORSDOF 3
