REMARK  Name = ZINC15533694
REMARK  9 active torsions:
REMARK  status: ('A' for Active; 'I' for Inactive)
REMARK    1  A    between atoms: C_1  and  C_2
REMARK    2  A    between atoms: C_6  and  N_9
REMARK    3  A    between atoms: C_7  and  C_8
REMARK    4  A    between atoms: C_10  and  C_12
REMARK    5  A    between atoms: C_12  and  N_13
REMARK    6  A    between atoms: C_14  and  C_16
REMARK    7  A    between atoms: C_21  and  S_22
REMARK    8  A    between atoms: S_22  and  C_23
REMARK    9  A    between atoms: C_23  and  C_24
REMARK                            x       y       z     vdW  Elec       q    Type
REMARK                         _______ _______ _______ _____ _____    ______ ____
ROOT
ATOM      1  N   UNL     1      -1.403   6.124  -0.266  0.00  0.00    -0.303 N 
ATOM      2  C   UNL     1      -1.659   7.444  -0.367  0.00  0.00    +0.246 C 
ATOM      3  O   UNL     1      -0.740   8.241  -0.391  0.00  0.00    -0.270 OA
ATOM      4  H   UNL     1      -2.136   5.489  -0.247  0.00  0.00    +0.150 HD
ENDROOT
BRANCH   2   5
ATOM      5  C   UNL     1      -3.051   7.921  -0.450  0.00  0.00    +0.050 A 
ATOM      6  C   UNL     1      -4.109   7.009  -0.428  0.00  0.00    +0.014 A 
ATOM      7  C   UNL     1      -5.408   7.462  -0.500  0.00  0.00    +0.001 A 
ATOM      8  C   UNL     1      -5.673   8.819  -0.604  0.00  0.00    +0.001 A 
ATOM      9  C   UNL     1      -4.639   9.732  -0.632  0.00  0.00    +0.015 A 
ATOM     10  C   UNL     1      -3.322   9.295  -0.556  0.00  0.00    +0.020 A 
BRANCH  10  11
ATOM     11  S   UNL     1      -1.999  10.458  -0.592  0.00  0.00    -0.119 S 
BRANCH  11  12
ATOM     12  C   UNL     1      -2.831  12.064  -0.733  0.00  0.00    +0.116 C 
BRANCH  12  13
ATOM     13  C   UNL     1      -1.800  13.162  -0.775  0.00  0.00    -0.000 A 
ATOM     14  C   UNL     1      -1.179  13.711  -1.848  0.00  0.00    +0.012 A 
ATOM     15  C   UNL     1      -0.257  14.720  -1.645  0.00  0.00    +0.008 A 
ATOM     16  C   UNL     1       0.000  15.132  -0.380  0.00  0.00    +0.045 A 
ATOM     17  S   UNL     1      -1.084  14.084   0.576  0.00  0.00    -0.101 S 
ENDBRANCH  12  13
ENDBRANCH  11  12
ENDBRANCH  10  11
ENDBRANCH   2   5
BRANCH   1  18
ATOM     18  C   UNL     1      -0.020   5.650  -0.184  0.00  0.00    +0.200 C 
BRANCH  18  20
ATOM     19  N   UNL     1       1.162   3.485   0.009  0.00  0.00    -0.284 N 
ATOM     20  C   UNL     1      -0.009   4.147  -0.078  0.00  0.00    +0.234 C 
ATOM     21  O   UNL     1      -1.055   3.532  -0.072  0.00  0.00    -0.274 OA
ATOM     22  H   UNL     1       1.993   3.979   0.085  0.00  0.00    +0.155 HD
BRANCH  19  28
ATOM     23  C   UNL     1       3.389  -0.737   1.187  0.00  0.00    +0.044 C 
ATOM     24  C   UNL     1       2.245   0.014   0.554  0.00  0.00    -0.046 A 
ATOM     25  C   UNL     1       1.211  -0.680  -0.045  0.00  0.00    +0.004 A 
ATOM     26  C   UNL     1       0.160   0.005  -0.627  0.00  0.00    +0.002 A 
ATOM     27  C   UNL     1       0.141   1.386  -0.611  0.00  0.00    +0.023 A 
ATOM     28  C   UNL     1       1.178   2.086  -0.009  0.00  0.00    +0.037 A 
ATOM     29  C   UNL     1       2.232   1.395   0.575  0.00  0.00    -0.026 A 
ATOM     30  C   UNL     1       3.359   2.151   1.229  0.00  0.00    +0.046 C 
ENDBRANCH  19  28
ENDBRANCH  18  20
ENDBRANCH   1  18
TORSDOF 7
