REMARK  Name = ZINC09158449
REMARK  3 active torsions:
REMARK  status: ('A' for Active; 'I' for Inactive)
REMARK    1  A    between atoms: C_15  and  C_17
REMARK    2  A    between atoms: C_17  and  C_19
REMARK    3  A    between atoms: N_26  and  C_29
REMARK                            x       y       z     vdW  Elec       q    Type
REMARK                         _______ _______ _______ _____ _____    ______ ____
ROOT
ATOM      1  C   UNL     1      -1.753   7.731  -0.328  0.00  0.00    +0.001 A 
ATOM      2  C   UNL     1      -1.739   6.910   0.786  0.00  0.00    +0.000 A 
ATOM      3  C   UNL     1      -0.797   5.901   0.897  0.00  0.00    +0.006 A 
ATOM      4  C   UNL     1       0.129   5.713  -0.102  0.00  0.00    -0.021 A 
ATOM      5  C   UNL     1       0.126   6.541  -1.232  0.00  0.00    -0.019 A 
ATOM      6  C   UNL     1      -0.829   7.554  -1.336  0.00  0.00    +0.008 A 
ATOM      7  C   UNL     1       1.124   6.345  -2.303  0.00  0.00    +0.022 C 
ATOM      8  C   UNL     1       1.799   5.181  -2.374  0.00  0.00    +0.054 C 
ATOM      9  C   UNL     1       1.163   4.620  -0.013  0.00  0.00    +0.100 C 
ATOM     10  C   UNL     1       0.612   3.378   0.683  0.00  0.00    +0.113 C 
ATOM     11  C   UNL     1       1.196   2.189  -0.140  0.00  0.00    +0.116 C 
ATOM     12  C   UNL     1       1.421   2.791  -1.541  0.00  0.00    +0.144 C 
ATOM     13  C   UNL     1      -0.005   1.258  -0.216  0.00  0.00    +0.232 C 
ATOM     14  O   UNL     1       0.032   0.070  -0.452  0.00  0.00    -0.274 OA
ATOM     15  N   UNL     1      -1.113   1.979   0.017  0.00  0.00    -0.210 N 
ATOM     16  C   UNL     1      -0.874   3.235   0.430  0.00  0.00    +0.232 C 
ATOM     17  O   UNL     1      -1.706   4.105   0.571  0.00  0.00    -0.274 OA
ATOM     18  N   UNL     1       1.818   4.197  -1.227  0.00  0.00    -0.384 NA
ATOM     19  H   UNL     1       2.812   4.138  -0.976  0.00  0.00    +0.127 HD
ENDROOT
BRANCH  15  20
ATOM     20  C   UNL     1      -2.407   1.464  -0.152  0.00  0.00    +0.045 A 
ATOM     21  C   UNL     1      -2.863   0.446   0.675  0.00  0.00    +0.027 A 
ATOM     22  C   UNL     1      -4.139  -0.056   0.512  0.00  0.00    +0.041 A 
ATOM     23  C   UNL     1      -4.960   0.447  -0.484  0.00  0.00    +0.142 A 
ATOM     24  C   UNL     1      -4.504   1.458  -1.315  0.00  0.00    +0.078 A 
ATOM     25  C   UNL     1      -3.230   1.967  -1.150  0.00  0.00    +0.046 A 
ATOM     26 CL   UNL     1      -5.535   2.087  -2.562  0.00  0.00    -0.081 Cl
ATOM     27  F   UNL     1      -6.206  -0.050  -0.646  0.00  0.00    -0.204 F 
ENDBRANCH  15  20
BRANCH  12  28
ATOM     28  C   UNL     1       0.265   2.438  -2.441  0.00  0.00    +0.217 C 
ATOM     29  O   UNL     1      -0.565   3.279  -2.721  0.00  0.00    -0.287 OA
BRANCH  28  30
ATOM     30  C   UNL     1       0.147   1.129  -2.958  0.00  0.00    +0.172 A 
ATOM     31  C   UNL     1      -0.859   0.668  -3.785  0.00  0.00    +0.053 A 
ATOM     32  C   UNL     1      -0.573  -0.679  -4.048  0.00  0.00    +0.042 A 
ATOM     33  C   UNL     1       0.564  -0.984  -3.381  0.00  0.00    +0.196 A 
ATOM     34  O   UNL     1       0.994   0.102  -2.728  0.00  0.00    -0.460 OA
ENDBRANCH  28  30
ENDBRANCH  12  28
TORSDOF 3
