REMARK  Name = ZINC22311232
REMARK  7 active torsions:
REMARK  status: ('A' for Active; 'I' for Inactive)
REMARK    1  A    between atoms: C_1  and  C_2
REMARK    2  A    between atoms: C_5  and  C_7
REMARK    3  A    between atoms: C_9  and  C_17
REMARK    4  A    between atoms: C_11  and  C_16
REMARK    5  A    between atoms: C_21  and  C_30
REMARK    6  A    between atoms: N_32  and  C_33
REMARK    7  A    between atoms: N_32  and  C_34
REMARK                            x       y       z     vdW  Elec       q    Type
REMARK                         _______ _______ _______ _____ _____    ______ ____
ROOT
ATOM      1  C   UNL     1       7.240   1.282   0.106  0.00  0.00    +0.252 C 
ATOM      2  O   UNL     1       6.301   0.513   0.186  0.00  0.00    -0.270 OA
ATOM      3  N   UNL     1       7.024   2.612   0.115  0.00  0.00    -0.260 N 
ATOM      4  C   UNL     1       8.147   3.565   0.156  0.00  0.00    +0.168 C 
ATOM      5  C   UNL     1       7.774   4.684   1.133  0.00  0.00    +0.276 C 
ATOM      6  O   UNL     1       6.558   5.296   0.696  0.00  0.00    -0.476 OA
ATOM      7  C   UNL     1       5.514   4.482   0.391  0.00  0.00    +0.143 A 
ATOM      8  C   UNL     1       5.722   3.137   0.092  0.00  0.00    +0.079 A 
ATOM      9  C   UNL     1       4.649   2.321  -0.227  0.00  0.00    +0.027 A 
ATOM     10  C   UNL     1       3.369   2.842  -0.246  0.00  0.00    +0.002 A 
ATOM     11  C   UNL     1       3.159   4.175   0.054  0.00  0.00    +0.004 A 
ATOM     12  C   UNL     1       4.226   4.995   0.371  0.00  0.00    +0.047 A 
ENDROOT
BRANCH   1  15
ATOM     13  C   UNL     1      10.747   0.609  -1.114  0.00  0.00    +0.082 A 
ATOM     14  C   UNL     1       9.450   1.135  -1.049  0.00  0.00    +0.043 A 
ATOM     15  C   UNL     1       8.619   0.756  -0.001  0.00  0.00    +0.053 A 
ATOM     16  C   UNL     1       9.133  -0.141   0.960  0.00  0.00    +0.076 A 
ATOM     17  C   UNL     1       8.585  -0.751   2.170  0.00  0.00    +0.091 A 
ATOM     18  N   UNL     1       9.512  -1.508   2.675  0.00  0.00    -0.080 NA
ATOM     19  O   UNL     1      10.670  -1.447   1.869  0.00  0.00    -0.334 OA
ATOM     20  C   UNL     1      10.447  -0.620   0.827  0.00  0.00    +0.260 A 
ATOM     21  N   UNL     1      11.197  -0.233  -0.193  0.00  0.00    -0.209 NA
ATOM     22  C   UNL     1       7.202  -0.539   2.729  0.00  0.00    +0.070 C 
BRANCH  13  27
ATOM     23  C   UNL     1      13.334   2.601  -5.705  0.00  0.00    +0.051 C 
ATOM     24  C   UNL     1      12.873   1.954  -4.424  0.00  0.00    -0.013 A 
ATOM     25  C   UNL     1      13.578   1.182  -3.555  0.00  0.00    +0.011 A 
ATOM     26  C   UNL     1      12.952   0.694  -2.432  0.00  0.00    +0.018 A 
ATOM     27  C   UNL     1      11.632   1.004  -2.226  0.00  0.00    +0.038 A 
ATOM     28  S   UNL     1      11.263   2.010  -3.654  0.00  0.00    -0.092 S 
ENDBRANCH  13  27
ENDBRANCH   1  15
BRANCH   5  29
ATOM     29  C   UNL     1       8.874   5.714   1.167  0.00  0.00    +0.257 C 
ATOM     30  O   UNL     1       8.665   6.838   0.762  0.00  0.00    -0.271 OA
ATOM     31  N   UNL     1      10.090   5.386   1.647  0.00  0.00    -0.305 N 
ATOM     32  C   UNL     1      11.159   6.387   1.679  0.00  0.00    +0.131 C 
ATOM     33  C   UNL     1      10.342   4.028   2.136  0.00  0.00    +0.131 C 
ENDBRANCH   5  29
TORSDOF 3
