REMARK  Name = ZINC13474028
REMARK  7 active torsions:
REMARK  status: ('A' for Active; 'I' for Inactive)
REMARK    1  A    between atoms: C_1  and  C_2
REMARK    2  A    between atoms: C_4  and  O_20
REMARK    3  A    between atoms: C_6  and  O_9
REMARK    4  A    between atoms: O_9  and  C_10
REMARK    5  A    between atoms: C_14  and  C_16
REMARK    6  A    between atoms: O_20  and  C_21
REMARK    7  A    between atoms: C_25  and  C_27
REMARK                            x       y       z     vdW  Elec       q    Type
REMARK                         _______ _______ _______ _____ _____    ______ ____
ROOT
ATOM      1  C   UNL     1       5.634  -2.014   1.682  0.00  0.00    +0.050 C 
ATOM      2  C   UNL     1       4.283  -2.535   1.266  0.00  0.00    +0.030 A 
ATOM      3  C   UNL     1       3.663  -2.062   0.119  0.00  0.00    +0.191 A 
ATOM      4  C   UNL     1       2.417  -2.565  -0.235  0.00  0.00    +0.260 A 
ATOM      5  N   UNL     1       1.823  -3.484   0.509  0.00  0.00    -0.172 NA
ATOM      6  C   UNL     1       2.386  -3.957   1.609  0.00  0.00    +0.260 A 
ATOM      7  C   UNL     1       3.631  -3.499   2.022  0.00  0.00    +0.191 A 
ATOM      8  F   UNL     1       4.200  -3.986   3.146  0.00  0.00    -0.200 F 
ATOM      9  F   UNL     1       4.263  -1.124  -0.645  0.00  0.00    -0.200 F 
ENDROOT
BRANCH   6  10
ATOM     10  O   UNL     1       1.738  -4.895   2.345  0.00  0.00    -0.436 OA
BRANCH  10  11
ATOM     11  C   UNL     1       0.636  -5.480   1.806  0.00  0.00    +0.131 A 
ATOM     12  C   UNL     1       0.461  -5.495   0.429  0.00  0.00    +0.046 A 
ATOM     13  C   UNL     1      -0.660  -6.090  -0.116  0.00  0.00    +0.004 A 
ATOM     14  C   UNL     1      -1.607  -6.670   0.709  0.00  0.00    +0.012 A 
ATOM     15  C   UNL     1      -1.435  -6.656   2.080  0.00  0.00    +0.058 A 
ATOM     16  C   UNL     1      -0.313  -6.067   2.631  0.00  0.00    +0.058 A 
BRANCH  15  17
ATOM     17  C   UNL     1      -2.469  -7.289   2.975  0.00  0.00    +0.418 C 
ATOM     18  F   UNL     1      -3.500  -7.820   2.194  0.00  0.00    -0.166 F 
ATOM     19  F   UNL     1      -1.875  -8.312   3.722  0.00  0.00    -0.166 F 
ATOM     20  F   UNL     1      -2.990  -6.322   3.842  0.00  0.00    -0.166 F 
ENDBRANCH  15  17
ENDBRANCH  10  11
ENDBRANCH   6  10
BRANCH   4  21
ATOM     21  O   UNL     1       1.802  -2.108  -1.356  0.00  0.00    -0.436 OA
BRANCH  21  22
ATOM     22  C   UNL     1       0.544  -2.550  -1.619  0.00  0.00    +0.131 A 
ATOM     23  C   UNL     1      -0.552  -1.780  -1.254  0.00  0.00    +0.046 A 
ATOM     24  C   UNL     1      -1.834  -2.226  -1.519  0.00  0.00    +0.004 A 
ATOM     25  C   UNL     1      -2.031  -3.438  -2.149  0.00  0.00    +0.011 A 
ATOM     26  C   UNL     1      -0.935  -4.218  -2.519  0.00  0.00    +0.016 A 
ATOM     27  C   UNL     1       0.357  -3.766  -2.256  0.00  0.00    +0.057 A 
BRANCH  26  28
ATOM     28  C   UNL     1      -1.144  -5.519  -3.195  0.00  0.00    +0.094 C 
ATOM     29  N   UNL     1      -2.422  -5.961  -3.459  0.00  0.00    -0.345 N 
ATOM     30  H   UNL     1      -0.154  -7.111  -3.987  0.00  0.00    +0.157 HD
ATOM     31  H   UNL     1      -3.185  -5.420  -3.202  0.00  0.00    +0.144 HD
ATOM     32  H   UNL     1      -2.559  -6.813  -3.901  0.00  0.00    +0.144 HD
ATOM     33  N   UNL     1      -0.062  -6.209  -3.520  0.00  0.00    -0.387 N 
ATOM     34  H   UNL     1       0.869  -5.836  -3.302  0.00  0.00    +0.157 HD
ENDBRANCH  26  28
ENDBRANCH  21  22
ENDBRANCH   4  21
TORSDOF 6
