REMARK  Name = ZINC09975256
REMARK  8 active torsions:
REMARK  status: ('A' for Active; 'I' for Inactive)
REMARK    1  A    between atoms: C_1  and  C_2
REMARK    2  A    between atoms: C_5  and  C_7
REMARK    3  A    between atoms: N_8  and  N_9
REMARK    4  A    between atoms: N_18  and  C1*_19
REMARK    5  A    between atoms: C2*_21  and  O2*_31
REMARK    6  A    between atoms: C3*_23  and  O3*_30
REMARK    7  A    between atoms: C4*_25  and  C5*_28
REMARK    8  A    between atoms: C5*_28  and  O5*_29
REMARK                            x       y       z     vdW  Elec       q    Type
REMARK                         _______ _______ _______ _____ _____    ______ ____
ROOT
ATOM      1  N   UNL     1       2.982   1.325  -1.434  0.00  0.00    -0.206 N 
ATOM      2  C   UNL     1       4.174   1.575  -0.786  0.00  0.00    +0.220 A 
ATOM      3  N   UNL     1       5.365   1.340  -1.280  0.00  0.00    -0.208 NA
ATOM      4  C   UNL     1       6.307   1.698  -0.374  0.00  0.00    +0.149 A 
ATOM      5  C   UNL     1       7.712   1.671  -0.350  0.00  0.00    +0.147 A 
ATOM      6  N   UNL     1       8.336   2.114   0.737  0.00  0.00    -0.219 NA
ATOM      7  C   UNL     1       7.660   2.571   1.775  0.00  0.00    +0.225 A 
ATOM      8  N   UNL     1       6.344   2.615   1.796  0.00  0.00    -0.216 NA
ATOM      9  C   UNL     1       5.634   2.193   0.755  0.00  0.00    +0.169 A 
ATOM     10  N   UNL     1       4.292   2.109   0.469  0.00  0.00    -0.266 N 
ATOM     11  N   UNL     1       8.430   1.193  -1.434  0.00  0.00    -0.341 N 
ATOM     12  H   UNL     1       2.144   1.608  -1.035  0.00  0.00    +0.177 HD
ATOM     13  H   UNL     1       9.025   1.916  -1.784  0.00  0.00    +0.144 HD
ATOM     14  H   UNL     1       7.963   0.872  -2.222  0.00  0.00    +0.144 HD
ENDROOT
BRANCH  10  15
ATOM     15  C1* UNL     1       3.190   2.510   1.348  0.00  0.00    +0.255 C 
ATOM     16  C2* UNL     1       2.490   1.265   1.935  0.00  0.00    +0.195 C 
ATOM     17  C3* UNL     1       3.175   1.059   3.304  0.00  0.00    +0.178 C 
ATOM     18  C4* UNL     1       4.209   2.204   3.382  0.00  0.00    +0.177 C 
ATOM     19  O4* UNL     1       3.698   3.224   2.496  0.00  0.00    -0.346 OA
BRANCH  17  20
ATOM     20  O3* UNL     1       2.223   1.171   4.363  0.00  0.00    -0.386 OA
ATOM     21  H3* UNL     1       2.609   1.110   5.248  0.00  0.00    +0.210 HD
ENDBRANCH  17  20
BRANCH  16  22
ATOM     22  O2* UNL     1       2.697   0.129   1.092  0.00  0.00    -0.385 OA
ATOM     23  H2* UNL     1       2.279  -0.681   1.414  0.00  0.00    +0.210 HD
ENDBRANCH  16  22
BRANCH  18  24
ATOM     24  C5* UNL     1       4.303   2.740   4.812  0.00  0.00    +0.190 C 
BRANCH  24  25
ATOM     25  O5* UNL     1       5.294   3.768   4.871  0.00  0.00    -0.392 OA
ATOM     26  H5* UNL     1       5.408   4.154   5.750  0.00  0.00    +0.210 HD
ENDBRANCH  24  25
ENDBRANCH  18  24
ENDBRANCH  10  15
BRANCH   1  28
ATOM     27  C   UNL     1       1.857   0.428  -3.280  0.00  0.00    +0.176 C 
ATOM     28  N   UNL     1       2.981   0.664  -2.669  0.00  0.00    -0.184 NA
BRANCH  27  33
ATOM     29  C   UNL     1       3.481  -1.911  -7.402  0.00  0.00    +0.086 C 
ATOM     30  C   UNL     1       2.560  -1.290  -6.382  0.00  0.00    +0.103 A 
ATOM     31  C   UNL     1       1.216  -1.228  -6.472  0.00  0.00    +0.045 A 
ATOM     32  C   UNL     1       0.754  -0.572  -5.316  0.00  0.00    +0.051 A 
ATOM     33  C   UNL     1       1.856  -0.264  -4.573  0.00  0.00    +0.148 A 
ATOM     34  O   UNL     1       2.944  -0.702  -5.237  0.00  0.00    -0.459 OA
ENDBRANCH  27  33
ENDBRANCH   1  28
TORSDOF 7
