REMARK  Name = ZINC35397194
REMARK  6 active torsions:
REMARK  status: ('A' for Active; 'I' for Inactive)
REMARK    1  A    between atoms: C_1  and  N_2
REMARK    2  A    between atoms: C_9  and  C_24
REMARK    3  A    between atoms: C_10  and  S_12
REMARK    4  A    between atoms: S_12  and  C_13
REMARK    5  A    between atoms: C_13  and  C_14
REMARK    6  A    between atoms: N_16  and  C_17
REMARK                            x       y       z     vdW  Elec       q    Type
REMARK                         _______ _______ _______ _____ _____    ______ ____
ROOT
ATOM      1  C   UNL     1      -0.090   1.547  -0.099  0.00  0.00    -0.096 C 
ATOM      2  N   UNL     1      -0.066   0.078  -0.083  0.00  0.00    +0.378 N 
ATOM      3  C   UNL     1      -1.443  -0.432  -0.088  0.00  0.00    -0.075 C 
ATOM      4  C   UNL     1      -1.424  -1.961  -0.161  0.00  0.00    +0.035 C 
ATOM      5  C   UNL     1      -0.668  -2.513   1.048  0.00  0.00    +0.150 C 
ATOM      6  C   UNL     1       0.738  -1.913   1.097  0.00  0.00    +0.035 C 
ATOM      7  C   UNL     1       0.634  -0.386   1.120  0.00  0.00    -0.075 C 
ATOM      8  N   UNL     1      -1.393  -2.199   2.282  0.00  0.00    -0.251 NA
ATOM      9  C   UNL     1      -1.697  -3.328   2.848  0.00  0.00    +0.100 C 
ATOM     10  C   UNL     1      -1.191  -4.449   2.021  0.00  0.00    +0.120 C 
ATOM     11  N   UNL     1      -0.590  -3.974   0.969  0.00  0.00    -0.246 NA
ATOM     12  H   UNL     1       0.417  -0.258  -0.903  0.00  0.00    -0.082 HD
ENDROOT
BRANCH   9  13
ATOM     13  C   UNL     1      -2.435  -3.473   4.123  0.00  0.00    +0.003 A 
ATOM     14  C   UNL     1      -2.266  -4.617   4.905  0.00  0.00    +0.011 A 
ATOM     15  C   UNL     1      -2.956  -4.746   6.092  0.00  0.00    +0.016 A 
ATOM     16  C   UNL     1      -3.815  -3.744   6.509  0.00  0.00    +0.018 A 
ATOM     17  C   UNL     1      -3.987  -2.607   5.738  0.00  0.00    +0.016 A 
ATOM     18  C   UNL     1      -3.299  -2.464   4.552  0.00  0.00    +0.011 A 
ATOM     19 BR   UNL     1      -4.757  -3.929   8.138  0.00  0.00    -0.050 Br
ENDBRANCH   9  13
BRANCH  10  20
ATOM     20  S   UNL     1      -1.375  -6.159   2.402  0.00  0.00    -0.095 S 
BRANCH  20  21
ATOM     21  C   UNL     1      -0.555  -7.007   1.024  0.00  0.00    +0.172 C 
BRANCH  21  22
ATOM     22  C   UNL     1      -0.641  -8.498   1.229  0.00  0.00    +0.228 C 
ATOM     23  O   UNL     1      -1.200  -8.944   2.208  0.00  0.00    -0.275 OA
ATOM     24  N   UNL     1      -0.096  -9.335   0.324  0.00  0.00    -0.283 N 
ATOM     25  H   UNL     1       0.422  -8.979  -0.415  0.00  0.00    +0.155 HD
BRANCH  24  26
ATOM     26  C   UNL     1      -0.278 -10.717   0.451  0.00  0.00    +0.069 A 
ATOM     27  C   UNL     1      -1.465 -11.219   0.966  0.00  0.00    +0.026 A 
ATOM     28  C   UNL     1      -1.641 -12.583   1.089  0.00  0.00    +0.002 A 
ATOM     29  C   UNL     1      -0.637 -13.451   0.701  0.00  0.00    +0.003 A 
ATOM     30  C   UNL     1       0.547 -12.956   0.187  0.00  0.00    +0.040 A 
ATOM     31  C   UNL     1       0.729 -11.591   0.055  0.00  0.00    +0.144 A 
ATOM     32  F   UNL     1       1.884 -11.108  -0.453  0.00  0.00    -0.204 F 
ENDBRANCH  24  26
ENDBRANCH  21  22
ENDBRANCH  20  21
ENDBRANCH  10  20
TORSDOF 5
