REMARK  Name = ZINC09332141
REMARK  1 active torsions:
REMARK  status: ('A' for Active; 'I' for Inactive)
REMARK    1  A    between atoms: N_20  and  C_23
REMARK                            x       y       z     vdW  Elec       q    Type
REMARK                         _______ _______ _______ _____ _____    ______ ____
ROOT
ATOM      1  C   UNL     1      -5.101   5.315  -3.324  0.00  0.00    +0.022 A 
ATOM      2  C   UNL     1      -4.482   4.294  -4.015  0.00  0.00    +0.025 A 
ATOM      3  C   UNL     1      -3.865   3.253  -3.324  0.00  0.00    +0.036 A 
ATOM      4  C   UNL     1      -3.884   3.262  -1.933  0.00  0.00    -0.026 A 
ATOM      5  C   UNL     1      -4.503   4.282  -1.246  0.00  0.00    +0.024 A 
ATOM      6  C   UNL     1      -5.114   5.314  -1.940  0.00  0.00    +0.041 A 
ATOM      7 CL   UNL     1      -5.895   6.601  -1.077  0.00  0.00    -0.084 Cl
ATOM      8  C   UNL     1      -3.146   2.025  -1.500  0.00  0.00    +0.053 C 
ATOM      9  C   UNL     1      -4.010   1.117  -0.644  0.00  0.00    +0.089 C 
ATOM     10  C   UNL     1      -2.906   0.617   0.372  0.00  0.00    +0.074 C 
ATOM     11  C   UNL     1      -2.205   1.875   0.707  0.00  0.00    -0.054 C 
ATOM     12  C   UNL     1      -0.795   1.614  -1.203  0.00  0.00    -0.076 C 
ATOM     13  C   UNL     1      -0.013   1.086   0.008  0.00  0.00    -0.020 C 
ATOM     14  C   UNL     1      -0.775   1.603   1.244  0.00  0.00    -0.016 C 
ATOM     15  C   UNL     1      -3.599  -0.482   1.002  0.00  0.00    +0.228 C 
ATOM     16  O   UNL     1      -3.581  -0.808   2.169  0.00  0.00    -0.275 OA
ATOM     17  N   UNL     1      -4.285  -1.073  -0.037  0.00  0.00    -0.210 N 
ATOM     18  C   UNL     1      -4.377  -0.261  -1.134  0.00  0.00    +0.229 C 
ATOM     19  O   UNL     1      -4.688  -0.582  -2.260  0.00  0.00    -0.275 OA
ATOM     20  C   UNL     1      -2.730   1.355  -2.785  0.00  0.00    +0.212 C 
ATOM     21  O   UNL     1      -2.107   0.321  -2.892  0.00  0.00    -0.277 OA
ATOM     22  N   UNL     1      -3.184   2.127  -3.791  0.00  0.00    -0.286 N 
ATOM     23  H   UNL     1      -3.053   1.924  -4.730  0.00  0.00    +0.155 HD
ATOM     24  N   UNL     1      -1.959   2.345  -0.690  0.00  0.00    +0.395 N 
ATOM     25  H   UNL     1      -1.782   3.356  -0.705  0.00  0.00    -0.079 HD
ENDROOT
BRANCH  17  26
ATOM     26  C   UNL     1      -4.828  -2.364   0.025  0.00  0.00    +0.047 A 
ATOM     27  C   UNL     1      -5.511  -2.884  -1.067  0.00  0.00    +0.044 A 
ATOM     28  C   UNL     1      -6.042  -4.159  -1.006  0.00  0.00    +0.044 A 
ATOM     29  C   UNL     1      -5.901  -4.913   0.146  0.00  0.00    +0.040 A 
ATOM     30  C   UNL     1      -5.225  -4.396   1.236  0.00  0.00    +0.044 A 
ATOM     31  C   UNL     1      -4.688  -3.123   1.178  0.00  0.00    +0.044 A 
ATOM     32 CL   UNL     1      -5.052  -5.345   2.679  0.00  0.00    -0.083 Cl
ATOM     33 CL   UNL     1      -6.891  -4.811  -2.372  0.00  0.00    -0.083 Cl
ENDBRANCH  17  26
TORSDOF 1
