REMARK  Name = ZINC12526196
REMARK  6 active torsions:
REMARK  status: ('A' for Active; 'I' for Inactive)
REMARK    1  A    between atoms: C_3  and  N_12
REMARK    2  A    between atoms: C_6  and  C_7
REMARK    3  A    between atoms: C_7  and  S_8
REMARK    4  A    between atoms: S_8  and  N_11
REMARK    5  A    between atoms: N_12  and  S_13
REMARK    6  A    between atoms: S_13  and  C_16
REMARK                            x       y       z     vdW  Elec       q    Type
REMARK                         _______ _______ _______ _____ _____    ______ ____
ROOT
ATOM      1  C   UNL     1      -1.406   5.374  -2.661  0.00  0.00    +0.007 A 
ATOM      2  C   UNL     1      -1.116   4.026  -2.585  0.00  0.00    +0.025 A 
ATOM      3  C   UNL     1      -1.184   3.370  -1.362  0.00  0.00    +0.048 A 
ATOM      4  C   UNL     1      -1.548   4.072  -0.221  0.00  0.00    +0.025 A 
ATOM      5  C   UNL     1      -1.832   5.421  -0.303  0.00  0.00    +0.007 A 
ATOM      6  C   UNL     1      -1.763   6.071  -1.522  0.00  0.00    -0.025 A 
ENDROOT
BRANCH   3   7
ATOM      7  N   UNL     1      -0.892   2.006  -1.282  0.00  0.00    -0.216 N 
ATOM      8  H   UNL     1      -1.270   1.391  -1.929  0.00  0.00    +0.174 HD
BRANCH   7   9
ATOM      9  S   UNL     1       0.099   1.441  -0.081  0.00  0.00    +0.074 S 
ATOM     10  O   UNL     1      -0.426   1.934   1.144  0.00  0.00    -0.150 OA
ATOM     11  O   UNL     1       0.284   0.054  -0.327  0.00  0.00    -0.150 OA
BRANCH   9  12
ATOM     12  C   UNL     1       1.671   2.206  -0.300  0.00  0.00    +0.127 A 
ATOM     13  C   UNL     1       2.163   3.063   0.666  0.00  0.00    +0.031 A 
ATOM     14  C   UNL     1       3.396   3.663   0.495  0.00  0.00    +0.017 A 
ATOM     15  C   UNL     1       4.139   3.405  -0.643  0.00  0.00    +0.019 A 
ATOM     16  C   UNL     1       3.648   2.547  -1.610  0.00  0.00    +0.037 A 
ATOM     17  C   UNL     1       2.416   1.943  -1.436  0.00  0.00    +0.069 A 
ATOM     18 CL   UNL     1       1.801   0.860  -2.646  0.00  0.00    -0.081 Cl
ATOM     19 BR   UNL     1       5.827   4.226  -0.877  0.00  0.00    -0.050 Br
ENDBRANCH   9  12
ENDBRANCH   7   9
ENDBRANCH   3   7
BRANCH   6  20
ATOM     20  C   UNL     1      -2.078   7.542  -1.608  0.00  0.00    +0.219 C 
BRANCH  20  21
ATOM     21  S   UNL     1      -3.849   7.763  -1.933  0.00  0.00    +0.031 S 
ATOM     22  O   UNL     1      -4.170   7.297  -3.236  0.00  0.00    -0.158 OA
ATOM     23  O   UNL     1      -4.609   7.346  -0.807  0.00  0.00    -0.158 OA
BRANCH  21  24
ATOM     24  N   UNL     1      -4.067   9.403  -2.005  0.00  0.00    -0.208 NA
ATOM     25  H   UNL     1      -3.312   9.999  -1.881  0.00  0.00    +0.144 HD
ATOM     26  H   UNL     1      -4.950   9.768  -2.172  0.00  0.00    +0.144 HD
ENDBRANCH  21  24
ENDBRANCH  20  21
ENDBRANCH   6  20
TORSDOF 6
