REMARK  Name = ZINC63752517
REMARK  8 active torsions:
REMARK  status: ('A' for Active; 'I' for Inactive)
REMARK    1  A    between atoms: C_1  and  C_2
REMARK    2  A    between atoms: C_2  and  C_3
REMARK    3  A    between atoms: C_3  and  C_4
REMARK    4  A    between atoms: C_4  and  N_5
REMARK    5  A    between atoms: C_6  and  C_8
REMARK    6  A    between atoms: C_10  and  N_19
REMARK    7  A    between atoms: C_13  and  C_18
REMARK    8  A    between atoms: C_20  and  C_22
REMARK                            x       y       z     vdW  Elec       q    Type
REMARK                         _______ _______ _______ _____ _____    ______ ____
ROOT
ATOM      1  C   UNL     1      -4.902  -4.473  -0.054  0.00  0.00    +0.211 C 
ATOM      2  C   UNL     1      -4.923  -4.409   1.457  0.00  0.00    +0.051 C 
ATOM      3  C   UNL     1      -4.664  -5.698   1.891  0.00  0.00    +0.018 A 
ATOM      4  C   UNL     1      -4.555  -6.267   3.183  0.00  0.00    +0.015 A 
ATOM      5  C   UNL     1      -4.287  -7.590   3.314  0.00  0.00    -0.050 A 
ATOM      6  C   UNL     1      -4.114  -8.416   2.201  0.00  0.00    +0.005 A 
ATOM      7  C   UNL     1      -4.204  -7.941   0.935  0.00  0.00    +0.026 A 
ATOM      8  C   UNL     1      -4.482  -6.566   0.715  0.00  0.00    +0.045 A 
ATOM      9  N   UNL     1      -4.618  -5.871  -0.397  0.00  0.00    -0.369 N 
ATOM     10  C   UNL     1      -4.173  -8.183   4.695  0.00  0.00    +0.044 C 
ATOM     11  H   UNL     1      -4.543  -6.225  -1.297  0.00  0.00    +0.161 HD
ENDROOT
BRANCH   1  13
ATOM     12  N   UNL     1      -4.041  -2.251  -0.717  0.00  0.00    -0.313 N 
ATOM     13  C   UNL     1      -3.821  -3.576  -0.597  0.00  0.00    +0.241 C 
ATOM     14  O   UNL     1      -2.752  -4.045  -0.927  0.00  0.00    -0.273 OA
ATOM     15  H   UNL     1      -4.896  -1.876  -0.454  0.00  0.00    +0.149 HD
BRANCH  12  16
ATOM     16  C   UNL     1      -2.990  -1.379  -1.245  0.00  0.00    +0.104 C 
BRANCH  16  17
ATOM     17  C   UNL     1      -3.494   0.066  -1.277  0.00  0.00    +0.018 C 
BRANCH  17  19
ATOM     18  C   UNL     1      -2.900   2.421  -1.860  0.00  0.00    +0.004 C 
ATOM     19  C   UNL     1      -2.396   0.977  -1.828  0.00  0.00    -0.002 C 
ENDBRANCH  17  19
ENDBRANCH  16  17
ENDBRANCH  12  16
ENDBRANCH   1  13
BRANCH   2  20
ATOM     20  N   UNL     1      -5.149  -3.312   2.229  0.00  0.00    -0.282 N 
ATOM     21  C   UNL     1      -5.749  -3.444   3.428  0.00  0.00    +0.248 C 
ATOM     22  O   UNL     1      -6.059  -4.546   3.835  0.00  0.00    -0.270 OA
ATOM     23  H   UNL     1      -4.878  -2.434   1.916  0.00  0.00    +0.155 HD
BRANCH  21  24
ATOM     24  C   UNL     1      -6.031  -2.249   4.249  0.00  0.00    +0.037 A 
ATOM     25  C   UNL     1      -5.681  -0.980   3.782  0.00  0.00    +0.014 A 
ATOM     26  C   UNL     1      -5.947   0.133   4.553  0.00  0.00    +0.021 A 
ATOM     27  C   UNL     1      -6.559  -0.007   5.788  0.00  0.00    +0.041 A 
ATOM     28  C   UNL     1      -6.907  -1.263   6.256  0.00  0.00    +0.021 A 
ATOM     29  C   UNL     1      -6.653  -2.382   5.492  0.00  0.00    +0.014 A 
ATOM     30 CL   UNL     1      -6.890   1.398   6.752  0.00  0.00    -0.084 Cl
ENDBRANCH  21  24
ENDBRANCH   2  20
TORSDOF 6
