REMARK  Name = ZINC37474975
REMARK  21 active torsions:
REMARK  status: ('A' for Active; 'I' for Inactive)
REMARK    1  A    between atoms: C_1  and  C_2
REMARK    2  A    between atoms: C_2  and  C_4
REMARK    3  A    between atoms: C_2  and  N_9
REMARK    4  A    between atoms: C_4  and  C_5
REMARK    5  A    between atoms: C_5  and  C_6
REMARK    6  A    between atoms: C_6  and  C_7
REMARK    7  A    between atoms: C_6  and  C_8
REMARK    8  A    between atoms: N_9  and  C_10
REMARK    9  A    between atoms: N_9  and  C_22
REMARK   10  A    between atoms: C_10  and  C_11
REMARK   11  A    between atoms: C_11  and  C_13
REMARK   12  A    between atoms: C_11  and  O_21
REMARK   13  A    between atoms: C_13  and  O_14
REMARK   14  A    between atoms: O_14  and  C_15
REMARK   15  A    between atoms: C_15  and  C_16
REMARK   16  A    between atoms: C_22  and  C_23
REMARK   17  A    between atoms: C_23  and  C_25
REMARK   18  A    between atoms: C_23  and  O_33
REMARK   19  A    between atoms: C_25  and  O_26
REMARK   20  A    between atoms: O_26  and  C_27
REMARK   21  A    between atoms: C_27  and  C_28
REMARK                            x       y       z     vdW  Elec       q    Type
REMARK                         _______ _______ _______ _____ _____    ______ ____
ROOT
ATOM      1  N   UNL     1       1.167  -0.212   1.178  0.00  0.00    +0.385 N 
ATOM      2  H   UNL     1       2.175  -0.175   1.179  0.00  0.00    -0.081 HD
ENDROOT
BRANCH   1   4
ATOM      3  C   UNL     1      -0.734   0.782  -0.003  0.00  0.00    -0.013 C 
ATOM      4  C   UNL     1       0.664   0.178  -0.146  0.00  0.00    -0.072 C 
BRANCH   4   5
ATOM      5  C   UNL     1       1.607   1.213  -0.765  0.00  0.00    -0.015 C 
BRANCH   5   6
ATOM      6  C   UNL     1       2.973   0.573  -1.016  0.00  0.00    +0.001 C 
BRANCH   6   7
ATOM      7  C   UNL     1       3.880   1.572  -1.736  0.00  0.00    -0.017 C 
ATOM      8  C   UNL     1       5.289   0.987  -1.858  0.00  0.00    +0.007 C 
ATOM      9  C   UNL     1       3.322   1.853  -3.133  0.00  0.00    +0.007 C 
ENDBRANCH   6   7
ENDBRANCH   5   6
ENDBRANCH   4   5
ENDBRANCH   1   4
BRANCH   1  10
ATOM     10  C   UNL     1       0.727  -1.580   1.485  0.00  0.00    -0.044 C 
BRANCH  10  11
ATOM     11  C   UNL     1       1.505  -2.572   0.619  0.00  0.00    +0.124 C 
BRANCH  11  12
ATOM     12  O   UNL     1       1.112  -2.423  -0.747  0.00  0.00    -0.391 OA
ATOM     13  H   UNL     1       0.195  -2.672  -0.922  0.00  0.00    +0.210 HD
ENDBRANCH  11  12
BRANCH  11  14
ATOM     14  C   UNL     1       1.204  -3.999   1.083  0.00  0.00    +0.189 C 
BRANCH  14  15
ATOM     15  O   UNL     1       1.984  -4.922   0.320  0.00  0.00    -0.370 OA
BRANCH  15  16
ATOM     16  C   UNL     1       1.696  -6.294   0.598  0.00  0.00    +0.234 C 
BRANCH  16  17
ATOM     17  C   UNL     1       2.571  -7.174  -0.258  0.00  0.00    +0.130 A 
ATOM     18  C   UNL     1       3.787  -7.639   0.079  0.00  0.00    +0.047 A 
ATOM     19  C   UNL     1       4.243  -8.418  -1.010  0.00  0.00    +0.041 A 
ATOM     20  C   UNL     1       3.278  -8.382  -1.946  0.00  0.00    +0.195 A 
ATOM     21  O   UNL     1       2.265  -7.631  -1.483  0.00  0.00    -0.465 OA
ENDBRANCH  16  17
ENDBRANCH  15  16
ENDBRANCH  14  15
ENDBRANCH  11  14
ENDBRANCH  10  11
ENDBRANCH   1  10
BRANCH   1  22
ATOM     22  C   UNL     1       0.642   0.711   2.192  0.00  0.00    -0.044 C 
BRANCH  22  23
ATOM     23  C   UNL     1       1.240   2.102   1.975  0.00  0.00    +0.124 C 
BRANCH  23  24
ATOM     24  O   UNL     1       2.666   2.017   2.001  0.00  0.00    -0.391 OA
ATOM     25  H   UNL     1       3.025   1.679   2.832  0.00  0.00    +0.210 HD
ENDBRANCH  23  24
BRANCH  23  26
ATOM     26  C   UNL     1       0.766   3.041   3.086  0.00  0.00    +0.189 C 
BRANCH  26  27
ATOM     27  O   UNL     1       1.229   4.366   2.820  0.00  0.00    -0.370 OA
BRANCH  27  28
ATOM     28  C   UNL     1       0.838   5.327   3.803  0.00  0.00    +0.234 C 
BRANCH  28  29
ATOM     29  C   UNL     1       1.378   6.682   3.424  0.00  0.00    +0.130 A 
ATOM     30  C   UNL     1       0.745   7.597   2.668  0.00  0.00    +0.047 A 
ATOM     31  C   UNL     1       1.609   8.712   2.566  0.00  0.00    +0.041 A 
ATOM     32  C   UNL     1       2.717   8.411   3.267  0.00  0.00    +0.195 A 
ATOM     33  O   UNL     1       2.569   7.183   3.789  0.00  0.00    -0.465 OA
ENDBRANCH  28  29
ENDBRANCH  27  28
ENDBRANCH  26  27
ENDBRANCH  23  26
ENDBRANCH  22  23
ENDBRANCH   1  22
TORSDOF 18
