REMARK  Name = ZINC37796417
REMARK  4 active torsions:
REMARK  status: ('A' for Active; 'I' for Inactive)
REMARK    1  A    between atoms: C_4  and  C_21
REMARK    2  A    between atoms: C_6  and  C_9
REMARK    3  A    between atoms: N_11  and  C_12
REMARK    4  A    between atoms: C_15  and  C_18
REMARK                            x       y       z     vdW  Elec       q    Type
REMARK                         _______ _______ _______ _____ _____    ______ ____
ROOT
ATOM      1  C   UNL     1      -0.011   0.002  -2.478  0.00  0.00    +0.217 C 
ATOM      2  O   UNL     1       0.562   0.711  -3.278  0.00  0.00    -0.275 OA
ATOM      3  N   UNL     1      -1.298  -0.340  -2.680  0.00  0.00    -0.312 N 
ATOM      4  H   UNL     1      -1.756  -0.908  -2.041  0.00  0.00    +0.149 HD
ENDROOT
BRANCH   1   9
ATOM      5  C   UNL     1      -0.019   1.526   0.010  0.00  0.00    +0.001 C 
ATOM      6  C   UNL     1       1.417   2.055  -0.000  0.00  0.00    +0.001 C 
ATOM      7  C   UNL     1       2.133   1.562  -1.259  0.00  0.00    +0.015 C 
ATOM      8  C   UNL     1       2.154   0.032  -1.268  0.00  0.00    +0.114 C 
ATOM      9  C   UNL     1       0.718  -0.497  -1.257  0.00  0.00    +0.089 C 
ATOM     10  C   UNL     1       0.002  -0.004   0.002  0.00  0.00    +0.013 C 
BRANCH   8  11
ATOM     11  C   UNL     1       2.859  -0.454  -2.507  0.00  0.00    +0.360 C 
ATOM     12  O   UNL     1       4.020  -0.142  -2.710  0.00  0.00    -0.246 OA
ATOM     13  O   UNL     1       2.268  -1.159  -3.308  0.00  0.00    -0.246 OA
ENDBRANCH   8  11
ENDBRANCH   1   9
BRANCH   3  14
ATOM     14  C   UNL     1      -2.007   0.145  -3.867  0.00  0.00    +0.073 C 
ATOM     15  C   UNL     1      -1.726  -0.789  -5.046  0.00  0.00    +0.023 C 
ATOM     16  C   UNL     1      -2.466  -0.282  -6.286  0.00  0.00    +0.014 C 
ATOM     17  C   UNL     1      -3.970  -0.252  -6.006  0.00  0.00    +0.075 C 
ATOM     18  C   UNL     1      -4.251   0.681  -4.827  0.00  0.00    +0.014 C 
ATOM     19  C   UNL     1      -3.511   0.175  -3.587  0.00  0.00    +0.023 C 
BRANCH  17  20
ATOM     20  C   UNL     1      -4.699   0.247  -7.226  0.00  0.00    +0.214 C 
ATOM     21  O   UNL     1      -4.077   0.549  -8.223  0.00  0.00    -0.276 OA
ATOM     22  N   UNL     1      -6.042   0.357  -7.211  0.00  0.00    -0.329 N 
ATOM     23  H   UNL     1      -6.540   0.115  -6.415  0.00  0.00    +0.145 HD
ATOM     24  H   UNL     1      -6.511   0.678  -7.997  0.00  0.00    +0.145 HD
ENDBRANCH  17  20
ENDBRANCH   3  14
TORSDOF 4
