REMARK  Name = ZINC04785440
REMARK  1 active torsions:
REMARK  status: ('A' for Active; 'I' for Inactive)
REMARK    1  A    between atoms: C_11  and  N_13
REMARK                            x       y       z     vdW  Elec       q    Type
REMARK                         _______ _______ _______ _____ _____    ______ ____
ROOT
ATOM      1  C   UNL     1       0.278   5.421  -0.355  0.00  0.00    +0.224 A 
ATOM      2  N   UNL     1       1.392   6.108  -0.404  0.00  0.00    -0.234 NA
ATOM      3  C   UNL     1       2.596   5.508  -0.271  0.00  0.00    +0.093 A 
ATOM      4  C   UNL     1       3.931   6.133  -0.301  0.00  0.00    +0.035 A 
ATOM      5  C   UNL     1       4.233   7.509  -0.479  0.00  0.00    -0.029 A 
ATOM      6  C   UNL     1       5.528   7.912  -0.476  0.00  0.00    -0.005 A 
ATOM      7  C   UNL     1       6.551   6.968  -0.308  0.00  0.00    +0.103 A 
ATOM      8  C   UNL     1       5.021   5.263  -0.138  0.00  0.00    +0.089 A 
ATOM      9  S   UNL     1       4.279   3.660   0.054  0.00  0.00    -0.066 S 
ATOM     10  C   UNL     1       2.574   4.121  -0.079  0.00  0.00    +0.080 A 
ATOM     11  C   UNL     1       1.374   3.427  -0.032  0.00  0.00    +0.139 A 
ATOM     12  N   UNL     1       0.240   4.113  -0.180  0.00  0.00    -0.220 NA
ATOM     13  N   UNL     1       7.876   7.383  -0.313  0.00  0.00    -0.312 N 
ATOM     14  C   UNL     1       8.619   6.760  -1.418  0.00  0.00    +0.134 C 
ATOM     15  C   UNL     1      10.056   7.289  -1.422  0.00  0.00    +0.178 C 
ATOM     16  O   UNL     1      10.657   7.030  -0.151  0.00  0.00    -0.377 OA
ATOM     17  C   UNL     1       9.960   7.622   0.948  0.00  0.00    +0.178 C 
ATOM     18  C   UNL     1       8.522   7.096   0.976  0.00  0.00    +0.134 C 
ATOM     19  C   UNL     1       5.928   9.356  -0.639  0.00  0.00    +0.039 C 
ATOM     20  C   UNL     1       4.779  10.166  -1.238  0.00  0.00    +0.005 C 
ATOM     21  C   UNL     1       3.514   9.894  -0.416  0.00  0.00    +0.005 C 
ATOM     22  C   UNL     1       3.077   8.452  -0.670  0.00  0.00    +0.036 C 
ATOM     23  N   UNL     1       6.323   5.637  -0.137  0.00  0.00    -0.337 N 
ATOM     24  H   UNL     1       7.087   4.962  -0.016  0.00  0.00    +0.168 HD
ENDROOT
BRANCH  11  25
ATOM     25  N   UNL     1       1.353   2.053   0.158  0.00  0.00    -0.314 N 
ATOM     26  C   UNL     1      -0.024   1.544   0.172  0.00  0.00    +0.106 C 
ATOM     27  C   UNL     1      -0.003   0.015   0.237  0.00  0.00    +0.019 C 
ATOM     28  C   UNL     1       0.737  -0.427   1.503  0.00  0.00    +0.003 C 
ATOM     29  C   UNL     1       2.153   0.157   1.486  0.00  0.00    +0.019 C 
ATOM     30  C   UNL     1       2.070   1.681   1.385  0.00  0.00    +0.106 C 
ENDBRANCH  11  25
TORSDOF 1
