REMARK  Name = ZINC01785958
REMARK  7 active torsions:
REMARK  status: ('A' for Active; 'I' for Inactive)
REMARK    1  A    between atoms: C_1  and  C_2
REMARK    2  A    between atoms: C_5  and  N_9
REMARK    3  A    between atoms: C_6  and  C_8
REMARK    4  A    between atoms: C_10  and  C_12
REMARK    5  A    between atoms: C_13  and  C_23
REMARK    6  A    between atoms: C_20  and  C_22
REMARK    7  A    between atoms: N_25  and  C_26
REMARK                            x       y       z     vdW  Elec       q    Type
REMARK                         _______ _______ _______ _____ _____    ______ ____
ROOT
ATOM      1  C   UNL     1       3.705  -1.081  -1.096  0.00  0.00    +0.133 A 
ATOM      2  C   UNL     1       4.823  -0.419  -0.674  0.00  0.00    +0.106 A 
ATOM      3  S   UNL     1       5.712  -1.714   0.177  0.00  0.00    -0.044 S 
ATOM      4  C   UNL     1       4.539  -3.025  -0.092  0.00  0.00    +0.182 A 
ATOM      5  N   UNL     1       3.540  -2.415  -0.802  0.00  0.00    -0.249 N 
ATOM      6  C   UNL     1       2.482  -3.202  -1.162  0.00  0.00    +0.260 A 
ATOM      7  O   UNL     1       1.556  -2.728  -1.801  0.00  0.00    -0.267 OA
ATOM      8  C   UNL     1       2.459  -4.549  -0.794  0.00  0.00    +0.093 A 
ATOM      9  C   UNL     1       3.498  -5.076  -0.078  0.00  0.00    +0.046 A 
ATOM     10  N   UNL     1       4.518  -4.288   0.254  0.00  0.00    -0.228 NA
ATOM     11  C   UNL     1       3.489  -6.527   0.328  0.00  0.00    +0.066 C 
ENDROOT
BRANCH   1  13
ATOM     12  N   UNL     1       1.685   0.288  -1.215  0.00  0.00    -0.280 N 
ATOM     13  C   UNL     1       2.672  -0.364  -1.862  0.00  0.00    +0.266 C 
ATOM     14  O   UNL     1       2.708  -0.361  -3.077  0.00  0.00    -0.268 OA
ATOM     15  H   UNL     1       1.690   0.338  -0.247  0.00  0.00    +0.155 HD
BRANCH  12  20
ATOM     16  C   UNL     1      -2.496   2.741  -4.160  0.00  0.00    +0.044 C 
ATOM     17  C   UNL     1      -1.385   2.089  -3.378  0.00  0.00    -0.050 A 
ATOM     18  C   UNL     1      -0.183   1.798  -3.998  0.00  0.00    +0.005 A 
ATOM     19  C   UNL     1       0.835   1.196  -3.285  0.00  0.00    +0.024 A 
ATOM     20  C   UNL     1       0.655   0.893  -1.941  0.00  0.00    +0.037 A 
ATOM     21  C   UNL     1      -0.551   1.191  -1.321  0.00  0.00    -0.029 A 
ATOM     22  C   UNL     1      -1.568   1.788  -2.041  0.00  0.00    +0.008 A 
ATOM     23  C   UNL     1      -0.751   0.864   0.137  0.00  0.00    +0.045 C 
ENDBRANCH  12  20
ENDBRANCH   1  13
BRANCH   2  24
ATOM     24  C   UNL     1       5.197   0.995  -0.869  0.00  0.00    +0.257 C 
ATOM     25  O   UNL     1       4.417   1.763  -1.396  0.00  0.00    -0.269 OA
ATOM     26  N   UNL     1       6.405   1.434  -0.462  0.00  0.00    -0.281 N 
ATOM     27  H   UNL     1       7.069   0.803  -0.145  0.00  0.00    +0.155 HD
BRANCH  26  28
ATOM     28  C   UNL     1       6.699   2.802  -0.495  0.00  0.00    +0.034 A 
ATOM     29  C   UNL     1       5.708   3.734  -0.216  0.00  0.00    +0.026 A 
ATOM     30  C   UNL     1       6.003   5.083  -0.245  0.00  0.00    +0.040 A 
ATOM     31  C   UNL     1       7.282   5.507  -0.562  0.00  0.00    +0.124 A 
ATOM     32  C   UNL     1       8.270   4.579  -0.847  0.00  0.00    +0.040 A 
ATOM     33  C   UNL     1       7.982   3.229  -0.814  0.00  0.00    +0.026 A 
ATOM     34  F   UNL     1       7.567   6.827  -0.595  0.00  0.00    -0.205 F 
ENDBRANCH  26  28
ENDBRANCH   2  24
TORSDOF 4
