REMARK  Name = ZINC13026041
REMARK  11 active torsions:
REMARK  status: ('A' for Active; 'I' for Inactive)
REMARK    1  A    between atoms: C_1  and  C_2
REMARK    2  A    between atoms: C_2  and  C_3
REMARK    3  A    between atoms: C_8  and  N_9
REMARK    4  A    between atoms: N_9  and  C_10
REMARK    5  A    between atoms: C_10  and  N_12
REMARK    6  A    between atoms: N_12  and  N_13
REMARK    7  A    between atoms: C_14  and  C_15
REMARK    8  A    between atoms: C_14  and  C_16
REMARK    9  A    between atoms: C_19  and  S_22
REMARK   10  A    between atoms: S_22  and  N_25
REMARK   11  A    between atoms: C_28  and  C_31
REMARK                            x       y       z     vdW  Elec       q    Type
REMARK                         _______ _______ _______ _____ _____    ______ ____
ROOT
ATOM      1  C   UNL     1       2.346   5.773  -0.446  0.00  0.00    -0.002 A 
ATOM      2  C   UNL     1       3.563   6.458  -0.454  0.00  0.00    +0.011 A 
ATOM      3  C   UNL     1       3.607   7.777  -0.856  0.00  0.00    +0.029 A 
ATOM      4  C   UNL     1       2.446   8.425  -1.241  0.00  0.00    +0.106 A 
ATOM      5  C   UNL     1       1.236   7.754  -1.231  0.00  0.00    +0.029 A 
ATOM      6  C   UNL     1       1.178   6.434  -0.836  0.00  0.00    +0.011 A 
ENDROOT
BRANCH   1   8
ATOM      7  N   UNL     1       1.158   3.730  -0.012  0.00  0.00    -0.185 NA
ATOM      8  C   UNL     1       2.292   4.362  -0.023  0.00  0.00    +0.063 C 
ATOM      9  C   UNL     1       3.554   3.652   0.397  0.00  0.00    +0.068 C 
BRANCH   7  10
ATOM     10  N   UNL     1       1.107   2.389   0.390  0.00  0.00    -0.218 N 
ATOM     11  H   UNL     1       1.920   1.932   0.660  0.00  0.00    +0.176 HD
BRANCH  10  12
ATOM     12  C   UNL     1      -0.070   1.733   0.401  0.00  0.00    +0.154 C 
ATOM     13  S   UNL     1      -0.132   0.094   0.892  0.00  0.00    -0.017 S 
BRANCH  12  14
ATOM     14  N   UNL     1      -1.197   2.366   0.021  0.00  0.00    -0.295 N 
ATOM     15  H   UNL     1      -1.177   3.314  -0.181  0.00  0.00    +0.154 HD
BRANCH  14  21
ATOM     16  C   UNL     1      -3.573   2.196   0.421  0.00  0.00    -0.026 A 
ATOM     17  C   UNL     1      -4.756   1.491   0.317  0.00  0.00    +0.005 A 
ATOM     18  C   UNL     1      -4.771   0.248  -0.288  0.00  0.00    +0.000 A 
ATOM     19  C   UNL     1      -3.602  -0.294  -0.792  0.00  0.00    +0.002 A 
ATOM     20  C   UNL     1      -2.417   0.408  -0.696  0.00  0.00    +0.023 A 
ATOM     21  C   UNL     1      -2.397   1.655  -0.083  0.00  0.00    +0.036 A 
BRANCH  16  23
ATOM     22  C   UNL     1      -3.687   4.639   0.013  0.00  0.00    +0.009 C 
ATOM     23  C   UNL     1      -3.557   3.550   1.081  0.00  0.00    +0.033 C 
ENDBRANCH  16  23
ENDBRANCH  14  21
ENDBRANCH  12  14
ENDBRANCH  10  12
ENDBRANCH   7  10
ENDBRANCH   1   8
BRANCH   4  24
ATOM     24  S   UNL     1       2.510  10.111  -1.746  0.00  0.00    +0.061 S 
ATOM     25  O   UNL     1       3.839  10.352  -2.189  0.00  0.00    -0.153 OA
ATOM     26  O   UNL     1       1.378  10.330  -2.577  0.00  0.00    -0.153 OA
BRANCH  24  27
ATOM     27  N   UNL     1       2.288  11.037  -0.391  0.00  0.00    -0.177 NA
ATOM     28  C   UNL     1       0.939  11.449   0.021  0.00  0.00    +0.110 C 
ATOM     29  C   UNL     1       0.913  12.967   0.191  0.00  0.00    +0.032 C 
ATOM     30  C   UNL     1       2.022  13.389   1.157  0.00  0.00    +0.105 C 
ATOM     31  C   UNL     1       3.382  12.989   0.581  0.00  0.00    +0.032 C 
ATOM     32  C   UNL     1       3.436  11.467   0.418  0.00  0.00    +0.110 C 
BRANCH  30  33
ATOM     33  C   UNL     1       1.978  14.883   1.351  0.00  0.00    +0.359 C 
ATOM     34  O   UNL     1       2.936  15.558   1.058  0.00  0.00    -0.246 OA
ATOM     35  O   UNL     1       0.875  15.463   1.849  0.00  0.00    -0.246 OA
ENDBRANCH  30  33
ENDBRANCH  24  27
ENDBRANCH   4  24
TORSDOF 9
