REMARK  Name = ZINC09042012
REMARK  9 active torsions:
REMARK  status: ('A' for Active; 'I' for Inactive)
REMARK    1  A    between atoms: C_1  and  C_2
REMARK    2  A    between atoms: C_2  and  C_3
REMARK    3  A    between atoms: C_3  and  C_4
REMARK    4  A    between atoms: C_4  and  C_5
REMARK    5  A    between atoms: C_5  and  N_6
REMARK    6  A    between atoms: C_14  and  C_17
REMARK    7  A    between atoms: N_19  and  N_20
REMARK    8  A    between atoms: C_21  and  C_22
REMARK    9  A    between atoms: C_21  and  C_23
REMARK                            x       y       z     vdW  Elec       q    Type
REMARK                         _______ _______ _______ _____ _____    ______ ____
ROOT
ATOM      1  C   UNL     1       3.212  -6.997   0.275  0.00  0.00    +0.272 C 
ATOM      2  O   UNL     1       3.801  -6.497  -0.665  0.00  0.00    -0.268 OA
ATOM      3  N   UNL     1       3.611  -8.188   0.765  0.00  0.00    -0.202 N 
ATOM      4  H   UNL     1       3.101  -8.619   1.468  0.00  0.00    +0.178 HD
ENDROOT
BRANCH   1  13
ATOM      5  N   UNL     1       0.676  -4.352   0.988  0.00  0.00    -0.307 N 
ATOM      6  C   UNL     1      -0.115  -4.902   1.978  0.00  0.00    +0.056 A 
ATOM      7  C   UNL     1      -1.188  -4.190   2.506  0.00  0.00    +0.026 A 
ATOM      8  C   UNL     1      -1.968  -4.753   3.492  0.00  0.00    +0.002 A 
ATOM      9  C   UNL     1      -1.696  -6.027   3.968  0.00  0.00    +0.001 A 
ATOM     10  C   UNL     1      -0.639  -6.749   3.459  0.00  0.00    +0.014 A 
ATOM     11  C   UNL     1       0.159  -6.192   2.460  0.00  0.00    +0.046 A 
ATOM     12  C   UNL     1       1.298  -6.937   1.892  0.00  0.00    +0.205 A 
ATOM     13  C   UNL     1       2.067  -6.304   0.876  0.00  0.00    +0.150 A 
ATOM     14  C   UNL     1       1.721  -5.024   0.453  0.00  0.00    +0.268 A 
ATOM     15  O   UNL     1       2.451  -4.434  -0.514  0.00  0.00    -0.267 OA
ATOM     16  O   UNL     1       1.572  -8.059   2.281  0.00  0.00    -0.286 OA
BRANCH   5  17
ATOM     17  C   UNL     1       0.371  -3.005   0.500  0.00  0.00    +0.125 C 
BRANCH  17  18
ATOM     18  C   UNL     1      -0.609  -3.097  -0.671  0.00  0.00    +0.022 C 
BRANCH  18  19
ATOM     19  C   UNL     1      -0.928  -1.690  -1.181  0.00  0.00    +0.001 C 
BRANCH  19  21
ATOM     20  C   UNL     1      -2.226  -0.374  -2.862  0.00  0.00    +0.004 C 
ATOM     21  C   UNL     1      -1.907  -1.781  -2.353  0.00  0.00    -0.003 C 
ENDBRANCH  19  21
ENDBRANCH  18  19
ENDBRANCH  17  18
ENDBRANCH   5  17
ENDBRANCH   1  13
BRANCH   3  22
ATOM     22  N   UNL     1       4.763  -8.802   0.258  0.00  0.00    -0.184 NA
ATOM     23  C   UNL     1       5.149  -9.950   0.729  0.00  0.00    +0.072 C 
ATOM     24  C   UNL     1       4.356 -10.620   1.822  0.00  0.00    +0.068 C 
BRANCH  23  25
ATOM     25  C   UNL     1       6.359 -10.595   0.197  0.00  0.00    +0.109 A 
ATOM     26  C   UNL     1       6.285 -11.398  -0.972  0.00  0.00    +0.202 A 
ATOM     27  C   UNL     1       7.528 -12.020  -1.461  0.00  0.00    +0.046 A 
ATOM     28  C   UNL     1       7.532 -12.821  -2.604  0.00  0.00    +0.014 A 
ATOM     29  C   UNL     1       8.711 -13.387  -3.034  0.00  0.00    +0.001 A 
ATOM     30  C   UNL     1       9.890 -13.166  -2.338  0.00  0.00    +0.002 A 
ATOM     31  C   UNL     1       9.902 -12.378  -1.208  0.00  0.00    +0.026 A 
ATOM     32  C   UNL     1       8.722 -11.795  -0.756  0.00  0.00    +0.053 A 
ATOM     33  N   UNL     1       8.716 -11.002   0.374  0.00  0.00    -0.321 N 
ATOM     34  H   UNL     1       9.548 -10.855   0.851  0.00  0.00    +0.169 HD
ATOM     35  C   UNL     1       7.582 -10.419   0.831  0.00  0.00    +0.262 A 
ATOM     36  O   UNL     1       7.641  -9.650   1.938  0.00  0.00    -0.267 OA
ATOM     37  O   UNL     1       5.226 -11.567  -1.554  0.00  0.00    -0.286 OA
ENDBRANCH  23  25
ENDBRANCH   3  22
TORSDOF 7
