REMARK  Name = ZINC16392132
REMARK  6 active torsions:
REMARK  status: ('A' for Active; 'I' for Inactive)
REMARK    1  A    between atoms: C_1  and  N_2
REMARK    2  A    between atoms: N_5  and  S_8
REMARK    3  A    between atoms: S_8  and  C_11
REMARK    4  A    between atoms: C_14  and  N_17
REMARK    5  A    between atoms: C_18  and  C_20
REMARK    6  A    between atoms: C_22  and  C_31
REMARK                            x       y       z     vdW  Elec       q    Type
REMARK                         _______ _______ _______ _____ _____    ______ ____
ROOT
ATOM      1  N   UNL     1       0.684  -8.900  -0.973  0.00  0.00    -0.281 N 
ATOM      2  C   UNL     1       1.573  -9.717  -0.374  0.00  0.00    +0.249 C 
ATOM      3  O   UNL     1       1.954  -9.478   0.755  0.00  0.00    -0.270 OA
ATOM      4  H   UNL     1       0.322  -9.132  -1.842  0.00  0.00    +0.155 HD
ENDROOT
BRANCH   2   5
ATOM      5  C   UNL     1       2.085 -10.905  -1.090  0.00  0.00    +0.048 A 
ATOM      6  C   UNL     1       1.760 -11.134  -2.419  0.00  0.00    +0.042 A 
ATOM      7  C   UNL     1       2.264 -12.272  -3.067  0.00  0.00    +0.072 A 
ATOM      8  N   UNL     1       3.042 -13.134  -2.444  0.00  0.00    -0.247 NA
ATOM      9  C   UNL     1       3.391 -12.971  -1.167  0.00  0.00    +0.072 A 
ATOM     10  C   UNL     1       2.929 -11.844  -0.442  0.00  0.00    +0.014 A 
ATOM     11  C   UNL     1       3.306 -11.678   0.897  0.00  0.00    +0.030 A 
ATOM     12  C   UNL     1       4.118 -12.601   1.489  0.00  0.00    +0.042 A 
ATOM     13  C   UNL     1       4.579 -13.708   0.777  0.00  0.00    +0.022 A 
ATOM     14  C   UNL     1       4.223 -13.905  -0.521  0.00  0.00    +0.030 A 
ATOM     15 CL   UNL     1       4.584 -12.393   3.148  0.00  0.00    -0.084 Cl
BRANCH   7  16
ATOM     16  C   UNL     1       1.911 -12.511  -4.488  0.00  0.00    +0.003 A 
ATOM     17  C   UNL     1       1.093 -11.617  -5.184  0.00  0.00    +0.030 A 
ATOM     18  C   UNL     1       0.790 -11.877  -6.506  0.00  0.00    +0.111 A 
ATOM     19  N   UNL     1       1.262 -12.951  -7.109  0.00  0.00    -0.263 NA
ATOM     20  C   UNL     1       2.036 -13.819  -6.488  0.00  0.00    +0.111 A 
ATOM     21  C   UNL     1       2.393 -13.633  -5.168  0.00  0.00    +0.030 A 
ENDBRANCH   7  16
ENDBRANCH   2   5
BRANCH   1  25
ATOM     22  C   UNL     1      -0.507  -5.381   0.910  0.00  0.00    +0.106 A 
ATOM     23  C   UNL     1      -1.400  -6.074   0.113  0.00  0.00    +0.030 A 
ATOM     24  C   UNL     1      -1.008  -7.241  -0.513  0.00  0.00    +0.025 A 
ATOM     25  C   UNL     1       0.284  -7.719  -0.341  0.00  0.00    +0.034 A 
ATOM     26  C   UNL     1       1.179  -7.021   0.460  0.00  0.00    +0.025 A 
ATOM     27  C   UNL     1       0.783  -5.852   1.079  0.00  0.00    +0.030 A 
BRANCH  22  28
ATOM     28  S   UNL     1      -1.011  -3.892   1.706  0.00  0.00    +0.061 S 
ATOM     29  O   UNL     1      -0.155  -3.722   2.828  0.00  0.00    -0.153 OA
ATOM     30  O   UNL     1      -2.425  -3.956   1.829  0.00  0.00    -0.153 OA
BRANCH  28  35
ATOM     31  C   UNL     1      -0.648   1.423  -0.361  0.00  0.00    +0.105 C 
ATOM     32  N   UNL     1      -0.522  -0.039  -0.306  0.00  0.00    -0.303 NA
ATOM     33  C   UNL     1      -1.840  -0.677  -0.186  0.00  0.00    +0.101 C 
ATOM     34  C   UNL     1      -1.682  -2.196  -0.313  0.00  0.00    +0.125 C 
ATOM     35  N   UNL     1      -0.682  -2.646   0.667  0.00  0.00    -0.174 NA
ATOM     36  C   UNL     1       0.619  -1.959   0.699  0.00  0.00    +0.125 C 
ATOM     37  C   UNL     1       0.370  -0.450   0.786  0.00  0.00    +0.101 C 
ENDBRANCH  28  35
ENDBRANCH  22  28
ENDBRANCH   1  25
TORSDOF 5
