REMARK  Name = ZINC66107089
REMARK  8 active torsions:
REMARK  status: ('A' for Active; 'I' for Inactive)
REMARK    1  A    between atoms: C_3  and  C_31
REMARK    2  A    between atoms: C_5  and  N_7
REMARK    3  A    between atoms: C_8  and  C_10
REMARK    4  A    between atoms: C_10  and  N_11
REMARK    5  A    between atoms: N_11  and  C_12
REMARK    6  A    between atoms: C_16  and  C_18
REMARK    7  A    between atoms: N_20  and  C_21
REMARK    8  A    between atoms: C_25  and  C_27
REMARK                            x       y       z     vdW  Elec       q    Type
REMARK                         _______ _______ _______ _____ _____    ______ ____
ROOT
ATOM      1  C   UNL     1      -1.528  -6.116   0.738  0.00  0.00    +0.028 A 
ATOM      2  C   UNL     1      -0.462  -6.994   0.578  0.00  0.00    +0.023 A 
ATOM      3  C   UNL     1      -0.686  -8.357   0.517  0.00  0.00    +0.003 A 
ATOM      4  C   UNL     1      -1.969  -8.855   0.615  0.00  0.00    +0.013 A 
ATOM      5  C   UNL     1      -3.047  -7.982   0.776  0.00  0.00    +0.039 A 
ATOM      6  C   UNL     1      -2.820  -6.607   0.844  0.00  0.00    +0.036 A 
ENDROOT
BRANCH   5   7
ATOM      7  C   UNL     1      -4.422  -8.514   0.881  0.00  0.00    +0.248 C 
ATOM      8  O   UNL     1      -5.359  -7.752   1.021  0.00  0.00    -0.270 OA
ATOM      9  N   UNL     1      -4.638  -9.843   0.820  0.00  0.00    -0.281 N 
ATOM     10  H   UNL     1      -3.886 -10.455   0.783  0.00  0.00    +0.155 HD
BRANCH   9  11
ATOM     11  C   UNL     1      -5.945 -10.339   0.811  0.00  0.00    +0.034 A 
ATOM     12  C   UNL     1      -6.232 -11.555   1.418  0.00  0.00    +0.023 A 
ATOM     13  C   UNL     1      -7.524 -12.043   1.407  0.00  0.00    +0.002 A 
ATOM     14  C   UNL     1      -8.531 -11.322   0.792  0.00  0.00    +0.012 A 
ATOM     15  C   UNL     1      -8.249 -10.112   0.186  0.00  0.00    +0.057 A 
ATOM     16  C   UNL     1      -6.960  -9.616   0.199  0.00  0.00    +0.035 A 
BRANCH  15  17
ATOM     17  C   UNL     1      -9.350  -9.330  -0.483  0.00  0.00    +0.417 C 
ATOM     18  F   UNL     1     -10.557 -10.027  -0.361  0.00  0.00    -0.166 F 
ATOM     19  F   UNL     1      -9.470  -8.077   0.128  0.00  0.00    -0.166 F 
ATOM     20  F   UNL     1      -9.044  -9.161  -1.838  0.00  0.00    -0.166 F 
ENDBRANCH  15  17
ENDBRANCH   9  11
ENDBRANCH   5   7
BRANCH   1  21
ATOM     21  N   UNL     1      -1.297  -4.740   0.798  0.00  0.00    -0.335 N 
ATOM     22  H   UNL     1      -2.040  -4.128   0.914  0.00  0.00    +0.147 HD
BRANCH  21  23
ATOM     23  C   UNL     1       0.069  -4.221   0.686  0.00  0.00    +0.198 C 
BRANCH  23  25
ATOM     24  N   UNL     1       1.194  -2.018   0.704  0.00  0.00    -0.284 N 
ATOM     25  C   UNL     1       0.044  -2.717   0.781  0.00  0.00    +0.234 C 
ATOM     26  O   UNL     1      -1.010  -2.136   0.928  0.00  0.00    -0.274 OA
ATOM     27  H   UNL     1       2.027  -2.475   0.512  0.00  0.00    +0.155 HD
BRANCH  24  32
ATOM     28  C   UNL     1       2.073   1.543   0.392  0.00  0.00    +0.003 A 
ATOM     29  C   UNL     1       1.181   2.119   1.274  0.00  0.00    +0.013 A 
ATOM     30  C   UNL     1       0.279   1.319   1.977  0.00  0.00    +0.038 A 
ATOM     31  C   UNL     1       0.284  -0.063   1.786  0.00  0.00    +0.036 A 
ATOM     32  C   UNL     1       1.184  -0.632   0.899  0.00  0.00    +0.034 A 
ATOM     33  C   UNL     1       2.078   0.174   0.203  0.00  0.00    +0.023 A 
BRANCH  30  34
ATOM     34  C   UNL     1      -0.677   1.933   2.922  0.00  0.00    +0.242 C 
ATOM     35  O   UNL     1      -1.462   1.234   3.534  0.00  0.00    -0.270 OA
ATOM     36  N   UNL     1      -0.680   3.268   3.106  0.00  0.00    -0.325 N 
ATOM     37  H   UNL     1      -0.054   3.826   2.618  0.00  0.00    +0.145 HD
ATOM     38  H   UNL     1      -1.308   3.671   3.726  0.00  0.00    +0.145 HD
ENDBRANCH  30  34
ENDBRANCH  24  32
ENDBRANCH  23  25
ENDBRANCH  21  23
ENDBRANCH   1  21
TORSDOF 8
