REMARK  Name = ZINC44714439
REMARK  7 active torsions:
REMARK  status: ('A' for Active; 'I' for Inactive)
REMARK    1  A    between atoms: C_1  and  C_2
REMARK    2  A    between atoms: C_3  and  C_14
REMARK    3  A    between atoms: C_6  and  C_12
REMARK    4  A    between atoms: C_14  and  C_15
REMARK    5  A    between atoms: C_15  and  N_16
REMARK    6  A    between atoms: C_17  and  C_19
REMARK    7  A    between atoms: C_30  and  C_32
REMARK                            x       y       z     vdW  Elec       q    Type
REMARK                         _______ _______ _______ _____ _____    ______ ____
ROOT
ATOM      1  C   UNL     1       2.555   1.090  -6.480  0.00  0.00    +0.100 C 
ATOM      2  C   UNL     1       1.772   2.417  -6.594  0.00  0.00    +0.121 C 
ATOM      3  N   UNL     1       2.809   3.472  -6.501  0.00  0.00    -0.296 N 
ATOM      4  C   UNL     1       3.951   2.936  -7.278  0.00  0.00    +0.115 C 
ATOM      5  C   UNL     1       3.984   1.434  -6.934  0.00  0.00    -0.004 C 
ATOM      6  C   UNL     1       4.358   0.617  -8.166  0.00  0.00    -0.010 C 
ATOM      7  C   UNL     1       5.803   0.933  -8.564  0.00  0.00    -0.082 C 
ATOM      8  N   UNL     1       6.701   0.612  -7.448  0.00  0.00    +0.379 N 
ATOM      9  C   UNL     1       6.394   1.468  -6.296  0.00  0.00    -0.082 C 
ATOM     10  C   UNL     1       4.974   1.174  -5.803  0.00  0.00    -0.010 C 
ATOM     11  C   UNL     1       2.730   4.653  -5.856  0.00  0.00    +0.249 C 
ATOM     12  O   UNL     1       1.755   4.911  -5.177  0.00  0.00    -0.270 OA
ATOM     13  H   UNL     1       6.579  -0.356  -7.188  0.00  0.00    -0.086 HD
ATOM     14  H   UNL     1       7.657   0.763  -7.733  0.00  0.00    -0.086 HD
ENDROOT
BRANCH  11  15
ATOM     15  C   UNL     1       3.827   5.633  -5.973  0.00  0.00    +0.072 A 
ATOM     16  C   UNL     1       4.531   5.758  -7.173  0.00  0.00    +0.019 A 
ATOM     17  C   UNL     1       5.555   6.673  -7.277  0.00  0.00    +0.039 A 
ATOM     18  C   UNL     1       5.889   7.472  -6.193  0.00  0.00    +0.126 A 
ATOM     19  C   UNL     1       5.197   7.355  -5.000  0.00  0.00    +0.077 A 
ATOM     20  C   UNL     1       4.164   6.444  -4.884  0.00  0.00    +0.138 A 
ATOM     21  F   UNL     1       3.485   6.334  -3.721  0.00  0.00    -0.205 F 
ATOM     22  F   UNL     1       6.894   8.368  -6.303  0.00  0.00    -0.205 F 
ENDBRANCH  11  15
BRANCH   1  24
ATOM     23  N   UNL     1       2.608  -0.717  -4.791  0.00  0.00    -0.315 N 
ATOM     24  C   UNL     1       2.560   0.605  -5.053  0.00  0.00    +0.218 C 
ATOM     25  O   UNL     1       2.522   1.403  -4.141  0.00  0.00    -0.275 OA
ATOM     26  H   UNL     1       2.639  -1.355  -5.521  0.00  0.00    +0.149 HD
BRANCH  23  27
ATOM     27  C   UNL     1       2.613  -1.188  -3.404  0.00  0.00    +0.109 C 
BRANCH  27  28
ATOM     28  C   UNL     1       2.671  -2.717  -3.386  0.00  0.00    +0.056 C 
BRANCH  28  31
ATOM     29  C   UNL     1       0.171  -3.401  -1.677  0.00  0.00    +0.063 C 
ATOM     30  C   UNL     1       1.601  -3.501  -1.213  0.00  0.00    +0.017 A 
ATOM     31  C   UNL     1       2.676  -3.203  -1.959  0.00  0.00    -0.018 A 
ATOM     32  C   UNL     1       3.856  -3.439  -1.122  0.00  0.00    +0.004 A 
ATOM     33  C   UNL     1       5.228  -3.313  -1.327  0.00  0.00    +0.029 A 
ATOM     34  C   UNL     1       6.105  -3.629  -0.294  0.00  0.00    +0.052 A 
ATOM     35  C   UNL     1       5.606  -4.070   0.940  0.00  0.00    +0.021 A 
ATOM     36  C   UNL     1       4.263  -4.195   1.143  0.00  0.00    +0.027 A 
ATOM     37  C   UNL     1       3.367  -3.884   0.122  0.00  0.00    +0.047 A 
ATOM     38  N   UNL     1       1.995  -3.904   0.034  0.00  0.00    -0.358 N 
ATOM     39  H   UNL     1       1.396  -4.168   0.749  0.00  0.00    +0.166 HD
BRANCH  34  40
ATOM     40  C   UNL     1       7.518  -3.504  -0.491  0.00  0.00    +0.099 C 
ATOM     41  N   UNL     1       8.638  -3.405  -0.648  0.00  0.00    -0.191 NA
ENDBRANCH  34  40
ENDBRANCH  28  31
ENDBRANCH  27  28
ENDBRANCH  23  27
ENDBRANCH   1  24
TORSDOF 6
