REMARK  Name = ZINC19229090
REMARK  8 active torsions:
REMARK  status: ('A' for Active; 'I' for Inactive)
REMARK    1  A    between atoms: C_3  and  C_6
REMARK    2  A    between atoms: N_8  and  C_9
REMARK    3  A    between atoms: C_9  and  C_11
REMARK    4  A    between atoms: C_9  and  N_15
REMARK    5  A    between atoms: N_15  and  C_16
REMARK    6  A    between atoms: C_16  and  N_18
REMARK    7  A    between atoms: N_18  and  C_19
REMARK    8  A    between atoms: C_22  and  C_25
REMARK                            x       y       z     vdW  Elec       q    Type
REMARK                         _______ _______ _______ _____ _____    ______ ____
ROOT
ATOM      1  N   UNL     1       5.809  -0.893   1.463  0.00  0.00    -0.305 N 
ATOM      2  H   UNL     1       5.969  -1.839   1.605  0.00  0.00    +0.150 HD
ENDROOT
BRANCH   1   3
ATOM      3  C   UNL     1       6.371   0.017   2.283  0.00  0.00    +0.136 C 
ATOM      4  S   UNL     1       6.088   1.687   2.032  0.00  0.00    -0.019 S 
BRANCH   3   5
ATOM      5  N   UNL     1       7.157  -0.388   3.300  0.00  0.00    -0.297 N 
ATOM      6  H   UNL     1       7.268  -1.334   3.480  0.00  0.00    +0.154 HD
BRANCH   5   7
ATOM      7  C   UNL     1       7.809   0.553   4.093  0.00  0.00    +0.033 A 
ATOM      8  C   UNL     1       7.114   1.663   4.566  0.00  0.00    +0.024 A 
ATOM      9  C   UNL     1       7.752   2.592   5.348  0.00  0.00    +0.017 A 
ATOM     10  C   UNL     1       9.104   2.422   5.670  0.00  0.00    +0.063 A 
ATOM     11  C   UNL     1       9.798   1.305   5.192  0.00  0.00    +0.017 A 
ATOM     12  C   UNL     1       9.152   0.379   4.416  0.00  0.00    +0.024 A 
BRANCH  10  13
ATOM     13  C   UNL     1       9.793   3.417   6.508  0.00  0.00    +0.387 C 
ATOM     14  O   UNL     1       9.184   4.393   6.924  0.00  0.00    -0.241 OA
ATOM     15  O   UNL     1      10.974   3.267   6.789  0.00  0.00    -0.241 OA
ENDBRANCH  10  13
ENDBRANCH   5   7
ENDBRANCH   3   5
ENDBRANCH   1   3
BRANCH   1  16
ATOM     16  C   UNL     1       4.955  -0.453   0.357  0.00  0.00    +0.211 C 
BRANCH  16  19
ATOM     17  C   UNL     1       2.747   0.314   1.045  0.00  0.00    +0.281 C 
ATOM     18  O   UNL     1       3.186   1.448   1.085  0.00  0.00    -0.267 OA
ATOM     19  N   UNL     1       3.551  -0.708   0.692  0.00  0.00    -0.287 N 
ATOM     20  H   UNL     1       3.202  -1.612   0.660  0.00  0.00    +0.151 HD
BRANCH  17  23
ATOM     21  C   UNL     1      -0.783   0.315   1.976  0.00  0.00    +0.042 A 
ATOM     22  C   UNL     1       0.423   0.998   1.752  0.00  0.00    +0.054 A 
ATOM     23  C   UNL     1       1.342   0.059   1.380  0.00  0.00    +0.189 A 
ATOM     24  O   UNL     1       0.732  -1.144   1.375  0.00  0.00    -0.458 OA
ATOM     25  C   UNL     1      -0.550  -0.994   1.734  0.00  0.00    +0.196 A 
ENDBRANCH  17  23
ENDBRANCH  16  19
BRANCH  16  26
ATOM     26  C   UNL     1       5.324  -1.225  -0.911  0.00  0.00    +0.225 C 
ATOM     27 CL   UNL     1       4.274  -0.684  -2.273  0.00  0.00    -0.080 Cl
ATOM     28 CL   UNL     1       7.051  -0.912  -1.324  0.00  0.00    -0.080 Cl
ATOM     29 CL   UNL     1       5.084  -2.990  -0.632  0.00  0.00    -0.080 Cl
ENDBRANCH  16  26
ENDBRANCH   1  16
TORSDOF 8
