REMARK  Name = ZINC37766989
REMARK  7 active torsions:
REMARK  status: ('A' for Active; 'I' for Inactive)
REMARK    1  A    between atoms: C_1  and  C_2
REMARK    2  A    between atoms: C_6  and  O_15
REMARK    3  A    between atoms: C_7  and  N_8
REMARK    4  A    between atoms: C_9  and  C_11
REMARK    5  A    between atoms: C_11  and  C_13
REMARK    6  A    between atoms: C_11  and  N_14
REMARK    7  A    between atoms: O_15  and  C_16
REMARK                            x       y       z     vdW  Elec       q    Type
REMARK                         _______ _______ _______ _____ _____    ______ ____
ROOT
ATOM      1  C   UNL     1       2.456  -0.158   0.949  0.00  0.00    +0.046 C 
ATOM      2  C   UNL     1       1.186  -0.799   0.451  0.00  0.00    -0.025 A 
ATOM      3  C   UNL     1       1.183  -1.488  -0.748  0.00  0.00    +0.020 A 
ATOM      4  C   UNL     1       0.019  -2.078  -1.207  0.00  0.00    +0.022 A 
ATOM      5  C   UNL     1      -1.147  -1.982  -0.468  0.00  0.00    +0.062 A 
ATOM      6  C   UNL     1      -1.151  -1.294   0.734  0.00  0.00    +0.142 A 
ATOM      7  C   UNL     1       0.022  -0.704   1.199  0.00  0.00    +0.079 A 
ATOM      8 BR   UNL     1       0.022  -3.017  -2.848  0.00  0.00    -0.050 Br
ENDROOT
BRANCH   7   9
ATOM      9  N   UNL     1       0.025  -0.011   2.418  0.00  0.00    -0.284 N 
ATOM     10  C   UNL     1       0.248  -0.675   3.569  0.00  0.00    +0.203 C 
ATOM     11  O   UNL     1       0.536  -1.853   3.545  0.00  0.00    -0.277 OA
ATOM     12  H   UNL     1      -0.133   0.945   2.432  0.00  0.00    +0.155 HD
BRANCH  10  13
ATOM     13  C   UNL     1       0.139   0.046   4.888  0.00  0.00    +0.010 C 
ATOM     14  C   UNL     1      -1.278   0.603   5.050  0.00  0.00    -0.005 C 
BRANCH  13  15
ATOM     15  N   UNL     1       0.425  -0.889   5.983  0.00  0.00    +0.385 N 
ATOM     16  H   UNL     1       1.359  -1.256   5.877  0.00  0.00    -0.089 HD
ATOM     17  H   UNL     1       0.352  -0.406   6.866  0.00  0.00    -0.089 HD
ATOM     18  H   UNL     1      -0.239  -1.649   5.960  0.00  0.00    -0.089 HD
ENDBRANCH  13  15
ENDBRANCH  10  13
ENDBRANCH   7   9
BRANCH   6  19
ATOM     19  O   UNL     1      -2.296  -1.198   1.460  0.00  0.00    -0.493 OA
ATOM     20  C   UNL     1      -3.460  -1.832   0.924  0.00  0.00    +0.277 C 
ENDBRANCH   6  19
TORSDOF 4
