REMARK  Name = ZINC63339798
REMARK  3 active torsions:
REMARK  status: ('A' for Active; 'I' for Inactive)
REMARK    1  A    between atoms: C_2  and  C_3
REMARK    2  A    between atoms: C_3  and  N_4
REMARK    3  A    between atoms: C_20  and  C_25
REMARK                            x       y       z     vdW  Elec       q    Type
REMARK                         _______ _______ _______ _____ _____    ______ ____
ROOT
ATOM      1  N   UNL     1       1.367  -1.676   1.111  0.00  0.00    -0.248 N 
ATOM      2  C   UNL     1       1.841  -1.363   2.336  0.00  0.00    +0.242 C 
ATOM      3  O   UNL     1       2.315  -0.305   2.689  0.00  0.00    -0.273 OA
ATOM      4  C   UNL     1       1.658  -2.609   3.175  0.00  0.00    +0.166 C 
ATOM      5  C   UNL     1       3.020  -3.086   3.708  0.00  0.00    +0.065 C 
ATOM      6  C   UNL     1       2.880  -4.565   3.979  0.00  0.00    -0.034 C 
ATOM      7  C   UNL     1       3.789  -5.474   4.316  0.00  0.00    -0.001 A 
ATOM      8  C   UNL     1       5.221  -5.354   4.632  0.00  0.00    +0.010 A 
ATOM      9  C   UNL     1       5.868  -6.513   4.927  0.00  0.00    +0.001 A 
ATOM     10  C   UNL     1       5.241  -7.763   4.938  0.00  0.00    +0.002 A 
ATOM     11  C   UNL     1       3.927  -7.964   4.667  0.00  0.00    +0.026 A 
ATOM     12  C   UNL     1       3.140  -6.820   4.348  0.00  0.00    +0.043 A 
ATOM     13  N   UNL     1       1.874  -6.720   4.069  0.00  0.00    -0.375 N 
ATOM     14  C   UNL     1       1.552  -5.304   3.879  0.00  0.00    +0.131 C 
ATOM     15  C   UNL     1       0.992  -5.038   2.475  0.00  0.00    +0.133 C 
ATOM     16  N   UNL     1       1.151  -3.600   2.204  0.00  0.00    -0.291 N 
ATOM     17  C   UNL     1       0.943  -2.946   1.054  0.00  0.00    +0.143 C 
ATOM     18  S   UNL     1       0.224  -3.650  -0.330  0.00  0.00    -0.018 S 
ATOM     19  H   UNL     1       1.249  -7.459   3.998  0.00  0.00    +0.160 HD
ENDROOT
BRANCH  15  20
ATOM     20  C   UNL     1      -0.472  -5.389   2.432  0.00  0.00    -0.021 A 
ATOM     21  C   UNL     1      -1.410  -4.501   2.925  0.00  0.00    +0.009 A 
ATOM     22  C   UNL     1      -2.755  -4.819   2.886  0.00  0.00    +0.050 A 
ATOM     23  C   UNL     1      -3.166  -6.029   2.353  0.00  0.00    +0.166 A 
ATOM     24  C   UNL     1      -2.222  -6.924   1.856  0.00  0.00    +0.167 A 
ATOM     25  C   UNL     1      -0.876  -6.597   1.893  0.00  0.00    +0.055 A 
ATOM     26  O   UNL     1      -2.872  -8.031   1.392  0.00  0.00    -0.453 OA
ATOM     27  C   UNL     1      -4.185  -7.981   1.980  0.00  0.00    +0.466 C 
ATOM     28  O   UNL     1      -4.408  -6.575   2.200  0.00  0.00    -0.453 OA
ENDBRANCH  15  20
BRANCH   1  29
ATOM     29  C   UNL     1       1.317  -0.740  -0.015  0.00  0.00    +0.142 C 
BRANCH  29  31
ATOM     30  C   UNL     1      -0.016   1.306   0.009  0.00  0.00    +0.005 C 
ATOM     31  C   UNL     1       0.002  -0.004   0.002  0.00  0.00    -0.015 C 
ENDBRANCH  29  31
ENDBRANCH   1  29
TORSDOF 3
