REMARK  Name = ZINC16635994
REMARK  12 active torsions:
REMARK  status: ('A' for Active; 'I' for Inactive)
REMARK    1  A    between atoms: C_1  and  C_2
REMARK    2  A    between atoms: C_4  and  C_30
REMARK    3  A    between atoms: C_5  and  N_9
REMARK    4  A    between atoms: C_6  and  C_8
REMARK    5  A    between atoms: C_10  and  C_12
REMARK    6  A    between atoms: C_12  and  N_13
REMARK    7  A    between atoms: C_14  and  C_16
REMARK    8  A    between atoms: C_16  and  N_57
REMARK    9  A    between atoms: C_17  and  N_57
REMARK   10  A    between atoms: C_18  and  C_19
REMARK   11  A    between atoms: C_18  and  N_57
REMARK   12  A    between atoms: N_21  and  C_22
REMARK                            x       y       z     vdW  Elec       q    Type
REMARK                         _______ _______ _______ _____ _____    ______ ____
ROOT
ATOM      1  N   UNL     1      -5.427   3.091  -5.196  0.00  0.00    -0.308 N 
ATOM      2  C   UNL     1      -6.616   3.666  -5.466  0.00  0.00    +0.197 C 
ATOM      3  O   UNL     1      -6.657   4.717  -6.069  0.00  0.00    -0.278 OA
ATOM      4  H   UNL     1      -5.394   2.250  -4.713  0.00  0.00    +0.149 HD
ENDROOT
BRANCH   1   5
ATOM      5  C   UNL     1      -4.186   3.735  -5.632  0.00  0.00    +0.200 C 
BRANCH   5   7
ATOM      6  N   UNL     1      -1.755   3.293  -5.505  0.00  0.00    -0.284 N 
ATOM      7  C   UNL     1      -3.008   2.894  -5.209  0.00  0.00    +0.234 C 
ATOM      8  O   UNL     1      -3.189   1.859  -4.603  0.00  0.00    -0.274 OA
ATOM      9  H   UNL     1      -1.609   4.142  -5.950  0.00  0.00    +0.155 HD
BRANCH   6  14
ATOM     10  C   UNL     1       2.662   0.004  -4.143  0.00  0.00    +0.044 C 
ATOM     11  C   UNL     1       1.489   0.877  -4.505  0.00  0.00    -0.050 A 
ATOM     12  C   UNL     1       0.391   0.329  -5.144  0.00  0.00    +0.008 A 
ATOM     13  C   UNL     1      -0.683   1.128  -5.481  0.00  0.00    -0.029 A 
ATOM     14  C   UNL     1      -0.666   2.482  -5.169  0.00  0.00    +0.039 A 
ATOM     15  C   UNL     1       0.438   3.029  -4.527  0.00  0.00    -0.029 A 
ATOM     16  C   UNL     1       1.511   2.225  -4.197  0.00  0.00    +0.008 A 
ATOM     17  C   UNL     1       0.463   4.498  -4.192  0.00  0.00    +0.045 C 
ATOM     18  C   UNL     1      -1.876   0.532  -6.183  0.00  0.00    +0.045 C 
ENDBRANCH   6  14
ENDBRANCH   5   7
ENDBRANCH   1   5
BRANCH   2  19
ATOM     19  C   UNL     1      -7.893   3.003  -5.017  0.00  0.00    +0.019 C 
BRANCH  19  21
ATOM     20  C   UNL     1      -9.048   5.111  -4.723  0.00  0.00    -0.095 C 
ATOM     21  N   UNL     1      -9.038   3.828  -5.457  0.00  0.00    +0.389 N 
ATOM     22  H   UNL     1      -8.944   4.019  -6.462  0.00  0.00    -0.081 HD
BRANCH  21  23
ATOM     23  C   UNL     1     -10.303   3.101  -5.223  0.00  0.00    +0.019 C 
BRANCH  23  24
ATOM     24  C   UNL     1     -11.429   3.861  -5.876  0.00  0.00    +0.201 C 
ATOM     25  O   UNL     1     -11.201   4.902  -6.457  0.00  0.00    -0.278 OA
ATOM     26  N   UNL     1     -12.688   3.385  -5.815  0.00  0.00    -0.285 N 
ATOM     27  H   UNL     1     -12.864   2.532  -5.389  0.00  0.00    +0.155 HD
BRANCH  26  28
ATOM     28  C   UNL     1     -13.743   4.122  -6.368  0.00  0.00    +0.070 A 
ATOM     29  C   UNL     1     -13.910   5.459  -6.030  0.00  0.00    +0.064 A 
ATOM     30  C   UNL     1     -14.950   6.185  -6.581  0.00  0.00    +0.022 A 
ATOM     31  C   UNL     1     -15.828   5.579  -7.460  0.00  0.00    +0.003 A 
ATOM     32  C   UNL     1     -15.668   4.247  -7.795  0.00  0.00    +0.022 A 
ATOM     33  C   UNL     1     -14.627   3.517  -7.251  0.00  0.00    +0.064 A 
ATOM     34 CL   UNL     1     -14.428   1.844  -7.672  0.00  0.00    -0.082 Cl
ATOM     35 CL   UNL     1     -12.811   6.220  -4.921  0.00  0.00    -0.082 Cl
ENDBRANCH  26  28
ENDBRANCH  23  24
ENDBRANCH  21  23
ENDBRANCH  19  21
ENDBRANCH   2  19
TORSDOF 8
