REMARK  Name = ZINC20617341
REMARK  7 active torsions:
REMARK  status: ('A' for Active; 'I' for Inactive)
REMARK    1  A    between atoms: C_1  and  C_2
REMARK    2  A    between atoms: C_5  and  N_8
REMARK    3  A    between atoms: C_10  and  C_22
REMARK    4  A    between atoms: C_13  and  C_20
REMARK    5  A    between atoms: C_16  and  C_19
REMARK    6  A    between atoms: C_20  and  O_21
REMARK    7  A    between atoms: N_24  and  C_25
REMARK                            x       y       z     vdW  Elec       q    Type
REMARK                         _______ _______ _______ _____ _____    ______ ____
ROOT
ATOM      1  N   UNL     1       2.322   5.928   0.383  0.00  0.00    -0.325 N 
ATOM      2  C   UNL     1       1.235   6.392  -0.194  0.00  0.00    +0.212 A 
ATOM      3  C   UNL     1      -0.020   5.614  -0.183  0.00  0.00    +0.098 A 
ATOM      4  C   UNL     1      -1.200   6.319  -0.280  0.00  0.00    +0.030 A 
ATOM      5  C   UNL     1      -1.104   7.777  -0.378  0.00  0.00    +0.027 A 
ATOM      6  C   UNL     1      -2.223   8.602  -0.212  0.00  0.00    +0.007 A 
ATOM      7  C   UNL     1      -2.055   9.967  -0.319  0.00  0.00    +0.117 A 
ATOM      8  N   UNL     1      -0.870  10.493  -0.571  0.00  0.00    -0.256 NA
ATOM      9  C   UNL     1       0.212   9.759  -0.736  0.00  0.00    +0.081 A 
ATOM     10  C   UNL     1       0.141   8.376  -0.648  0.00  0.00    +0.159 A 
ATOM     11  O   UNL     1       1.237   7.599  -0.816  0.00  0.00    -0.437 OA
ATOM     12  C   UNL     1       1.533  10.425  -1.022  0.00  0.00    +0.069 C 
ATOM     13  H   UNL     1       2.329   4.914   0.810  0.00  0.00    +0.169 HD
ENDROOT
BRANCH   1  18
ATOM     14  C   UNL     1       6.955   9.140   0.668  0.00  0.00    +0.044 C 
ATOM     15  C   UNL     1       5.718   8.282   0.592  0.00  0.00    -0.050 A 
ATOM     16  C   UNL     1       4.734   8.406   1.557  0.00  0.00    +0.005 A 
ATOM     17  C   UNL     1       3.599   7.625   1.494  0.00  0.00    +0.026 A 
ATOM     18  C   UNL     1       3.445   6.706   0.452  0.00  0.00    +0.042 A 
ATOM     19  C   UNL     1       4.445   6.582  -0.515  0.00  0.00    +0.026 A 
ATOM     20  C   UNL     1       5.572   7.375  -0.442  0.00  0.00    +0.005 A 
ENDBRANCH   1  18
BRANCH   3  21
ATOM     21  C   UNL     1      -0.011   4.144  -0.079  0.00  0.00    +0.253 C 
ATOM     22  O   UNL     1      -1.060   3.528  -0.073  0.00  0.00    -0.270 OA
ATOM     23  N   UNL     1       1.160   3.482   0.009  0.00  0.00    -0.280 N 
ATOM     24  H   UNL     1       2.105   4.041   0.077  0.00  0.00    +0.155 HD
BRANCH  23  25
ATOM     25  C   UNL     1       1.174   2.083   0.014  0.00  0.00    +0.052 A 
ATOM     26  C   UNL     1       0.146   1.379   0.627  0.00  0.00    +0.025 A 
ATOM     27  C   UNL     1       0.162  -0.002   0.630  0.00  0.00    +0.002 A 
ATOM     28  C   UNL     1       1.200  -0.685   0.023  0.00  0.00    +0.002 A 
ATOM     29  C   UNL     1       2.226   0.012  -0.589  0.00  0.00    +0.022 A 
ATOM     30  C   UNL     1       2.216   1.394  -0.595  0.00  0.00    +0.062 A 
ATOM     31 CL   UNL     1       3.505   2.269  -1.362  0.00  0.00    -0.082 Cl
ENDBRANCH  23  25
ENDBRANCH   3  21
BRANCH   6  32
ATOM     32  C   UNL     1      -3.580   8.013   0.076  0.00  0.00    +0.193 C 
BRANCH  32  33
ATOM     33  O   UNL     1      -4.540   9.065   0.199  0.00  0.00    -0.390 OA
ATOM     34  H   UNL     1      -5.592   8.826   0.411  0.00  0.00    +0.210 HD
ENDBRANCH  32  33
ENDBRANCH   6  32
TORSDOF 5
