REMARK  Name = ZINC36702571
REMARK  8 active torsions:
REMARK  status: ('A' for Active; 'I' for Inactive)
REMARK    1  A    between atoms: C_1  and  N_2
REMARK    2  A    between atoms: N_2  and  C_3
REMARK    3  A    between atoms: N_2  and  C_4
REMARK    4  A    between atoms: C_4  and  C_5
REMARK    5  A    between atoms: C_5  and  N_6
REMARK    6  A    between atoms: C_10  and  O_17
REMARK    7  A    between atoms: O_17  and  C_18
REMARK    8  A    between atoms: C_19  and  C_21
REMARK                            x       y       z     vdW  Elec       q    Type
REMARK                         _______ _______ _______ _____ _____    ______ ____
ROOT
ATOM      1  N   UNL     1       2.776  -0.569  -2.396  0.00  0.00    -0.248 N 
ATOM      2  C   UNL     1       2.744   0.183  -3.559  0.00  0.00    +0.168 A 
ATOM      3  N   UNL     1       3.354  -0.038  -4.699  0.00  0.00    -0.221 NA
ATOM      4  C   UNL     1       3.231   0.789  -5.761  0.00  0.00    +0.123 A 
ATOM      5  C   UNL     1       3.832   0.668  -7.040  0.00  0.00    +0.147 A 
ATOM      6  C   UNL     1       3.599   1.607  -8.016  0.00  0.00    +0.049 A 
ATOM      7  C   UNL     1       2.775   2.700  -7.787  0.00  0.00    +0.025 A 
ATOM      8  C   UNL     1       2.173   2.848  -6.551  0.00  0.00    +0.057 A 
ATOM      9  C   UNL     1       2.399   1.914  -5.567  0.00  0.00    +0.063 A 
ATOM     10  S   UNL     1       1.854   1.697  -3.891  0.00  0.00    -0.050 S 
ATOM     11 CL   UNL     1       1.138   4.207  -6.241  0.00  0.00    -0.082 Cl
ATOM     12  C   UNL     1       3.515  -1.695  -2.342  0.00  0.00    +0.253 C 
ATOM     13  O   UNL     1       4.221  -2.004  -3.281  0.00  0.00    -0.270 OA
ENDROOT
BRANCH  12  14
ATOM     14  C   UNL     1       3.468  -2.553  -1.140  0.00  0.00    +0.050 A 
ATOM     15  C   UNL     1       3.830  -2.035   0.106  0.00  0.00    +0.014 A 
ATOM     16  C   UNL     1       3.784  -2.841   1.224  0.00  0.00    +0.001 A 
ATOM     17  C   UNL     1       3.379  -4.161   1.114  0.00  0.00    +0.001 A 
ATOM     18  C   UNL     1       3.019  -4.680  -0.116  0.00  0.00    +0.015 A 
ATOM     19  C   UNL     1       3.055  -3.883  -1.243  0.00  0.00    +0.025 A 
ATOM     20  I   UNL     1       2.501  -4.669  -3.104  0.00  0.00    -0.043 I 
ENDBRANCH  12  14
BRANCH   5  21
ATOM     21  O   UNL     1       4.647  -0.388  -7.303  0.00  0.00    -0.493 OA
ATOM     22  C   UNL     1       5.222  -0.454  -8.609  0.00  0.00    +0.277 C 
ENDBRANCH   5  21
BRANCH   1  23
ATOM     23  C   UNL     1       2.005  -0.142  -1.226  0.00  0.00    +0.097 C 
BRANCH  23  24
ATOM     24  C   UNL     1       0.658  -0.867  -1.209  0.00  0.00    -0.060 C 
BRANCH  24  26
ATOM     25  C   UNL     1      -0.442   0.988  -0.159  0.00  0.00    -0.097 C 
ATOM     26  N   UNL     1      -0.114  -0.438  -0.035  0.00  0.00    +0.377 N 
ATOM     27  C   UNL     1      -1.354  -1.221   0.048  0.00  0.00    -0.097 C 
ATOM     28  H   UNL     1       0.433  -0.586   0.800  0.00  0.00    -0.083 HD
ENDBRANCH  24  26
ENDBRANCH  23  24
ENDBRANCH   1  23
TORSDOF 5
