REMARK  Name = ZINC09088227
REMARK  1 active torsions:
REMARK  status: ('A' for Active; 'I' for Inactive)
REMARK    1  A    between atoms: N_27  and  C_30
REMARK                            x       y       z     vdW  Elec       q    Type
REMARK                         _______ _______ _______ _____ _____    ______ ____
ROOT
ATOM      1  C   UNL     1      -0.016   1.358   0.009  0.00  0.00    +0.005 A 
ATOM      2  C   UNL     1       1.194   2.066   0.002  0.00  0.00    +0.018 A 
ATOM      3  C   UNL     1       2.370   1.401  -0.008  0.00  0.00    +0.096 A 
ATOM      4  N   UNL     1       2.401   0.038  -0.013  0.00  0.00    -0.269 N 
ATOM      5  C   UNL     1       1.237  -0.679  -0.017  0.00  0.00    +0.119 A 
ATOM      6  C   UNL     1       0.002  -0.004   0.002  0.00  0.00    +0.045 A 
ATOM      7  N   UNL     1       1.255  -2.009  -0.046  0.00  0.00    -0.329 N 
ATOM      8  C   UNL     1       2.402  -2.684  -0.066  0.00  0.00    +0.109 A 
ATOM      9  C   UNL     1       3.612  -1.994  -0.043  0.00  0.00    +0.057 A 
ATOM     10  C   UNL     1       3.589  -0.601  -0.013  0.00  0.00    +0.263 A 
ATOM     11  O   UNL     1       4.633   0.033   0.013  0.00  0.00    -0.267 OA
ATOM     12  C   UNL     1       4.926  -2.724  -0.056  0.00  0.00    +0.071 C 
ATOM     13  C   UNL     1       4.755  -4.157   0.452  0.00  0.00    +0.146 C 
ATOM     14  C   UNL     1       3.607  -4.825  -0.324  0.00  0.00    +0.099 C 
ATOM     15  N   UNL     1       2.403  -4.058  -0.111  0.00  0.00    -0.312 N 
ATOM     16  C   UNL     1       1.117  -4.818   0.066  0.00  0.00    +0.107 C 
ATOM     17  C   UNL     1       0.933  -5.519  -1.219  0.00  0.00    +0.019 C 
ATOM     18  C   UNL     1       2.077  -6.423  -1.638  0.00  0.00    +0.002 C 
ATOM     19  C   UNL     1       2.813  -5.497  -2.555  0.00  0.00    +0.002 C 
ATOM     20  C   UNL     1       4.086  -4.944  -1.819  0.00  0.00    +0.024 C 
ATOM     21  C   UNL     1       4.412  -4.137   1.914  0.00  0.00    +0.238 C 
ATOM     22  O   UNL     1       3.417  -3.547   2.277  0.00  0.00    -0.274 OA
ATOM     23  N   UNL     1       5.174  -4.751   2.830  0.00  0.00    -0.239 N 
ATOM     24  C   UNL     1       6.288  -5.418   2.494  0.00  0.00    +0.315 C 
ATOM     25  O   UNL     1       6.941  -5.959   3.364  0.00  0.00    -0.252 OA
ATOM     26  N   UNL     1       6.700  -5.503   1.220  0.00  0.00    -0.222 N 
ATOM     27  C   UNL     1       6.022  -4.930   0.216  0.00  0.00    +0.240 C 
ATOM     28  O   UNL     1       6.443  -5.038  -0.916  0.00  0.00    -0.274 OA
ATOM     29  H   UNL     1       4.912  -4.713   3.763  0.00  0.00    +0.159 HD
ATOM     30  H   UNL     1       0.416  -2.496  -0.052  0.00  0.00    +0.168 HD
ENDROOT
BRANCH  26  31
ATOM     31  C   UNL     1       7.928  -6.244   0.917  0.00  0.00    +0.086 C 
ATOM     32  C   UNL     1       7.770  -7.698   1.366  0.00  0.00    +0.023 C 
ATOM     33  C   UNL     1       9.051  -8.471   1.050  0.00  0.00    +0.002 C 
ATOM     34  C   UNL     1      10.228  -7.833   1.791  0.00  0.00    +0.000 C 
ATOM     35  C   UNL     1      10.386  -6.379   1.342  0.00  0.00    +0.002 C 
ATOM     36  C   UNL     1       9.104  -5.606   1.658  0.00  0.00    +0.023 C 
ENDBRANCH  26  31
TORSDOF 1
