REMARK  Name = ZINC02410072
REMARK  6 active torsions:
REMARK  status: ('A' for Active; 'I' for Inactive)
REMARK    1  A    between atoms: C_1  and  C_2
REMARK    2  A    between atoms: C_4  and  C_16
REMARK    3  A    between atoms: C_5  and  C_15
REMARK    4  A    between atoms: N_6  and  C_7
REMARK    5  A    between atoms: C_26  and  S_28
REMARK    6  A    between atoms: S_28  and  C_29
REMARK                            x       y       z     vdW  Elec       q    Type
REMARK                         _______ _______ _______ _____ _____    ______ ____
ROOT
ATOM      1  C   UNL     1       0.909   1.558  -0.546  0.00  0.00    +0.064 C 
ATOM      2  C   UNL     1       0.651   0.083  -0.384  0.00  0.00    +0.022 A 
ATOM      3  C   UNL     1       0.489  -0.794  -1.389  0.00  0.00    +0.031 A 
ATOM      4  C   UNL     1       0.265  -2.106  -0.765  0.00  0.00    -0.003 A 
ATOM      5  C   UNL     1       0.316  -1.889   0.602  0.00  0.00    +0.028 A 
ATOM      6  N   UNL     1       0.553  -0.578   0.809  0.00  0.00    -0.317 N 
ATOM      7  C   UNL     1       0.142  -2.937   1.671  0.00  0.00    +0.064 C 
ENDROOT
BRANCH   4   8
ATOM      8  C   UNL     1       0.043  -3.340  -1.427  0.00  0.00    +0.026 C 
ATOM      9  C   UNL     1      -0.648  -3.368  -2.621  0.00  0.00    +0.081 C 
ATOM     10  C   UNL     1      -0.758  -4.610  -3.435  0.00  0.00    +0.153 C 
ATOM     11  N   UNL     1      -0.811  -5.808  -2.913  0.00  0.00    -0.283 NA
ATOM     12  N   UNL     1      -0.798  -4.369  -4.824  0.00  0.00    -0.151 N 
ATOM     13  C   UNL     1      -1.224  -3.128  -5.241  0.00  0.00    +0.181 C 
ATOM     14  N   UNL     1      -1.513  -2.091  -4.495  0.00  0.00    -0.152 NA
ATOM     15  C   UNL     1      -1.325  -2.165  -3.160  0.00  0.00    +0.273 C 
ATOM     16  O   UNL     1      -1.697  -1.268  -2.420  0.00  0.00    -0.268 OA
ATOM     17  S   UNL     1      -1.250  -3.313  -7.004  0.00  0.00    -0.027 S 
ATOM     18  C   UNL     1      -0.602  -4.978  -7.075  0.00  0.00    +0.156 C 
ATOM     19  N   UNL     1      -0.457  -5.273  -5.807  0.00  0.00    -0.158 NA
ATOM     20  H   UNL     1      -0.883  -6.586  -3.489  0.00  0.00    +0.188 HD
BRANCH  18  21
ATOM     21  S   UNL     1      -0.249  -5.968  -8.489  0.00  0.00    -0.101 S 
ATOM     22  C   UNL     1       0.373  -7.523  -7.792  0.00  0.00    +0.092 C 
ENDBRANCH  18  21
ENDBRANCH   4   8
BRANCH   6  23
ATOM     23  C   UNL     1       0.676   0.023   2.069  0.00  0.00    +0.049 A 
ATOM     24  C   UNL     1       1.737  -0.312   2.899  0.00  0.00    +0.046 A 
ATOM     25  C   UNL     1       1.857   0.282   4.141  0.00  0.00    +0.044 A 
ATOM     26  C   UNL     1       0.919   1.211   4.558  0.00  0.00    +0.040 A 
ATOM     27  C   UNL     1      -0.139   1.547   3.733  0.00  0.00    +0.044 A 
ATOM     28  C   UNL     1      -0.260   0.960   2.487  0.00  0.00    +0.046 A 
ATOM     29 CL   UNL     1      -1.313   2.712   4.260  0.00  0.00    -0.083 Cl
ATOM     30 CL   UNL     1       3.184  -0.137   5.179  0.00  0.00    -0.083 Cl
ENDBRANCH   6  23
TORSDOF 3
