REMARK  Name = ZINC13130663
REMARK  7 active torsions:
REMARK  status: ('A' for Active; 'I' for Inactive)
REMARK    1  A    between atoms: C_6  and  N_7
REMARK    2  A    between atoms: N_7  and  C_8
REMARK    3  A    between atoms: C_9  and  C_26
REMARK    4  A    between atoms: C_10  and  N_25
REMARK    5  A    between atoms: C_11  and  C_13
REMARK    6  A    between atoms: N_15  and  C_16
REMARK    7  A    between atoms: N_28  and  C_29
REMARK                            x       y       z     vdW  Elec       q    Type
REMARK                         _______ _______ _______ _____ _____    ______ ____
ROOT
ATOM      1  C   UNL     1       3.076  -1.477  -0.307  0.00  0.00    +0.084 A 
ATOM      2  C   UNL     1       3.208  -2.869  -0.262  0.00  0.00    +0.087 A 
ATOM      3  C   UNL     1       2.201  -3.635  -0.845  0.00  0.00    +0.058 A 
ATOM      4  C   UNL     1       1.149  -2.950  -1.438  0.00  0.00    +0.097 A 
ATOM      5  S   UNL     1       1.583  -1.244  -1.154  0.00  0.00    -0.066 S 
ENDROOT
BRANCH   4   6
ATOM      6  C   UNL     1       0.015  -3.473  -2.095  0.00  0.00    +0.257 C 
ATOM      7  O   UNL     1      -0.126  -4.679  -2.200  0.00  0.00    -0.269 OA
ATOM      8  N   UNL     1      -0.912  -2.639  -2.606  0.00  0.00    -0.281 N 
ATOM      9  H   UNL     1      -0.837  -1.683  -2.462  0.00  0.00    +0.155 HD
BRANCH   8  10
ATOM     10  C   UNL     1      -1.981  -3.152  -3.350  0.00  0.00    +0.037 A 
ATOM     11  C   UNL     1      -1.806  -4.293  -4.122  0.00  0.00    +0.027 A 
ATOM     12  C   UNL     1      -2.861  -4.803  -4.854  0.00  0.00    +0.051 A 
ATOM     13  C   UNL     1      -4.094  -4.173  -4.827  0.00  0.00    +0.166 A 
ATOM     14  C   UNL     1      -4.272  -3.026  -4.058  0.00  0.00    +0.168 A 
ATOM     15  C   UNL     1      -3.216  -2.518  -3.321  0.00  0.00    +0.072 A 
ATOM     16  O   UNL     1      -5.562  -2.601  -4.200  0.00  0.00    -0.453 OA
ATOM     17  C   UNL     1      -6.057  -3.261  -5.380  0.00  0.00    +0.466 C 
ATOM     18  O   UNL     1      -5.274  -4.467  -5.451  0.00  0.00    -0.453 OA
ENDBRANCH   8  10
ENDBRANCH   4   6
BRANCH   2  19
ATOM     19  C   UNL     1       4.362  -3.499   0.384  0.00  0.00    +0.252 C 
ATOM     20  O   UNL     1       4.319  -3.781   1.567  0.00  0.00    -0.270 OA
ATOM     21  N   UNL     1       5.471  -3.768  -0.334  0.00  0.00    -0.281 N 
ATOM     22  H   UNL     1       5.531  -3.484  -1.259  0.00  0.00    +0.155 HD
BRANCH  21  23
ATOM     23  C   UNL     1       6.537  -4.457   0.257  0.00  0.00    +0.034 A 
ATOM     24  C   UNL     1       7.282  -5.359  -0.490  0.00  0.00    +0.026 A 
ATOM     25  C   UNL     1       8.337  -6.033   0.093  0.00  0.00    +0.040 A 
ATOM     26  C   UNL     1       8.645  -5.818   1.426  0.00  0.00    +0.124 A 
ATOM     27  C   UNL     1       7.899  -4.923   2.175  0.00  0.00    +0.040 A 
ATOM     28  C   UNL     1       6.847  -4.243   1.594  0.00  0.00    +0.026 A 
ATOM     29  F   UNL     1       9.673  -6.483   1.996  0.00  0.00    -0.205 F 
ENDBRANCH  21  23
ENDBRANCH   2  19
BRANCH   3  30
ATOM     30  N   UNL     1       2.251  -5.022  -0.838  0.00  0.00    -0.356 N 
ATOM     31  H   UNL     1       1.540  -5.534  -1.254  0.00  0.00    +0.142 HD
ATOM     32  H   UNL     1       2.996  -5.479  -0.418  0.00  0.00    +0.142 HD
ENDBRANCH   3  30
BRANCH   1  33
ATOM     33  N   UNL     1       3.929  -0.523   0.200  0.00  0.00    -0.308 N 
ATOM     34  H   UNL     1       4.782  -0.786   0.579  0.00  0.00    +0.153 HD
BRANCH  33  40
ATOM     35  C   UNL     1       4.532   1.804  -0.028  0.00  0.00    +0.026 A 
ATOM     36  C   UNL     1       4.170   3.136  -0.064  0.00  0.00    +0.040 A 
ATOM     37  C   UNL     1       2.844   3.499   0.105  0.00  0.00    +0.124 A 
ATOM     38  C   UNL     1       1.878   2.527   0.305  0.00  0.00    +0.040 A 
ATOM     39  C   UNL     1       2.235   1.194   0.337  0.00  0.00    +0.026 A 
ATOM     40  C   UNL     1       3.564   0.827   0.167  0.00  0.00    +0.032 A 
ATOM     41  F   UNL     1       2.492   4.803   0.074  0.00  0.00    -0.205 F 
ENDBRANCH  33  40
ENDBRANCH   1  33
TORSDOF 7
