REMARK  Name = ZINC43235168
REMARK  4 active torsions:
REMARK  status: ('A' for Active; 'I' for Inactive)
REMARK    1  A    between atoms: C_1  and  C_2
REMARK    2  A    between atoms: C_2  and  C_4
REMARK    3  A    between atoms: C_7  and  N_10
REMARK    4  A    between atoms: N_18  and  C_19
REMARK                            x       y       z     vdW  Elec       q    Type
REMARK                         _______ _______ _______ _____ _____    ______ ____
ROOT
ATOM      1  N   UNL     1      -4.981  -2.623  -0.342  0.00  0.00    -0.327 N 
ATOM      2  C   UNL     1      -6.217  -1.945  -0.757  0.00  0.00    +0.124 C 
ATOM      3  C   UNL     1      -6.840  -2.730  -1.918  0.00  0.00    +0.128 C 
ATOM      4  N   UNL     1      -6.902  -4.150  -1.546  0.00  0.00    -0.282 N 
ATOM      5  C   UNL     1      -5.665  -4.828  -1.131  0.00  0.00    +0.128 C 
ATOM      6  C   UNL     1      -5.041  -4.044   0.025  0.00  0.00    +0.124 C 
ATOM      7  C   UNL     1      -8.071  -4.819  -1.583  0.00  0.00    +0.307 C 
ATOM      8  O   UNL     1      -9.068  -4.277  -2.022  0.00  0.00    -0.252 OA
ATOM      9  N   UNL     1      -8.136  -6.088  -1.135  0.00  0.00    -0.267 N 
ATOM     10  H   UNL     1      -7.352  -6.505  -0.744  0.00  0.00    +0.156 HD
ENDROOT
BRANCH   9  11
ATOM     11  C   UNL     1      -9.335  -6.805  -1.233  0.00  0.00    +0.073 A 
ATOM     12  C   UNL     1     -10.549  -6.133  -1.234  0.00  0.00    +0.064 A 
ATOM     13  C   UNL     1     -11.732  -6.843  -1.332  0.00  0.00    +0.125 A 
ATOM     14  C   UNL     1     -11.706  -8.225  -1.428  0.00  0.00    +0.041 A 
ATOM     15  C   UNL     1     -10.498  -8.897  -1.426  0.00  0.00    +0.043 A 
ATOM     16  C   UNL     1      -9.312  -8.192  -1.335  0.00  0.00    +0.145 A 
ATOM     17  F   UNL     1      -8.132  -8.849  -1.338  0.00  0.00    -0.204 F 
ATOM     18  F   UNL     1     -12.915  -6.190  -1.333  0.00  0.00    -0.205 F 
ENDBRANCH   9  11
BRANCH   1  22
ATOM     19  C   UNL     1      -1.378  -0.562  -0.228  0.00  0.00    +0.017 A 
ATOM     20  C   UNL     1      -1.461  -1.862   0.288  0.00  0.00    +0.013 A 
ATOM     21  C   UNL     1      -2.648  -2.536   0.249  0.00  0.00    +0.024 A 
ATOM     22  C   UNL     1      -3.776  -1.933  -0.304  0.00  0.00    +0.030 A 
ATOM     23  C   UNL     1      -3.698  -0.641  -0.818  0.00  0.00    +0.024 A 
ATOM     24  C   UNL     1      -2.516   0.042  -0.778  0.00  0.00    +0.013 A 
BRANCH  19  26
ATOM     25  C   UNL     1       1.118  -0.486   0.405  0.00  0.00    +0.091 C 
ATOM     26  C   UNL     1      -0.105   0.166  -0.187  0.00  0.00    +0.160 C 
ATOM     27  O   UNL     1      -0.037   1.293  -0.629  0.00  0.00    -0.292 OA
ENDBRANCH  19  26
ENDBRANCH   1  22
TORSDOF 3
