REMARK  Name = ZINC02107367
REMARK  2 active torsions:
REMARK  status: ('A' for Active; 'I' for Inactive)
REMARK    1  A    between atoms: C_1  and  C_2
REMARK    2  A    between atoms: C_5  and  N_8
REMARK                            x       y       z     vdW  Elec       q    Type
REMARK                         _______ _______ _______ _____ _____    ______ ____
ROOT
ATOM      1  N   UNL     1       0.059  -4.172  -0.021  0.00  0.00    -0.210 N 
ATOM      2  C   UNL     1      -0.030  -4.891  -1.146  0.00  0.00    +0.228 C 
ATOM      3  O   UNL     1      -0.133  -4.433  -2.264  0.00  0.00    -0.275 OA
ATOM      4  C   UNL     1       0.019  -6.364  -0.807  0.00  0.00    +0.074 C 
ATOM      5  C   UNL     1       1.328  -6.969  -1.347  0.00  0.00    -0.054 C 
ATOM      6  C   UNL     1       1.831  -6.118  -2.527  0.00  0.00    -0.016 C 
ATOM      7  C   UNL     1       2.764  -5.061  -1.905  0.00  0.00    -0.020 C 
ATOM      8  C   UNL     1       2.732  -5.338  -0.389  0.00  0.00    -0.076 C 
ATOM      9  N   UNL     1       2.328  -6.783  -0.252  0.00  0.00    +0.395 N 
ATOM     10  C   UNL     1       1.559  -6.978   0.989  0.00  0.00    +0.053 C 
ATOM     11  C   UNL     1       0.158  -6.370   0.740  0.00  0.00    +0.089 C 
ATOM     12  C   UNL     1       0.172  -4.901   1.096  0.00  0.00    +0.229 C 
ATOM     13  O   UNL     1       0.269  -4.452   2.218  0.00  0.00    -0.275 OA
ATOM     14  C   UNL     1       1.464  -8.431   1.358  0.00  0.00    -0.026 A 
ATOM     15  C   UNL     1       0.955  -9.540   0.720  0.00  0.00    +0.019 A 
ATOM     16  C   UNL     1       1.014 -10.780   1.332  0.00  0.00    +0.018 A 
ATOM     17  C   UNL     1       1.588 -10.903   2.586  0.00  0.00    +0.017 A 
ATOM     18  C   UNL     1       2.099  -9.794   3.228  0.00  0.00    +0.024 A 
ATOM     19  C   UNL     1       2.043  -8.543   2.619  0.00  0.00    +0.036 A 
ATOM     20  N   UNL     1       2.485  -7.293   3.060  0.00  0.00    -0.286 N 
ATOM     21  C   UNL     1       2.238  -6.322   2.161  0.00  0.00    +0.212 C 
ATOM     22  O   UNL     1       2.511  -5.145   2.274  0.00  0.00    -0.277 OA
ATOM     23 BR   UNL     1       0.314 -12.304   0.457  0.00  0.00    -0.050 Br
ATOM     24  H   UNL     1       2.919  -7.143   3.914  0.00  0.00    +0.155 HD
ATOM     25  H   UNL     1       3.111  -7.415  -0.332  0.00  0.00    -0.079 HD
ENDROOT
BRANCH   1  30
ATOM     26  C   UNL     1      -0.016   1.503   0.009  0.00  0.00    +0.044 C 
ATOM     27  C   UNL     1       0.004  -0.004   0.001  0.00  0.00    -0.050 A 
ATOM     28  C   UNL     1       1.155  -0.681   0.361  0.00  0.00    +0.005 A 
ATOM     29  C   UNL     1       1.176  -2.062   0.355  0.00  0.00    +0.024 A 
ATOM     30  C   UNL     1       0.040  -2.771  -0.013  0.00  0.00    +0.044 A 
ATOM     31  C   UNL     1      -1.114  -2.088  -0.374  0.00  0.00    +0.024 A 
ATOM     32  C   UNL     1      -1.131  -0.707  -0.361  0.00  0.00    +0.005 A 
ENDBRANCH   1  30
TORSDOF 1
