REMARK  Name = ZINC54612076
REMARK  10 active torsions:
REMARK  status: ('A' for Active; 'I' for Inactive)
REMARK    1  A    between atoms: C_1  and  C_2
REMARK    2  A    between atoms: C_6  and  O_8
REMARK    3  A    between atoms: O_8  and  C_9
REMARK    4  A    between atoms: C_9  and  C_10
REMARK    5  A    between atoms: C_10  and  C_11
REMARK    6  A    between atoms: C_10  and  N_12
REMARK    7  A    between atoms: N_15  and  C_16
REMARK    8  A    between atoms: N_19  and  C_22
REMARK    9  A    between atoms: C_22  and  C_23
REMARK   10  A    between atoms: N_25  and  C_26
REMARK                            x       y       z     vdW  Elec       q    Type
REMARK                         _______ _______ _______ _____ _____    ______ ____
ROOT
ATOM      1  N   UNL     1      -1.170  -4.465   4.366  0.00  0.00    -0.294 N 
ATOM      2  C   UNL     1      -1.620  -5.248   5.367  0.00  0.00    +0.300 C 
ATOM      3  O   UNL     1      -0.986  -6.229   5.703  0.00  0.00    -0.253 OA
ATOM      4  N   UNL     1      -2.773  -4.943   5.995  0.00  0.00    -0.297 N 
ATOM      5  H   UNL     1      -1.676  -3.682   4.098  0.00  0.00    +0.151 HD
ATOM      6  H   UNL     1      -3.279  -4.160   5.726  0.00  0.00    +0.151 HD
ENDROOT
BRANCH   4   7
ATOM      7  C   UNL     1      -3.262  -5.794   7.082  0.00  0.00    +0.071 C 
ATOM      8  C   UNL     1      -4.069  -6.957   6.499  0.00  0.00    +0.004 C 
ATOM      9  C   UNL     1      -4.643  -7.796   7.643  0.00  0.00    -0.076 C 
ATOM     10  N   UNL     1      -5.517  -6.962   8.476  0.00  0.00    +0.385 N 
ATOM     11  C   UNL     1      -4.734  -5.886   9.096  0.00  0.00    -0.076 C 
ATOM     12  C   UNL     1      -4.164  -4.973   8.008  0.00  0.00    +0.004 C 
ATOM     13  H   UNL     1      -6.244  -6.560   7.903  0.00  0.00    -0.081 HD
BRANCH  10  14
ATOM     14  C   UNL     1      -6.126  -7.790   9.526  0.00  0.00    +0.019 C 
BRANCH  14  15
ATOM     15  C   UNL     1      -7.116  -6.963  10.306  0.00  0.00    +0.196 C 
ATOM     16  O   UNL     1      -7.297  -5.800  10.015  0.00  0.00    -0.278 OA
ATOM     17  N   UNL     1      -7.801  -7.518  11.325  0.00  0.00    -0.320 N 
ATOM     18  C   UNL     1      -8.764  -6.714  12.083  0.00  0.00    +0.128 C 
ATOM     19  H   UNL     1      -7.657  -8.448  11.557  0.00  0.00    +0.148 HD
ENDBRANCH  14  15
ENDBRANCH  10  14
ENDBRANCH   4   7
BRANCH   1  20
ATOM     20  C   UNL     1       0.083  -4.796   3.683  0.00  0.00    +0.109 C 
ATOM     21  C   UNL     1       1.260  -4.216   4.470  0.00  0.00    +0.031 C 
BRANCH  20  22
ATOM     22  C   UNL     1       0.069  -4.202   2.274  0.00  0.00    +0.251 C 
BRANCH  22  23
ATOM     23  O   UNL     1       0.050  -2.776   2.358  0.00  0.00    -0.490 OA
BRANCH  23  29
ATOM     24  C   UNL     1      -0.018   1.503   0.010  0.00  0.00    +0.044 C 
ATOM     25  C   UNL     1       0.002  -0.004   0.002  0.00  0.00    -0.047 A 
ATOM     26  C   UNL     1       0.006  -0.688  -1.200  0.00  0.00    +0.003 A 
ATOM     27  C   UNL     1       0.024  -2.071  -1.211  0.00  0.00    +0.004 A 
ATOM     28  C   UNL     1       0.039  -2.772  -0.020  0.00  0.00    +0.045 A 
ATOM     29  C   UNL     1       0.035  -2.088   1.186  0.00  0.00    +0.121 A 
ATOM     30  C   UNL     1       0.023  -0.700   1.195  0.00  0.00    +0.049 A 
ENDBRANCH  23  29
ENDBRANCH  22  23
ENDBRANCH  20  22
ENDBRANCH   1  20
TORSDOF 7
