REMARK  Name = ZINC39355840
REMARK  10 active torsions:
REMARK  status: ('A' for Active; 'I' for Inactive)
REMARK    1  A    between atoms: C_1  and  C_2
REMARK    2  A    between atoms: C_5  and  C_8
REMARK    3  A    between atoms: C_8  and  O_9
REMARK    4  A    between atoms: O_9  and  C_10
REMARK    5  A    between atoms: C_14  and  C_16
REMARK    6  A    between atoms: C_16  and  C_18
REMARK    7  A    between atoms: C_16  and  C_25
REMARK    8  A    between atoms: C_19  and  C_24
REMARK    9  A    between atoms: C_26  and  C_32
REMARK   10  A    between atoms: C_29  and  O_31
REMARK                            x       y       z     vdW  Elec       q    Type
REMARK                         _______ _______ _______ _____ _____    ______ ____
ROOT
ATOM      1  C   UNL     1       4.604  -8.660  -0.209  0.00  0.00    +0.088 C 
ENDROOT
BRANCH   1   2
ATOM      2  C   UNL     1       4.923  -9.386  -1.491  0.00  0.00    +0.052 A 
ATOM      3  C   UNL     1       4.311  -9.175  -2.731  0.00  0.00    +0.068 A 
ATOM      4  N   UNL     1       4.853  -9.989  -3.600  0.00  0.00    -0.176 NA
ATOM      5  N   UNL     1       5.831 -10.748  -2.943  0.00  0.00    -0.243 N 
ATOM      6  C   UNL     1       5.861 -10.357  -1.650  0.00  0.00    +0.271 A 
ATOM      7  O   UNL     1       6.678 -10.848  -0.683  0.00  0.00    -0.266 OA
ATOM      8  C   UNL     1       3.214  -8.182  -3.016  0.00  0.00    +0.068 C 
ATOM      9  H   UNL     1       6.390 -11.430  -3.346  0.00  0.00    +0.192 HD
ENDBRANCH   1   2
BRANCH   1  14
ATOM     10  C   UNL     1       1.292  -6.861   0.053  0.00  0.00    +0.121 A 
ATOM     11  C   UNL     1       0.399  -7.921  -0.002  0.00  0.00    +0.045 A 
ATOM     12  C   UNL     1       0.870  -9.214  -0.124  0.00  0.00    +0.004 A 
ATOM     13  C   UNL     1       2.230  -9.452  -0.192  0.00  0.00    +0.005 A 
ATOM     14  C   UNL     1       3.122  -8.397  -0.136  0.00  0.00    -0.032 A 
ATOM     15  C   UNL     1       2.656  -7.102  -0.020  0.00  0.00    +0.050 A 
BRANCH  10  16
ATOM     16  O   UNL     1       0.831  -5.588   0.173  0.00  0.00    -0.487 OA
BRANCH  16  17
ATOM     17  C   UNL     1      -0.586  -5.415   0.243  0.00  0.00    +0.264 C 
BRANCH  17  22
ATOM     18  C   UNL     1      -1.820   0.208   0.741  0.00  0.00    +0.044 C 
ATOM     19  C   UNL     1      -1.498  -1.258   0.611  0.00  0.00    -0.050 A 
ATOM     20  C   UNL     1      -1.397  -1.835  -0.641  0.00  0.00    +0.004 A 
ATOM     21  C   UNL     1      -1.101  -3.180  -0.760  0.00  0.00    +0.007 A 
ATOM     22  C   UNL     1      -0.907  -3.948   0.373  0.00  0.00    -0.010 A 
ATOM     23  C   UNL     1      -1.008  -3.371   1.625  0.00  0.00    +0.007 A 
ATOM     24  C   UNL     1      -1.299  -2.025   1.744  0.00  0.00    +0.004 A 
ENDBRANCH  17  22
ENDBRANCH  16  17
ENDBRANCH  10  16
ENDBRANCH   1  14
BRANCH   1  25
ATOM     25  C   UNL     1       5.023  -9.508   0.965  0.00  0.00    +0.017 C 
ATOM     26  C   UNL     1       5.998  -9.270   1.844  0.00  0.00    +0.065 C 
ATOM     27  N   UNL     1       6.072 -10.262   2.759  0.00  0.00    -0.156 NA
ATOM     28  N   UNL     1       5.246 -11.165   2.603  0.00  0.00    -0.151 NA
ATOM     29  C   UNL     1       4.428 -10.826   1.426  0.00  0.00    +0.284 C 
ATOM     30  C   UNL     1       6.896  -8.060   1.820  0.00  0.00    +0.067 C 
BRANCH  29  31
ATOM     31  O   UNL     1       4.567 -11.825   0.413  0.00  0.00    -0.366 OA
ATOM     32  H   UNL     1       4.203 -12.687   0.658  0.00  0.00    +0.212 HD
ENDBRANCH  29  31
ENDBRANCH   1  25
TORSDOF 7
