REMARK  Name = ZINC32634536
REMARK  6 active torsions:
REMARK  status: ('A' for Active; 'I' for Inactive)
REMARK    1  A    between atoms: C_1  and  C_2
REMARK    2  A    between atoms: C_2  and  C_3
REMARK    3  A    between atoms: C_2  and  C_4
REMARK    4  A    between atoms: C_2  and  C_5
REMARK    5  A    between atoms: C_5  and  N_7
REMARK    6  A    between atoms: N_9  and  C_20
REMARK                            x       y       z     vdW  Elec       q    Type
REMARK                         _______ _______ _______ _____ _____    ______ ____
ROOT
ATOM      1  N   UNL     1       1.673  -2.135  -1.388  0.00  0.00    -0.158 NA
ATOM      2  C   UNL     1       1.546  -2.452  -2.671  0.00  0.00    +0.154 C 
ATOM      3  N   UNL     1       1.634  -1.597  -3.718  0.00  0.00    -0.276 N 
ATOM      4  C   UNL     1       1.430  -2.085  -5.071  0.00  0.00    +0.116 C 
ATOM      5  C   UNL     1       0.272  -1.297  -5.726  0.00  0.00    +0.190 C 
ATOM      6  S   UNL     1      -0.535  -2.599  -6.754  0.00  0.00    -0.028 S 
ATOM      7  O   UNL     1       0.169  -2.734  -7.981  0.00  0.00    -0.174 OA
ATOM      8  O   UNL     1      -1.940  -2.386  -6.766  0.00  0.00    -0.174 OA
ATOM      9  C   UNL     1      -0.143  -4.037  -5.664  0.00  0.00    +0.182 C 
ATOM     10  C   UNL     1       1.204  -3.602  -5.080  0.00  0.00    +0.097 C 
ATOM     11  S   UNL     1       1.254  -3.983  -3.288  0.00  0.00    -0.086 S 
ENDROOT
BRANCH   3  12
ATOM     12  C   UNL     1       1.920  -0.246  -3.496  0.00  0.00    +0.037 A 
ATOM     13  C   UNL     1       3.221   0.222  -3.635  0.00  0.00    +0.023 A 
ATOM     14  C   UNL     1       3.501   1.556  -3.416  0.00  0.00    +0.003 A 
ATOM     15  C   UNL     1       2.489   2.427  -3.058  0.00  0.00    +0.015 A 
ATOM     16  C   UNL     1       1.192   1.965  -2.919  0.00  0.00    +0.020 A 
ATOM     17  C   UNL     1       0.904   0.632  -3.143  0.00  0.00    +0.038 A 
ATOM     18 BR   UNL     1      -0.189   3.160  -2.429  0.00  0.00    -0.050 Br
ENDBRANCH   3  12
BRANCH   1  19
ATOM     19  C   UNL     1       1.741  -0.858  -1.022  0.00  0.00    +0.244 C 
ATOM     20  O   UNL     1       2.619  -0.144  -1.465  0.00  0.00    -0.273 OA
BRANCH  19  22
ATOM     21  C   UNL     1       0.915   1.219   0.052  0.00  0.00    +0.020 C 
ATOM     22  C   UNL     1       0.729  -0.296  -0.057  0.00  0.00    +0.041 C 
ATOM     23  C   UNL     1       0.927  -0.934   1.319  0.00  0.00    +0.020 C 
ATOM     24  C   UNL     1      -0.682  -0.602  -0.563  0.00  0.00    +0.020 C 
ENDBRANCH  19  22
ENDBRANCH   1  19
TORSDOF 3
