REMARK  Name = ZINC16556813
REMARK  11 active torsions:
REMARK  status: ('A' for Active; 'I' for Inactive)
REMARK    1  A    between atoms: C_1  and  C_2
REMARK    2  A    between atoms: C_2  and  N_3
REMARK    3  A    between atoms: N_3  and  C_4
REMARK    4  A    between atoms: N_3  and  C_18
REMARK    5  A    between atoms: C_4  and  C_5
REMARK    6  A    between atoms: N_7  and  C_8
REMARK    7  A    between atoms: C_11  and  N_14
REMARK    8  A    between atoms: C_15  and  C_17
REMARK    9  A    between atoms: C_18  and  C_20
REMARK   10  A    between atoms: C_18  and  C_21
REMARK   11  A    between atoms: N_23  and  C_24
REMARK                            x       y       z     vdW  Elec       q    Type
REMARK                         _______ _______ _______ _____ _____    ______ ____
ROOT
ATOM      1  N   UNL     1      -1.882  -0.455  -0.423  0.00  0.00    +0.393 N 
ATOM      2  H   UNL     1      -2.106   0.179   0.329  0.00  0.00    -0.080 HD
ENDROOT
BRANCH   1   4
ATOM      3  C   UNL     1      -0.106  -1.316  -1.872  0.00  0.00    -0.017 C 
ATOM      4  C   UNL     1      -0.432  -0.447  -0.656  0.00  0.00    -0.081 C 
ENDBRANCH   1   4
BRANCH   1   5
ATOM      5  C   UNL     1      -2.313  -1.812  -0.064  0.00  0.00    +0.017 C 
ATOM      6  C   UNL     1      -3.832  -1.834   0.118  0.00  0.00    -0.004 C 
BRANCH   5   7
ATOM      7  C   UNL     1      -1.647  -2.227   1.223  0.00  0.00    +0.203 C 
ATOM      8  O   UNL     1      -1.034  -1.411   1.879  0.00  0.00    -0.277 OA
ATOM      9  N   UNL     1      -1.733  -3.503   1.646  0.00  0.00    -0.286 N 
ATOM     10  H   UNL     1      -2.159  -4.172   1.087  0.00  0.00    +0.155 HD
BRANCH   9  11
ATOM     11  C   UNL     1      -1.208  -3.864   2.888  0.00  0.00    +0.041 A 
ATOM     12  C   UNL     1      -1.067  -2.922   3.884  0.00  0.00    +0.024 A 
ATOM     13  C   UNL     1      -0.545  -3.271   5.125  0.00  0.00    +0.002 A 
ATOM     14  C   UNL     1      -0.161  -4.550   5.392  0.00  0.00    +0.008 A 
ATOM     15  C   UNL     1      -0.289  -5.541   4.405  0.00  0.00    -0.016 A 
ATOM     16  C   UNL     1      -0.823  -5.199   3.138  0.00  0.00    +0.003 A 
ATOM     17  C   UNL     1      -0.955  -6.191   2.154  0.00  0.00    +0.010 A 
ATOM     18  C   UNL     1      -0.572  -7.468   2.430  0.00  0.00    +0.001 A 
ATOM     19  C   UNL     1      -0.052  -7.807   3.677  0.00  0.00    +0.001 A 
ATOM     20  C   UNL     1       0.100  -6.869   4.651  0.00  0.00    +0.008 A 
ENDBRANCH   9  11
ENDBRANCH   5   7
ENDBRANCH   1   5
BRANCH   1  21
ATOM     21  C   UNL     1      -2.577  -0.028  -1.645  0.00  0.00    +0.020 C 
BRANCH  21  22
ATOM     22  C   UNL     1      -2.271   1.422  -1.917  0.00  0.00    +0.201 C 
ATOM     23  O   UNL     1      -1.505   2.026  -1.196  0.00  0.00    -0.278 OA
ATOM     24  N   UNL     1      -2.848   2.049  -2.961  0.00  0.00    -0.287 N 
ATOM     25  H   UNL     1      -3.518   1.590  -3.492  0.00  0.00    +0.155 HD
BRANCH  24  26
ATOM     26  C   UNL     1      -2.481   3.362  -3.280  0.00  0.00    +0.033 A 
ATOM     27  C   UNL     1      -3.428   4.247  -3.777  0.00  0.00    +0.025 A 
ATOM     28  C   UNL     1      -3.066   5.542  -4.092  0.00  0.00    +0.025 A 
ATOM     29  C   UNL     1      -1.754   5.959  -3.911  0.00  0.00    +0.033 A 
ATOM     30  C   UNL     1      -0.806   5.074  -3.414  0.00  0.00    +0.025 A 
ATOM     31  C   UNL     1      -1.170   3.781  -3.094  0.00  0.00    +0.025 A 
BRANCH  29  32
ATOM     32  N   UNL     1      -1.386   7.272  -4.231  0.00  0.00    -0.286 N 
ATOM     33  C   UNL     1      -0.160   7.526  -4.729  0.00  0.00    +0.214 C 
ATOM     34  O   UNL     1       0.590   6.610  -4.991  0.00  0.00    -0.276 OA
ATOM     35  C   UNL     1       0.279   8.949  -4.961  0.00  0.00    +0.109 C 
ATOM     36  H   UNL     1      -2.014   7.999  -4.093  0.00  0.00    +0.155 HD
ENDBRANCH  29  32
ENDBRANCH  24  26
ENDBRANCH  21  22
ENDBRANCH   1  21
TORSDOF 8
