REMARK  Name = ZINC61629780
REMARK  2 active torsions:
REMARK  status: ('A' for Active; 'I' for Inactive)
REMARK    1  A    between atoms: C_8  and  N_15
REMARK    2  A    between atoms: C_10  and  C_12
REMARK                            x       y       z     vdW  Elec       q    Type
REMARK                         _______ _______ _______ _____ _____    ______ ____
ROOT
ATOM      1  C   UNL     1      -0.012   1.349  -0.307  0.00  0.00    +0.017 A 
ATOM      2  C   UNL     1       1.174   2.079  -0.310  0.00  0.00    +0.018 A 
ATOM      3  C   UNL     1       2.382   1.456  -0.221  0.00  0.00    +0.044 A 
ATOM      4  C   UNL     1       2.439   0.054  -0.123  0.00  0.00    +0.088 A 
ATOM      5  C   UNL     1       1.232  -0.684  -0.120  0.00  0.00    +0.036 A 
ATOM      6  C   UNL     1       0.005  -0.011  -0.214  0.00  0.00    +0.029 A 
ATOM      7 BR   UNL     1      -1.616  -0.984  -0.211  0.00  0.00    -0.050 Br
ATOM      8  C   UNL     1       1.293  -2.094  -0.021  0.00  0.00    +0.037 A 
ATOM      9  C   UNL     1       2.544  -2.685   0.068  0.00  0.00    +0.052 A 
ATOM     10  C   UNL     1       3.682  -1.890   0.058  0.00  0.00    +0.109 A 
ATOM     11  N   UNL     1       3.612  -0.582  -0.034  0.00  0.00    -0.245 NA
ATOM     12 BR   UNL     1       3.977   2.473  -0.229  0.00  0.00    -0.048 Br
ENDROOT
BRANCH  10  13
ATOM     13  C   UNL     1       5.035  -2.547   0.155  0.00  0.00    +0.390 C 
ATOM     14  F   UNL     1       5.929  -1.680   0.792  0.00  0.00    -0.202 F 
ATOM     15  F   UNL     1       4.926  -3.730   0.893  0.00  0.00    -0.202 F 
ENDBRANCH  10  13
BRANCH   8  16
ATOM     16  N   UNL     1       0.138  -2.861  -0.013  0.00  0.00    -0.357 N 
ATOM     17  H   UNL     1      -0.540  -2.724  -0.694  0.00  0.00    +0.142 HD
ATOM     18  H   UNL     1       0.007  -3.534   0.672  0.00  0.00    +0.142 HD
ENDBRANCH   8  16
TORSDOF 2
