REMARK  Name = ZINC65097815
REMARK  4 active torsions:
REMARK  status: ('A' for Active; 'I' for Inactive)
REMARK    1  A    between atoms: C_1  and  C_2
REMARK    2  A    between atoms: C_5  and  C_8
REMARK    3  A    between atoms: C_10  and  C_13
REMARK    4  A    between atoms: N_22  and  C_25
REMARK                            x       y       z     vdW  Elec       q    Type
REMARK                         _______ _______ _______ _____ _____    ______ ____
ROOT
ATOM      1  C   UNL     1       0.102  -7.467   1.617  0.00  0.00    +0.055 A 
ATOM      2  C   UNL     1       0.066  -7.281   3.006  0.00  0.00    +0.018 A 
ATOM      3  C   UNL     1       0.081  -8.386   3.814  0.00  0.00    +0.042 A 
ATOM      4  C   UNL     1       0.132  -9.653   3.238  0.00  0.00    +0.099 A 
ATOM      5  N   UNL     1       0.165  -9.802   1.921  0.00  0.00    -0.349 N 
ATOM      6  C   UNL     1       0.146  -8.765   1.108  0.00  0.00    +0.097 A 
ATOM      7  N   UNL     1       0.147 -10.775   4.053  0.00  0.00    -0.314 N 
ATOM      8  C   UNL     1       0.067 -12.123   3.472  0.00  0.00    +0.125 C 
ATOM      9  C   UNL     1       1.269 -12.940   3.961  0.00  0.00    +0.124 C 
ATOM     10  N   UNL     1       1.367 -12.803   5.421  0.00  0.00    -0.325 N 
ATOM     11  C   UNL     1       1.448 -11.455   6.001  0.00  0.00    +0.124 C 
ATOM     12  C   UNL     1       0.252 -10.638   5.512  0.00  0.00    +0.125 C 
ATOM     13  H   UNL     1       0.201 -10.696   1.546  0.00  0.00    +0.167 HD
ENDROOT
BRANCH  10  14
ATOM     14  C   UNL     1       1.383 -13.934   6.243  0.00  0.00    +0.065 A 
ATOM     15  C   UNL     1       2.590 -14.532   6.579  0.00  0.00    +0.026 A 
ATOM     16  C   UNL     1       2.603 -15.650   7.391  0.00  0.00    +0.002 A 
ATOM     17  C   UNL     1       1.416 -16.173   7.870  0.00  0.00    +0.003 A 
ATOM     18  C   UNL     1       0.211 -15.581   7.538  0.00  0.00    +0.040 A 
ATOM     19  C   UNL     1       0.191 -14.458   6.730  0.00  0.00    +0.144 A 
ATOM     20  F   UNL     1      -0.985 -13.876   6.410  0.00  0.00    -0.204 F 
ENDBRANCH  10  14
BRANCH   1  23
ATOM     21  C   UNL     1       0.046  -4.257  -0.021  0.00  0.00    +0.202 A 
ATOM     22  N   UNL     1       0.047  -5.043   1.066  0.00  0.00    -0.187 NA
ATOM     23  C   UNL     1       0.087  -6.306   0.705  0.00  0.00    +0.260 A 
ATOM     24  O   UNL     1       0.114  -6.358  -0.639  0.00  0.00    -0.332 OA
ATOM     25  N   UNL     1       0.082  -5.013  -1.092  0.00  0.00    -0.056 NA
BRANCH  21  30
ATOM     26  C   UNL     1      -0.112   1.501   0.010  0.00  0.00    +0.044 C 
ATOM     27  C   UNL     1      -0.071  -0.005   0.002  0.00  0.00    -0.050 A 
ATOM     28  C   UNL     1      -0.034  -0.687  -1.201  0.00  0.00    +0.004 A 
ATOM     29  C   UNL     1       0.004  -2.067  -1.215  0.00  0.00    +0.012 A 
ATOM     30  C   UNL     1       0.006  -2.773  -0.013  0.00  0.00    +0.022 A 
ATOM     31  C   UNL     1      -0.031  -2.081   1.195  0.00  0.00    +0.012 A 
ATOM     32  C   UNL     1      -0.063  -0.701   1.197  0.00  0.00    +0.004 A 
ENDBRANCH  21  30
ENDBRANCH   1  23
TORSDOF 3
