REMARK  Name = ZINC40728002
REMARK  4 active torsions:
REMARK  status: ('A' for Active; 'I' for Inactive)
REMARK    1  A    between atoms: C_3  and  N_8
REMARK    2  A    between atoms: C_15  and  N_33
REMARK    3  A    between atoms: C_16  and  N_20
REMARK    4  A    between atoms: N_23  and  C_26
REMARK                            x       y       z     vdW  Elec       q    Type
REMARK                         _______ _______ _______ _____ _____    ______ ____
ROOT
ATOM      1  N   UNL     1       2.997   3.122   1.273  0.00  0.00    -0.327 N 
ATOM      2  C   UNL     1       3.610   3.601   2.520  0.00  0.00    +0.124 C 
ATOM      3  C   UNL     1       5.049   3.076   2.592  0.00  0.00    +0.125 C 
ATOM      4  N   UNL     1       5.719   3.366   1.317  0.00  0.00    -0.311 N 
ATOM      5  C   UNL     1       5.106   2.887   0.070  0.00  0.00    +0.125 C 
ATOM      6  C   UNL     1       3.670   3.407  -0.002  0.00  0.00    +0.124 C 
ATOM      7  C   UNL     1       6.911   4.080   1.290  0.00  0.00    +0.147 A 
ATOM      8  C   UNL     1       8.137   3.414   1.265  0.00  0.00    +0.106 A 
ATOM      9  C   UNL     1       9.303   4.180   1.239  0.00  0.00    +0.147 A 
ATOM     10  N   UNL     1       9.203   5.507   1.240  0.00  0.00    -0.219 NA
ATOM     11  C   UNL     1       8.025   6.097   1.265  0.00  0.00    +0.225 A 
ATOM     12  N   UNL     1       6.900   5.411   1.284  0.00  0.00    -0.219 NA
ENDROOT
BRANCH   1  15
ATOM     13  C   UNL     1      -0.014   1.345   0.140  0.00  0.00    +0.003 A 
ATOM     14  C   UNL     1       1.170   2.056   0.111  0.00  0.00    +0.023 A 
ATOM     15  C   UNL     1       1.799   2.404   1.299  0.00  0.00    +0.031 A 
ATOM     16  C   UNL     1       1.235   2.036   2.514  0.00  0.00    +0.043 A 
ATOM     17  C   UNL     1       0.050   1.325   2.536  0.00  0.00    +0.043 A 
ATOM     18  C   UNL     1      -0.574   0.980   1.350  0.00  0.00    +0.020 A 
ATOM     19 CL   UNL     1      -0.656   0.863   4.053  0.00  0.00    -0.083 Cl
ENDBRANCH   1  15
BRANCH   9  20
ATOM     20  N   UNL     1      10.550   3.566   1.213  0.00  0.00    -0.311 N 
ATOM     21  C   UNL     1      11.149   3.142  -0.060  0.00  0.00    +0.125 C 
ATOM     22  C   UNL     1      12.535   3.784  -0.188  0.00  0.00    +0.124 C 
ATOM     23  N   UNL     1      13.279   3.549   1.057  0.00  0.00    -0.327 N 
ATOM     24  C   UNL     1      12.680   3.973   2.331  0.00  0.00    +0.124 C 
ATOM     25  C   UNL     1      11.296   3.335   2.458  0.00  0.00    +0.125 C 
BRANCH  23  26
ATOM     26  C   UNL     1      14.532   2.932   1.031  0.00  0.00    +0.031 A 
ATOM     27  C   UNL     1      15.144   2.650  -0.183  0.00  0.00    +0.023 A 
ATOM     28  C   UNL     1      16.383   2.041  -0.206  0.00  0.00    +0.003 A 
ATOM     29  C   UNL     1      17.015   1.711   0.978  0.00  0.00    +0.020 A 
ATOM     30  C   UNL     1      16.409   1.990   2.191  0.00  0.00    +0.043 A 
ATOM     31  C   UNL     1      15.171   2.604   2.220  0.00  0.00    +0.043 A 
ATOM     32 CL   UNL     1      17.206   1.573   3.675  0.00  0.00    -0.083 Cl
ENDBRANCH  23  26
ENDBRANCH   9  20
BRANCH   8  33
ATOM     33  N   UNL     1       8.195   2.010   1.265  0.00  0.00    -0.353 N 
ATOM     34  H   UNL     1       7.377   1.491   1.210  0.00  0.00    +0.143 HD
ATOM     35  H   UNL     1       9.052   1.560   1.320  0.00  0.00    +0.143 HD
ENDBRANCH   8  33
TORSDOF 4
