REMARK  Name = ZINC02343192
REMARK  10 active torsions:
REMARK  status: ('A' for Active; 'I' for Inactive)
REMARK    1  A    between atoms: C_1  and  C_2
REMARK    2  A    between atoms: C_5  and  N_9
REMARK    3  A    between atoms: C_10  and  C_12
REMARK    4  A    between atoms: N_14  and  N_15
REMARK    5  A    between atoms: N_15  and  C_16
REMARK    6  A    between atoms: C_16  and  C_17
REMARK    7  A    between atoms: C_18  and  C_19
REMARK    8  A    between atoms: N_21  and  C_22
REMARK    9  A    between atoms: C_25  and  N_28
REMARK   10  A    between atoms: C_29  and  C_31
REMARK                            x       y       z     vdW  Elec       q    Type
REMARK                         _______ _______ _______ _____ _____    ______ ____
ROOT
ATOM      1  N   UNL     1       0.534  -8.036   2.157  0.00  0.00    -0.268 N 
ATOM      2  H   UNL     1       0.402  -8.307   1.235  0.00  0.00    +0.170 HD
ENDROOT
BRANCH   1   5
ATOM      3  C   UNL     1       0.237  -5.751   1.556  0.00  0.00    +0.315 C 
ATOM      4  O   UNL     1       0.072  -6.090   0.402  0.00  0.00    -0.264 OA
ATOM      5  N   UNL     1       0.476  -6.679   2.503  0.00  0.00    -0.229 N 
ATOM      6  H   UNL     1       0.608  -6.408   3.425  0.00  0.00    +0.173 HD
BRANCH   3   8
ATOM      7  N   UNL     1      -0.064  -3.377   0.978  0.00  0.00    -0.278 N 
ATOM      8  C   UNL     1       0.175  -4.306   1.925  0.00  0.00    +0.305 C 
ATOM      9  O   UNL     1       0.340  -3.966   3.079  0.00  0.00    -0.265 OA
ATOM     10  H   UNL     1      -0.258  -3.652   0.068  0.00  0.00    +0.155 HD
BRANCH   7  15
ATOM     11  C   UNL     1       0.059   2.135   2.309  0.00  0.00    +0.045 C 
ATOM     12  C   UNL     1       0.026   0.670   1.956  0.00  0.00    -0.032 A 
ATOM     13  C   UNL     1      -0.838   0.216   0.977  0.00  0.00    +0.006 A 
ATOM     14  C   UNL     1      -0.870  -1.125   0.650  0.00  0.00    +0.023 A 
ATOM     15  C   UNL     1      -0.033  -2.020   1.306  0.00  0.00    +0.035 A 
ATOM     16  C   UNL     1       0.834  -1.561   2.289  0.00  0.00    +0.043 A 
ATOM     17  C   UNL     1       0.865  -0.216   2.608  0.00  0.00    +0.046 A 
ATOM     18 CL   UNL     1       1.953   0.360   3.832  0.00  0.00    -0.083 Cl
ENDBRANCH   7  15
ENDBRANCH   3   8
ENDBRANCH   1   5
BRANCH   1  19
ATOM     19  C   UNL     1       0.776  -8.977   3.118  0.00  0.00    +0.024 C 
ATOM     20  C   UNL     1       0.839 -10.436   2.745  0.00  0.00    +0.062 C 
ATOM     21  C   UNL     1       0.960  -8.600   4.400  0.00  0.00    +0.087 C 
BRANCH  21  22
ATOM     22  C   UNL     1       1.368  -9.550   5.365  0.00  0.00    +0.243 C 
ATOM     23  O   UNL     1       1.651 -10.684   5.021  0.00  0.00    -0.270 OA
ATOM     24  N   UNL     1       1.445  -9.200   6.664  0.00  0.00    -0.282 N 
ATOM     25  H   UNL     1       1.149  -8.321   6.948  0.00  0.00    +0.155 HD
BRANCH  24  26
ATOM     26  C   UNL     1       1.951 -10.107   7.604  0.00  0.00    +0.034 A 
ATOM     27  C   UNL     1       2.957 -10.993   7.242  0.00  0.00    +0.025 A 
ATOM     28  C   UNL     1       3.456 -11.886   8.169  0.00  0.00    +0.025 A 
ATOM     29  C   UNL     1       2.952 -11.898   9.463  0.00  0.00    +0.033 A 
ATOM     30  C   UNL     1       1.946 -11.012   9.825  0.00  0.00    +0.025 A 
ATOM     31  C   UNL     1       1.451 -10.115   8.900  0.00  0.00    +0.025 A 
BRANCH  29  32
ATOM     32  N   UNL     1       3.458 -12.805  10.403  0.00  0.00    -0.286 N 
ATOM     33  C   UNL     1       2.647 -13.315  11.352  0.00  0.00    +0.214 C 
ATOM     34  O   UNL     1       1.461 -13.063  11.335  0.00  0.00    -0.276 OA
ATOM     35  C   UNL     1       3.215 -14.200  12.432  0.00  0.00    +0.109 C 
ATOM     36  H   UNL     1       4.392 -13.066  10.372  0.00  0.00    +0.155 HD
ENDBRANCH  29  32
ENDBRANCH  24  26
ENDBRANCH  21  22
ENDBRANCH   1  19
TORSDOF 7
