REMARK  Name = ZINC57524453
REMARK  5 active torsions:
REMARK  status: ('A' for Active; 'I' for Inactive)
REMARK    1  A    between atoms: C_1  and  C_2
REMARK    2  A    between atoms: C_6  and  C_7
REMARK    3  A    between atoms: C_7  and  N_8
REMARK    4  A    between atoms: N_11  and  C_12
REMARK    5  A    between atoms: C_16  and  N_18
REMARK                            x       y       z     vdW  Elec       q    Type
REMARK                         _______ _______ _______ _____ _____    ______ ____
ROOT
ATOM      1  N   UNL     1      -3.504   0.349   2.500  0.00  0.00    -0.295 N 
ATOM      2  C   UNL     1      -3.740   0.809   3.745  0.00  0.00    +0.304 C 
ATOM      3  O   UNL     1      -4.750   1.447   3.976  0.00  0.00    -0.252 OA
ATOM      4  N   UNL     1      -2.857   0.564   4.733  0.00  0.00    -0.269 N 
ATOM      5  H   UNL     1      -2.698  -0.159   2.316  0.00  0.00    +0.151 HD
ATOM      6  H   UNL     1      -2.086  -0.001   4.566  0.00  0.00    +0.156 HD
ENDROOT
BRANCH   4   7
ATOM      7  C   UNL     1      -3.054   1.122   6.001  0.00  0.00    +0.037 A 
ATOM      8  C   UNL     1      -1.962   1.527   6.759  0.00  0.00    +0.023 A 
ATOM      9  C   UNL     1      -2.154   2.079   8.011  0.00  0.00    +0.004 A 
ATOM     10  C   UNL     1      -3.432   2.230   8.514  0.00  0.00    +0.025 A 
ATOM     11  C   UNL     1      -4.528   1.827   7.761  0.00  0.00    +0.053 A 
ATOM     12  C   UNL     1      -4.338   1.278   6.500  0.00  0.00    +0.048 A 
BRANCH  11  13
ATOM     13  N   UNL     1      -5.820   1.979   8.270  0.00  0.00    -0.207 N 
ATOM     14  C   UNL     1      -7.015   1.194   7.910  0.00  0.00    +0.133 C 
ATOM     15  C   UNL     1      -7.998   1.120   9.092  0.00  0.00    +0.045 C 
ATOM     16  C   UNL     1      -8.081   2.577   9.641  0.00  0.00    +0.190 C 
ATOM     17  S   UNL     1      -6.328   3.087   9.421  0.00  0.00    +0.046 S 
ATOM     18  O   UNL     1      -5.568   2.799  10.586  0.00  0.00    -0.155 OA
ATOM     19  O   UNL     1      -6.251   4.356   8.786  0.00  0.00    -0.155 OA
ENDBRANCH  11  13
ENDBRANCH   4   7
BRANCH   1  20
ATOM     20  C   UNL     1      -4.463   0.617   1.426  0.00  0.00    +0.148 C 
BRANCH  20  26
ATOM     21  C   UNL     1      -5.051  -2.223   0.412  0.00  0.00    +0.044 C 
ATOM     22  C   UNL     1      -4.196  -1.244  -0.349  0.00  0.00    -0.039 A 
ATOM     23  C   UNL     1      -3.636  -1.596  -1.563  0.00  0.00    +0.011 A 
ATOM     24  C   UNL     1      -2.872  -0.692  -2.222  0.00  0.00    +0.046 A 
ATOM     25  S   UNL     1      -2.925   0.711  -1.118  0.00  0.00    -0.100 S 
ATOM     26  C   UNL     1      -3.967  -0.002   0.144  0.00  0.00    +0.010 A 
ENDBRANCH  20  26
ENDBRANCH   1  20
TORSDOF 4
