REMARK  Name = ZINC06252464
REMARK  4 active torsions:
REMARK  status: ('A' for Active; 'I' for Inactive)
REMARK    1  A    between atoms: C_4  and  C_7
REMARK    2  A    between atoms: C_12  and  C_20
REMARK    3  A    between atoms: C_14  and  C_18
REMARK    4  A    between atoms: C_15  and  N_17
REMARK                            x       y       z     vdW  Elec       q    Type
REMARK                         _______ _______ _______ _____ _____    ______ ____
ROOT
ATOM      1  C   UNL     1       7.582   3.247   3.318  0.00  0.00    +0.034 C 
ATOM      2  C   UNL     1       7.475   2.068   2.349  0.00  0.00    +0.083 C 
ATOM      3  C   UNL     1       6.705   2.489   1.119  0.00  0.00    +0.115 C 
ATOM      4  C   UNL     1       5.739   3.418   1.199  0.00  0.00    +0.046 C 
ATOM      5  C   UNL     1       4.960   3.830  -0.028  0.00  0.00    +0.108 C 
ATOM      6  C   UNL     1       5.710   3.433  -1.269  0.00  0.00    +0.098 C 
ATOM      7  C   UNL     1       6.689   2.498  -1.208  0.00  0.00    +0.198 C 
ATOM      8  O   UNL     1       7.014   1.900  -0.052  0.00  0.00    -0.445 OA
ATOM      9  C   UNL     1       5.420   4.042   2.423  0.00  0.00    +0.164 C 
ATOM     10  O   UNL     1       4.529   4.866   2.460  0.00  0.00    -0.292 OA
ATOM     11  C   UNL     1       6.165   3.703   3.686  0.00  0.00    +0.088 C 
ENDROOT
BRANCH   5  12
ATOM     12  C   UNL     1       3.615   3.151  -0.017  0.00  0.00    +0.047 A 
ATOM     13  C   UNL     1       3.534   1.808  -0.023  0.00  0.00    +0.204 A 
ATOM     14  O   UNL     1       2.370   1.151  -0.015  0.00  0.00    -0.462 OA
ATOM     15  C   UNL     1       1.181   1.788   0.000  0.00  0.00    +0.138 A 
ATOM     16  C   UNL     1      -0.013   1.076   0.008  0.00  0.00    +0.047 A 
ATOM     17  C   UNL     1      -1.215   1.750   0.017  0.00  0.00    +0.004 A 
ATOM     18  C   UNL     1      -1.250   3.137   0.031  0.00  0.00    +0.001 A 
ATOM     19  C   UNL     1      -0.078   3.862   0.024  0.00  0.00    +0.015 A 
ATOM     20  C   UNL     1       1.144   3.192   0.008  0.00  0.00    +0.064 A 
ATOM     21  C   UNL     1       2.425   3.925  -0.001  0.00  0.00    +0.197 A 
ATOM     22  O   UNL     1       2.459   5.144   0.005  0.00  0.00    -0.287 OA
ENDBRANCH   5  12
BRANCH   1  26
ATOM     23  C   UNL     1       9.658   2.025   6.845  0.00  0.00    +0.000 A 
ATOM     24  C   UNL     1      10.163   3.049   6.066  0.00  0.00    +0.000 A 
ATOM     25  C   UNL     1       9.491   3.445   4.924  0.00  0.00    +0.004 A 
ATOM     26  C   UNL     1       8.314   2.816   4.562  0.00  0.00    -0.043 A 
ATOM     27  C   UNL     1       7.807   1.795   5.344  0.00  0.00    +0.004 A 
ATOM     28  C   UNL     1       8.481   1.396   6.483  0.00  0.00    +0.000 A 
ENDBRANCH   1  26
BRANCH   7  29
ATOM     29  N   UNL     1       7.364   2.157  -2.354  0.00  0.00    -0.328 N 
ATOM     30  H   UNL     1       7.138   2.583  -3.195  0.00  0.00    +0.145 HD
ATOM     31  H   UNL     1       8.068   1.490  -2.322  0.00  0.00    +0.145 HD
ENDBRANCH   7  29
BRANCH   6  32
ATOM     32  C   UNL     1       5.387   4.045  -2.522  0.00  0.00    +0.101 C 
ATOM     33  N   UNL     1       5.130   4.531  -3.517  0.00  0.00    -0.191 NA
ENDBRANCH   6  32
TORSDOF 4
