REMARK  Name = ZINC44737477
REMARK  8 active torsions:
REMARK  status: ('A' for Active; 'I' for Inactive)
REMARK    1  A    between atoms: C_1  and  C_2
REMARK    2  A    between atoms: C_9  and  C_11
REMARK    3  A    between atoms: C_11  and  C_13
REMARK    4  A    between atoms: C_11  and  N_14
REMARK    5  A    between atoms: C_15  and  C_17
REMARK    6  A    between atoms: C_28  and  C_30
REMARK    7  A    between atoms: C_32  and  C_39
REMARK    8  A    between atoms: C_34  and  C_35
REMARK                            x       y       z     vdW  Elec       q    Type
REMARK                         _______ _______ _______ _____ _____    ______ ____
ROOT
ATOM      1  C   UNL     1       1.857  -8.674   1.024  0.00  0.00    +0.100 C 
ATOM      2  C   UNL     1       2.958  -8.094   0.107  0.00  0.00    +0.121 C 
ATOM      3  N   UNL     1       4.221  -8.327   0.845  0.00  0.00    -0.296 N 
ATOM      4  C   UNL     1       4.053  -9.671   1.448  0.00  0.00    +0.115 C 
ATOM      5  C   UNL     1       2.580  -9.711   1.900  0.00  0.00    -0.004 C 
ATOM      6  C   UNL     1       1.994 -11.100   1.666  0.00  0.00    -0.010 C 
ATOM      7  C   UNL     1       2.688 -12.105   2.591  0.00  0.00    -0.082 C 
ATOM      8  N   UNL     1       2.496 -11.699   3.988  0.00  0.00    +0.379 N 
ATOM      9  C   UNL     1       3.144 -10.404   4.228  0.00  0.00    -0.082 C 
ATOM     10  C   UNL     1       2.469  -9.328   3.372  0.00  0.00    -0.010 C 
ATOM     11  C   UNL     1       5.284  -7.504   0.945  0.00  0.00    +0.250 C 
ATOM     12  O   UNL     1       5.227  -6.379   0.486  0.00  0.00    -0.270 OA
ATOM     13  H   UNL     1       1.509 -11.621   4.182  0.00  0.00    -0.086 HD
ATOM     14  H   UNL     1       2.901 -12.394   4.597  0.00  0.00    -0.086 HD
ENDROOT
BRANCH  11  15
ATOM     15  C   UNL     1       6.514  -7.966   1.611  0.00  0.00    +0.087 A 
ATOM     16  C   UNL     1       6.809  -9.325   2.089  0.00  0.00    +0.058 A 
ATOM     17  C   UNL     1       8.040  -9.270   2.622  0.00  0.00    +0.103 A 
ATOM     18  O   UNL     1       8.510  -8.018   2.512  0.00  0.00    -0.455 OA
ATOM     19  C   UNL     1       7.620  -7.225   1.908  0.00  0.00    +0.220 A 
ATOM     20  C   UNL     1       8.775 -10.428   3.245  0.00  0.00    +0.086 C 
BRANCH  19  21
ATOM     21  C   UNL     1       7.805  -5.759   1.609  0.00  0.00    +0.451 C 
ATOM     22  F   UNL     1       7.343  -5.000   2.689  0.00  0.00    -0.163 F 
ATOM     23  F   UNL     1       9.163  -5.494   1.400  0.00  0.00    -0.163 F 
ATOM     24  F   UNL     1       7.082  -5.423   0.459  0.00  0.00    -0.163 F 
ENDBRANCH  19  21
ENDBRANCH  11  15
BRANCH   1  26
ATOM     25  N   UNL     1      -0.026  -7.667   2.271  0.00  0.00    -0.305 N 
ATOM     26  C   UNL     1       1.261  -7.587   1.881  0.00  0.00    +0.219 C 
ATOM     27  O   UNL     1       1.940  -6.641   2.219  0.00  0.00    -0.275 OA
ATOM     28  H   UNL     1      -0.569  -8.424   2.001  0.00  0.00    +0.149 HD
BRANCH  25  29
ATOM     29  C   UNL     1      -0.605  -6.610   3.105  0.00  0.00    +0.136 C 
ATOM     30  C   UNL     1      -0.295  -6.893   4.576  0.00  0.00    +0.036 C 
BRANCH  29  39
ATOM     31  C   UNL     1      -7.879  -5.158   2.495  0.00  0.00    +0.044 C 
ATOM     32  C   UNL     1      -6.552  -5.873   2.478  0.00  0.00    -0.048 A 
ATOM     33  C   UNL     1      -6.494  -7.208   2.103  0.00  0.00    +0.005 A 
ATOM     34  C   UNL     1      -5.301  -7.873   2.081  0.00  0.00    +0.030 A 
ATOM     35  C   UNL     1      -4.125  -7.207   2.438  0.00  0.00    +0.089 A 
ATOM     36  C   UNL     1      -4.184  -5.856   2.816  0.00  0.00    +0.067 A 
ATOM     37  C   UNL     1      -5.405  -5.194   2.828  0.00  0.00    +0.031 A 
ATOM     38  N   UNL     1      -2.886  -5.484   3.106  0.00  0.00    -0.340 N 
ATOM     39  C   UNL     1      -2.099  -6.575   2.905  0.00  0.00    +0.128 A 
ATOM     40  N   UNL     1      -2.822  -7.583   2.514  0.00  0.00    -0.231 NA
ATOM     41  H   UNL     1      -2.591  -4.608   3.398  0.00  0.00    +0.167 HD
ENDBRANCH  29  39
ENDBRANCH  25  29
ENDBRANCH   1  26
TORSDOF 5
