REMARK  Name = ZINC35646632
REMARK  12 active torsions:
REMARK  status: ('A' for Active; 'I' for Inactive)
REMARK    1  A    between atoms: C_1  and  C_2
REMARK    2  A    between atoms: C_2  and  N_3
REMARK    3  A    between atoms: C_4  and  C_24
REMARK    4  A    between atoms: C_5  and  C_19
REMARK    5  A    between atoms: C_6  and  C_11
REMARK    6  A    between atoms: C_14  and  C_18
REMARK    7  A    between atoms: C_16  and  C_17
REMARK    8  A    between atoms: C_19  and  O_21
REMARK    9  A    between atoms: O_21  and  C_22
REMARK   10  A    between atoms: C_22  and  C_23
REMARK   11  A    between atoms: C_24  and  N_25
REMARK   12  A    between atoms: C_32  and  C_34
REMARK                            x       y       z     vdW  Elec       q    Type
REMARK                         _______ _______ _______ _____ _____    ______ ____
ROOT
ATOM      1  N   UNL     1       0.486  -0.133   1.462  0.00  0.00    -0.261 N 
ATOM      2  C   UNL     1       1.730  -0.666   1.275  0.00  0.00    +0.010 C 
ATOM      3  C   UNL     1       2.344  -1.363   2.256  0.00  0.00    +0.076 C 
ATOM      4  C   UNL     1       1.607  -1.533   3.568  0.00  0.00    +0.144 C 
ATOM      5  N   UNL     1       0.271  -0.919   3.668  0.00  0.00    -0.288 N 
ATOM      6  C   UNL     1      -0.207  -0.248   2.602  0.00  0.00    +0.307 C 
ATOM      7  O   UNL     1      -1.307   0.265   2.675  0.00  0.00    -0.252 OA
ATOM      8  H   UNL     1      -0.250  -0.994   4.483  0.00  0.00    +0.151 HD
ENDROOT
BRANCH   4   9
ATOM      9  C   UNL     1       1.459  -3.009   3.831  0.00  0.00    -0.020 A 
ATOM     10  C   UNL     1       1.594  -3.913   2.793  0.00  0.00    +0.006 A 
ATOM     11  C   UNL     1       1.459  -5.267   3.033  0.00  0.00    +0.004 A 
ATOM     12  C   UNL     1       1.190  -5.718   4.312  0.00  0.00    -0.050 A 
ATOM     13  C   UNL     1       1.056  -4.816   5.350  0.00  0.00    +0.007 A 
ATOM     14  C   UNL     1       1.196  -3.461   5.110  0.00  0.00    -0.045 A 
ATOM     15  C   UNL     1       1.055  -2.477   6.242  0.00  0.00    +0.044 C 
ATOM     16  C   UNL     1       1.042  -7.195   4.574  0.00  0.00    +0.044 C 
ENDBRANCH   4   9
BRANCH   1  18
ATOM     17  C   UNL     1       0.184   2.102   0.517  0.00  0.00    +0.025 C 
ATOM     18  C   UNL     1      -0.120   0.612   0.356  0.00  0.00    +0.111 C 
ENDBRANCH   1  18
BRANCH   3  19
ATOM     19  C   UNL     1       3.632  -1.916   2.063  0.00  0.00    +0.339 C 
ATOM     20  O   UNL     1       4.234  -1.709   1.026  0.00  0.00    -0.245 OA
BRANCH  19  21
ATOM     21  O   UNL     1       4.192  -2.673   3.029  0.00  0.00    -0.462 OA
BRANCH  21  22
ATOM     22  C   UNL     1       5.537  -3.107   2.815  0.00  0.00    +0.229 C 
ATOM     23  C   UNL     1       5.955  -4.048   3.947  0.00  0.00    +0.048 C 
ENDBRANCH  21  22
ENDBRANCH  19  21
ENDBRANCH   3  19
BRANCH   2  24
ATOM     24  C   UNL     1       2.428  -0.473  -0.046  0.00  0.00    -0.026 C 
BRANCH  24  25
ATOM     25  N   UNL     1       2.273  -1.684  -0.863  0.00  0.00    +0.384 N 
ATOM     26  C   UNL     1       3.167  -1.581  -2.014  0.00  0.00    -0.077 C 
ATOM     27  C   UNL     1       3.589  -2.969  -2.445  0.00  0.00    +0.000 C 
ATOM     28  C   UNL     1       2.640  -3.473  -3.547  0.00  0.00    +0.106 C 
ATOM     29  N   UNL     1       1.242  -3.091  -3.260  0.00  0.00    -0.299 N 
ATOM     30  C   UNL     1       0.675  -3.168  -1.930  0.00  0.00    +0.089 C 
ATOM     31  C   UNL     1       0.906  -1.834  -1.183  0.00  0.00    -0.059 C 
ATOM     32  C   UNL     1       0.467  -2.655  -4.273  0.00  0.00    +0.247 C 
ATOM     33  O   UNL     1      -0.649  -2.232  -4.045  0.00  0.00    -0.270 OA
ATOM     34  H   UNL     1       2.560  -2.478  -0.310  0.00  0.00    -0.081 HD
BRANCH  32  35
ATOM     35  C   UNL     1       0.976  -2.690  -5.661  0.00  0.00    +0.040 A 
ATOM     36  C   UNL     1       1.793  -3.740  -6.082  0.00  0.00    +0.013 A 
ATOM     37  C   UNL     1       2.264  -3.768  -7.378  0.00  0.00    +0.004 A 
ATOM     38  C   UNL     1       1.929  -2.758  -8.262  0.00  0.00    +0.038 A 
ATOM     39  C   UNL     1       1.119  -1.712  -7.852  0.00  0.00    +0.124 A 
ATOM     40  C   UNL     1       0.636  -1.676  -6.557  0.00  0.00    +0.051 A 
ATOM     41  F   UNL     1       0.796  -0.728  -8.720  0.00  0.00    -0.205 F 
ENDBRANCH  32  35
ENDBRANCH  24  25
ENDBRANCH   2  24
TORSDOF 8
