REMARK  Name = ZINC35890755
REMARK  6 active torsions:
REMARK  status: ('A' for Active; 'I' for Inactive)
REMARK    1  A    between atoms: C_1  and  C_2
REMARK    2  A    between atoms: C_5  and  C_8
REMARK    3  A    between atoms: C_10  and  C_31
REMARK    4  A    between atoms: C_11  and  C_30
REMARK    5  A    between atoms: C_12  and  N_14
REMARK    6  A    between atoms: N_22  and  C_23
REMARK                            x       y       z     vdW  Elec       q    Type
REMARK                         _______ _______ _______ _____ _____    ______ ____
ROOT
ATOM      1  N   UNL     1       0.624  -6.082  -2.889  0.00  0.00    -0.312 N 
ATOM      2  C   UNL     1       1.076  -7.479  -2.944  0.00  0.00    +0.125 C 
ATOM      3  C   UNL     1      -0.034  -8.329  -3.575  0.00  0.00    +0.128 C 
ATOM      4  N   UNL     1      -0.475  -7.677  -4.817  0.00  0.00    -0.282 N 
ATOM      5  C   UNL     1      -0.927  -6.280  -4.761  0.00  0.00    +0.128 C 
ATOM      6  C   UNL     1       0.178  -5.432  -4.129  0.00  0.00    +0.125 C 
ATOM      7  C   UNL     1      -0.465  -8.349  -5.985  0.00  0.00    +0.307 C 
ATOM      8  O   UNL     1      -0.180  -9.531  -6.004  0.00  0.00    -0.252 OA
ATOM      9  N   UNL     1      -0.771  -7.711  -7.132  0.00  0.00    -0.268 N 
ATOM     10  H   UNL     1      -1.090  -6.795  -7.107  0.00  0.00    +0.156 HD
ENDROOT
BRANCH   1  15
ATOM     11  C   UNL     1      -0.445  -4.811   0.276  0.00  0.00    +0.140 A 
ATOM     12  N   UNL     1       0.575  -4.053   0.654  0.00  0.00    -0.343 N 
ATOM     13  C   UNL     1       1.650  -3.929  -0.108  0.00  0.00    +0.021 A 
ATOM     14  C   UNL     1       1.704  -4.601  -1.315  0.00  0.00    +0.008 A 
ATOM     15  C   UNL     1       0.614  -5.391  -1.688  0.00  0.00    +0.128 A 
ATOM     16  N   UNL     1      -0.430  -5.475  -0.871  0.00  0.00    -0.214 NA
ATOM     17  C   UNL     1       2.911  -4.482  -2.210  0.00  0.00    +0.049 C 
ATOM     18  C   UNL     1       2.802  -3.064   0.334  0.00  0.00    +0.064 C 
ATOM     19  H   UNL     1       0.533  -3.583   1.502  0.00  0.00    +0.167 HD
BRANCH  11  24
ATOM     20  C   UNL     1      -5.046  -5.245   3.713  0.00  0.00    +0.044 C 
ATOM     21  C   UNL     1      -3.842  -5.131   2.814  0.00  0.00    -0.050 A 
ATOM     22  C   UNL     1      -3.811  -5.818   1.613  0.00  0.00    +0.004 A 
ATOM     23  C   UNL     1      -2.712  -5.718   0.786  0.00  0.00    +0.012 A 
ATOM     24  C   UNL     1      -1.630  -4.922   1.161  0.00  0.00    +0.017 A 
ATOM     25  C   UNL     1      -1.667  -4.233   2.372  0.00  0.00    +0.012 A 
ATOM     26  C   UNL     1      -2.774  -4.336   3.189  0.00  0.00    +0.004 A 
ENDBRANCH  11  24
ENDBRANCH   1  15
BRANCH   9  27
ATOM     27  C   UNL     1      -0.630  -8.370  -8.359  0.00  0.00    +0.049 A 
ATOM     28  C   UNL     1      -0.846  -9.739  -8.442  0.00  0.00    +0.024 A 
ATOM     29  C   UNL     1      -0.707 -10.387  -9.654  0.00  0.00    +0.002 A 
ATOM     30  C   UNL     1      -0.353  -9.673 -10.784  0.00  0.00    +0.001 A 
ATOM     31  C   UNL     1      -0.137  -8.310 -10.706  0.00  0.00    +0.017 A 
ATOM     32  C   UNL     1      -0.280  -7.655  -9.497  0.00  0.00    +0.039 A 
ATOM     33 BR   UNL     1       0.008  -5.789  -9.392  0.00  0.00    -0.048 Br
ENDBRANCH   9  27
TORSDOF 3
