REMARK  Name = ZINC03524083
REMARK  7 active torsions:
REMARK  status: ('A' for Active; 'I' for Inactive)
REMARK    1  A    between atoms: C_1  and  C_2
REMARK    2  A    between atoms: C_5  and  N_9
REMARK    3  A    between atoms: C_6  and  C_8
REMARK    4  A    between atoms: C_10  and  C_12
REMARK    5  A    between atoms: C_14  and  S_24
REMARK    6  A    between atoms: C_17  and  N_18
REMARK    7  A    between atoms: S_24  and  N_27
REMARK                            x       y       z     vdW  Elec       q    Type
REMARK                         _______ _______ _______ _____ _____    ______ ____
ROOT
ATOM      1  C   UNL     1       3.715  -0.946   0.177  0.00  0.00    +0.060 A 
ATOM      2  C   UNL     1       4.914  -0.230   0.164  0.00  0.00    +0.043 A 
ATOM      3  C   UNL     1       6.115  -0.898   0.258  0.00  0.00    +0.106 A 
ATOM      4  C   UNL     1       6.141  -2.281   0.357  0.00  0.00    +0.030 A 
ATOM      5  C   UNL     1       4.966  -3.003   0.366  0.00  0.00    +0.026 A 
ATOM      6  C   UNL     1       3.745  -2.346   0.277  0.00  0.00    +0.042 A 
ENDROOT
BRANCH   6   7
ATOM      7  N   UNL     1       2.560  -3.071   0.286  0.00  0.00    -0.325 N 
ATOM      8  C   UNL     1       2.385  -3.778   1.563  0.00  0.00    +0.133 C 
ATOM      9  C   UNL     1       1.042  -4.514   1.553  0.00  0.00    +0.178 C 
ATOM     10  O   UNL     1       0.999  -5.401   0.432  0.00  0.00    -0.377 OA
ATOM     11  C   UNL     1       1.166  -4.746  -0.828  0.00  0.00    +0.178 C 
ATOM     12  C   UNL     1       2.510  -4.012  -0.842  0.00  0.00    +0.133 C 
ENDBRANCH   6   7
BRANCH   1  14
ATOM     13  N   UNL     1       2.402   1.107  -0.014  0.00  0.00    -0.281 N 
ATOM     14  C   UNL     1       2.426  -0.237   0.081  0.00  0.00    +0.250 C 
ATOM     15  O   UNL     1       1.385  -0.865   0.088  0.00  0.00    -0.270 OA
ATOM     16  H   UNL     1       3.233   1.603  -0.085  0.00  0.00    +0.155 HD
BRANCH  13  21
ATOM     17  C   UNL     1      -2.555   3.864   0.003  0.00  0.00    +0.044 C 
ATOM     18  C   UNL     1      -1.238   3.131  -0.002  0.00  0.00    -0.050 A 
ATOM     19  C   UNL     1      -1.140   1.891  -0.606  0.00  0.00    +0.005 A 
ATOM     20  C   UNL     1       0.064   1.215  -0.608  0.00  0.00    +0.024 A 
ATOM     21  C   UNL     1       1.180   1.787  -0.010  0.00  0.00    +0.037 A 
ATOM     22  C   UNL     1       1.079   3.034   0.592  0.00  0.00    -0.029 A 
ATOM     23  C   UNL     1      -0.130   3.702   0.595  0.00  0.00    +0.008 A 
ATOM     24  C   UNL     1       2.287   3.657   1.243  0.00  0.00    +0.045 C 
ENDBRANCH  13  21
ENDBRANCH   1  14
BRANCH   3  25
ATOM     25  S   UNL     1       7.626   0.008   0.248  0.00  0.00    +0.061 S 
ATOM     26  O   UNL     1       7.316   1.320   0.697  0.00  0.00    -0.153 OA
ATOM     27  O   UNL     1       8.594  -0.808   0.892  0.00  0.00    -0.153 OA
BRANCH  25  28
ATOM     28  N   UNL     1       8.101   0.149  -1.332  0.00  0.00    -0.177 NA
ATOM     29  C   UNL     1       8.970  -0.865  -1.946  0.00  0.00    +0.109 C 
ATOM     30  C   UNL     1       8.299  -1.369  -3.232  0.00  0.00    +0.017 C 
ATOM     31  C   UNL     1       7.988  -0.177  -4.140  0.00  0.00    +0.003 C 
ATOM     32  C   UNL     1       7.015   0.767  -3.429  0.00  0.00    +0.017 C 
ATOM     33  C   UNL     1       7.667   1.293  -2.146  0.00  0.00    +0.109 C 
ENDBRANCH  25  28
ENDBRANCH   3  25
TORSDOF 5
