REMARK  Name = ZINC59233432
REMARK  12 active torsions:
REMARK  status: ('A' for Active; 'I' for Inactive)
REMARK    1  A    between atoms: C_1  and  C_2
REMARK    2  A    between atoms: C_2  and  C_3
REMARK    3  A    between atoms: C_2  and  C_4
REMARK    4  A    between atoms: C_4  and  C_5
REMARK    5  A    between atoms: C_5  and  O_6
REMARK    6  A    between atoms: O_6  and  C_7
REMARK    7  A    between atoms: C_10  and  S_16
REMARK    8  A    between atoms: C_12  and  C_13
REMARK    9  A    between atoms: S_16  and  N_19
REMARK   10  A    between atoms: N_19  and  C_20
REMARK   11  A    between atoms: C_23  and  S_26
REMARK   12  A    between atoms: S_26  and  N_29
REMARK                            x       y       z     vdW  Elec       q    Type
REMARK                         _______ _______ _______ _____ _____    ______ ____
ROOT
ATOM      1  S   UNL     1      -6.789   0.566  -6.004  0.00  0.00    +0.092 S 
ATOM      2  O   UNL     1      -8.144   0.514  -5.582  0.00  0.00    -0.148 OA
ATOM      3  O   UNL     1      -6.223   1.722  -6.607  0.00  0.00    -0.148 OA
ENDROOT
BRANCH   1   7
ATOM      4  C   UNL     1      -4.241  -0.354  -2.362  0.00  0.00    +0.133 A 
ATOM      5  C   UNL     1      -3.714   0.369  -3.422  0.00  0.00    +0.048 A 
ATOM      6  C   UNL     1      -4.494   0.646  -4.527  0.00  0.00    +0.032 A 
ATOM      7  C   UNL     1      -5.806   0.205  -4.587  0.00  0.00    +0.111 A 
ATOM      8  C   UNL     1      -6.345  -0.515  -3.544  0.00  0.00    +0.045 A 
ATOM      9  C   UNL     1      -5.566  -0.807  -2.422  0.00  0.00    +0.080 A 
BRANCH   9  10
ATOM     10  C   UNL     1      -6.135  -1.583  -1.304  0.00  0.00    +0.245 C 
ATOM     11  O   UNL     1      -5.455  -1.830  -0.326  0.00  0.00    -0.270 OA
ATOM     12  N   UNL     1      -7.410  -2.017  -1.365  0.00  0.00    -0.325 N 
ATOM     13  H   UNL     1      -7.952  -1.820  -2.144  0.00  0.00    +0.145 HD
ATOM     14  H   UNL     1      -7.784  -2.527  -0.630  0.00  0.00    +0.145 HD
ENDBRANCH   9  10
BRANCH   4  15
ATOM     15  O   UNL     1      -3.476  -0.626  -1.276  0.00  0.00    -0.491 OA
BRANCH  15  16
ATOM     16  C   UNL     1      -2.135  -0.131  -1.286  0.00  0.00    +0.229 C 
BRANCH  16  17
ATOM     17  C   UNL     1      -1.433  -0.534   0.013  0.00  0.00    +0.044 C 
BRANCH  17  19
ATOM     18  C   UNL     1      -0.019   1.526   0.010  0.00  0.00    +0.007 C 
ATOM     19  C   UNL     1       0.002  -0.004   0.002  0.00  0.00    -0.014 C 
ATOM     20  C   UNL     1       0.742  -0.511   1.242  0.00  0.00    +0.007 C 
ENDBRANCH  17  19
ENDBRANCH  16  17
ENDBRANCH  15  16
ENDBRANCH   4  15
ENDBRANCH   1   7
BRANCH   1  21
ATOM     21  N   UNL     1      -6.578  -0.678  -7.077  0.00  0.00    -0.098 NA
BRANCH  21  22
ATOM     22  C   UNL     1      -7.244  -0.661  -8.305  0.00  0.00    +0.074 A 
ATOM     23  C   UNL     1      -8.078   0.401  -8.630  0.00  0.00    +0.028 A 
ATOM     24  C   UNL     1      -8.733   0.415  -9.845  0.00  0.00    +0.030 A 
ATOM     25  C   UNL     1      -8.561  -0.628 -10.737  0.00  0.00    +0.106 A 
ATOM     26  C   UNL     1      -7.732  -1.687 -10.416  0.00  0.00    +0.030 A 
ATOM     27  C   UNL     1      -7.069  -1.704  -9.205  0.00  0.00    +0.028 A 
BRANCH  25  28
ATOM     28  S   UNL     1      -9.401  -0.607 -12.286  0.00  0.00    +0.061 S 
ATOM     29  O   UNL     1      -9.500  -1.959 -12.713  0.00  0.00    -0.153 OA
ATOM     30  O   UNL     1     -10.541   0.224 -12.119  0.00  0.00    -0.153 OA
BRANCH  28  31
ATOM     31  N   UNL     1      -8.411   0.159 -13.370  0.00  0.00    -0.172 NA
ATOM     32  C   UNL     1      -8.481   1.617 -13.560  0.00  0.00    +0.137 C 
ATOM     33  C   UNL     1      -7.062   2.188 -13.452  0.00  0.00    +0.177 C 
ATOM     34  O   UNL     1      -6.198   1.472 -14.338  0.00  0.00    -0.377 OA
ATOM     35  C   UNL     1      -6.067   0.082 -14.032  0.00  0.00    +0.177 C 
ATOM     36  C   UNL     1      -7.431  -0.596 -14.166  0.00  0.00    +0.137 C 
ENDBRANCH  28  31
ENDBRANCH  25  28
ENDBRANCH  21  22
ENDBRANCH   1  21
TORSDOF 10
