REMARK  Name = ZINC14276205
REMARK  10 active torsions:
REMARK  status: ('A' for Active; 'I' for Inactive)
REMARK    1  A    between atoms: C_1  and  O_2
REMARK    2  A    between atoms: O_2  and  C_3
REMARK    3  A    between atoms: C_6  and  N_27
REMARK    4  A    between atoms: C_8  and  N_9
REMARK    5  A    between atoms: N_9  and  C_10
REMARK    6  A    between atoms: C_10  and  N_12
REMARK    7  A    between atoms: C_13  and  C_15
REMARK    8  A    between atoms: C_18  and  O_23
REMARK    9  A    between atoms: O_23  and  C_24
REMARK   10  A    between atoms: C_28  and  C_30
REMARK                            x       y       z     vdW  Elec       q    Type
REMARK                         _______ _______ _______ _____ _____    ______ ____
ROOT
ATOM      1  N   UNL     1       2.334   0.991  -0.021  0.00  0.00    -0.294 N 
ATOM      2  H   UNL     1       2.232   0.247   0.594  0.00  0.00    +0.154 HD
ENDROOT
BRANCH   1   8
ATOM      3  C   UNL     1       4.747   0.938  -0.203  0.00  0.00    +0.141 A 
ATOM      4  C   UNL     1       5.958   1.604  -0.297  0.00  0.00    +0.049 A 
ATOM      5  C   UNL     1       5.992   2.986  -0.289  0.00  0.00    +0.027 A 
ATOM      6  C   UNL     1       4.811   3.711  -0.193  0.00  0.00    +0.036 A 
ATOM      7  C   UNL     1       3.595   3.048  -0.103  0.00  0.00    +0.050 A 
ATOM      8  C   UNL     1       3.560   1.662  -0.111  0.00  0.00    +0.077 A 
BRANCH   6   9
ATOM      9  N   UNL     1       4.848   5.110  -0.184  0.00  0.00    -0.279 N 
ATOM     10  C   UNL     1       5.763   5.765  -0.927  0.00  0.00    +0.284 C 
ATOM     11  O   UNL     1       6.610   5.140  -1.539  0.00  0.00    -0.266 OA
ATOM     12  H   UNL     1       4.216   5.609   0.356  0.00  0.00    +0.155 HD
BRANCH  10  13
ATOM     13  C   UNL     1       5.737   7.229  -1.000  0.00  0.00    +0.189 A 
ATOM     14  C   UNL     1       6.599   8.012  -1.712  0.00  0.00    +0.054 A 
ATOM     15  C   UNL     1       6.208   9.343  -1.495  0.00  0.00    +0.042 A 
ATOM     16  C   UNL     1       5.138   9.314  -0.671  0.00  0.00    +0.196 A 
ATOM     17  O   UNL     1       4.853   8.038  -0.380  0.00  0.00    -0.458 OA
ENDBRANCH  10  13
ENDBRANCH   6   9
BRANCH   3  19
ATOM     18  C   UNL     1       5.971  -1.099  -0.302  0.00  0.00    +0.277 C 
ATOM     19  O   UNL     1       4.716  -0.422  -0.205  0.00  0.00    -0.493 OA
ENDBRANCH   3  19
ENDBRANCH   1   8
BRANCH   1  20
ATOM     20  C   UNL     1       1.296   1.377  -0.789  0.00  0.00    +0.141 C 
ATOM     21  S   UNL     1       1.438   2.761  -1.786  0.00  0.00    -0.018 S 
BRANCH  20  22
ATOM     22  N   UNL     1       0.146   0.674  -0.771  0.00  0.00    -0.263 N 
ATOM     23  C   UNL     1      -0.890   1.058  -1.543  0.00  0.00    +0.255 C 
ATOM     24  O   UNL     1      -0.789   2.041  -2.252  0.00  0.00    -0.270 OA
ATOM     25  H   UNL     1       0.066  -0.110  -0.206  0.00  0.00    +0.157 HD
BRANCH  23  26
ATOM     26  C   UNL     1      -2.144   0.286  -1.528  0.00  0.00    +0.113 A 
ATOM     27  C   UNL     1      -3.156   0.608  -0.615  0.00  0.00    +0.177 A 
ATOM     28  C   UNL     1      -4.333  -0.116  -0.610  0.00  0.00    +0.204 A 
ATOM     29  C   UNL     1      -4.509  -1.169  -1.500  0.00  0.00    +0.196 A 
ATOM     30  C   UNL     1      -3.505  -1.496  -2.405  0.00  0.00    +0.204 A 
ATOM     31  C   UNL     1      -2.327  -0.775  -2.424  0.00  0.00    +0.177 A 
ATOM     32  F   UNL     1      -1.352  -1.094  -3.303  0.00  0.00    -0.201 F 
ATOM     33  F   UNL     1      -3.683  -2.520  -3.268  0.00  0.00    -0.198 F 
ATOM     34  F   UNL     1      -5.312   0.197   0.267  0.00  0.00    -0.198 F 
ATOM     35  F   UNL     1      -2.984   1.626   0.256  0.00  0.00    -0.201 F 
BRANCH  29  36
ATOM     36  O   UNL     1      -5.666  -1.880  -1.487  0.00  0.00    -0.489 OA
ATOM     37  C   UNL     1      -5.714  -3.023  -0.631  0.00  0.00    +0.277 C 
ENDBRANCH  29  36
ENDBRANCH  23  26
ENDBRANCH  20  22
ENDBRANCH   1  20
TORSDOF 8
