REMARK  Name = ZINC23462949
REMARK  6 active torsions:
REMARK  status: ('A' for Active; 'I' for Inactive)
REMARK    1  A    between atoms: C_1  and  C_2
REMARK    2  A    between atoms: C_11  and  O_13
REMARK    3  A    between atoms: O_13  and  C_14
REMARK    4  A    between atoms: C_14  and  C_15
REMARK    5  A    between atoms: C_17  and  O_18
REMARK    6  A    between atoms: C_27  and  C_29
REMARK                            x       y       z     vdW  Elec       q    Type
REMARK                         _______ _______ _______ _____ _____    ______ ____
ROOT
ATOM      1  C   UNL     1       0.005  -5.050   6.061  0.00  0.00    +0.007 A 
ATOM      2  C   UNL     1       0.296  -6.394   6.181  0.00  0.00    +0.095 A 
ATOM      3  C   UNL     1       0.705  -6.908   7.403  0.00  0.00    +0.285 A 
ATOM      4  O   UNL     1       0.825  -6.126   8.481  0.00  0.00    -0.425 OA
ATOM      5  C   UNL     1       0.553  -4.806   8.420  0.00  0.00    +0.141 A 
ATOM      6  C   UNL     1       0.138  -4.228   7.200  0.00  0.00    +0.024 A 
ATOM      7  C   UNL     1      -0.141  -2.851   7.131  0.00  0.00    +0.014 A 
ATOM      8  C   UNL     1      -0.006  -2.076   8.238  0.00  0.00    +0.024 A 
ATOM      9  C   UNL     1       0.411  -2.641   9.456  0.00  0.00    +0.037 A 
ATOM     10  C   UNL     1       0.681  -4.008   9.543  0.00  0.00    +0.070 A 
ATOM     11  N   UNL     1       0.542  -1.854  10.559  0.00  0.00    -0.286 N 
ATOM     12  C   UNL     1       1.219  -2.289  11.603  0.00  0.00    +0.214 C 
ATOM     13  O   UNL     1       1.829  -3.342  11.539  0.00  0.00    -0.276 OA
ATOM     14  C   UNL     1       1.238  -1.485  12.878  0.00  0.00    +0.109 C 
ATOM     15  H   UNL     1       0.138  -0.972  10.576  0.00  0.00    +0.155 HD
ENDROOT
BRANCH   3  16
ATOM     16  O   UNL     1       0.986  -8.221   7.506  0.00  0.00    -0.480 OA
ATOM     17  H   UNL     1       1.263  -8.495   8.391  0.00  0.00    +0.295 HD
ENDBRANCH   3  16
BRANCH   1  18
ATOM     18  C   UNL     1      -0.441  -4.473   4.742  0.00  0.00    +0.265 C 
BRANCH  18  19
ATOM     19  O   UNL     1      -1.582  -5.191   4.269  0.00  0.00    -0.486 OA
BRANCH  19  30
ATOM     20  C   UNL     1      -4.973  -4.248  -1.201  0.00  0.00    +0.045 C 
ATOM     21  C   UNL     1      -3.769  -3.562  -0.609  0.00  0.00    -0.033 A 
ATOM     22  C   UNL     1      -3.179  -2.516  -1.245  0.00  0.00    +0.096 A 
ATOM     23  C   UNL     1      -2.054  -1.890  -0.671  0.00  0.00    +0.337 A 
ATOM     24  O   UNL     1      -1.535  -0.954  -1.252  0.00  0.00    -0.245 OA
ATOM     25  O   UNL     1      -1.540  -2.300   0.499  0.00  0.00    -0.422 OA
ATOM     26  C   UNL     1      -2.078  -3.333   1.183  0.00  0.00    +0.143 A 
ATOM     27  C   UNL     1      -3.206  -4.000   0.670  0.00  0.00    +0.022 A 
ATOM     28  C   UNL     1      -3.771  -5.067   1.377  0.00  0.00    +0.035 A 
ATOM     29  C   UNL     1      -3.226  -5.455   2.568  0.00  0.00    +0.083 A 
ATOM     30  C   UNL     1      -2.112  -4.794   3.083  0.00  0.00    +0.143 A 
ATOM     31  C   UNL     1      -1.535  -3.743   2.391  0.00  0.00    +0.094 A 
ATOM     32 CL   UNL     1      -3.925  -6.780   3.446  0.00  0.00    -0.080 Cl
ENDBRANCH  19  30
ENDBRANCH  18  19
ENDBRANCH   1  18
TORSDOF 4
