REMARK  Name = ZINC09626035
REMARK  11 active torsions:
REMARK  status: ('A' for Active; 'I' for Inactive)
REMARK    1  A    between atoms: C_1  and  C_2
REMARK    2  A    between atoms: C_4  and  C_31
REMARK    3  A    between atoms: C_5  and  N_9
REMARK    4  A    between atoms: C_6  and  C_8
REMARK    5  A    between atoms: C_10  and  C_12
REMARK    6  A    between atoms: C_12  and  S_13
REMARK    7  A    between atoms: S_13  and  C_14
REMARK    8  A    between atoms: N_26  and  C_27
REMARK    9  A    between atoms: C_27  and  C_28
REMARK   10  A    between atoms: C_28  and  O_29
REMARK   11  A    between atoms: O_29  and  C_30
REMARK                            x       y       z     vdW  Elec       q    Type
REMARK                         _______ _______ _______ _____ _____    ______ ____
ROOT
ATOM      1  C   UNL     1       3.271   3.337  -1.615  0.00  0.00    +0.173 A 
ATOM      2  N   UNL     1       2.270   3.273  -0.760  0.00  0.00    -0.216 NA
ATOM      3  C   UNL     1       1.603   2.139  -0.581  0.00  0.00    +0.117 A 
ATOM      4  C   UNL     1       1.921   0.968  -1.283  0.00  0.00    +0.076 A 
ATOM      5  C   UNL     1       1.093  -0.212  -0.981  0.00  0.00    -0.023 A 
ATOM      6  C   UNL     1       0.120  -0.054  -0.069  0.00  0.00    -0.004 A 
ATOM      7  S   UNL     1       0.238   1.646   0.439  0.00  0.00    -0.073 S 
ATOM      8  C   UNL     1      -0.656  -1.323   0.160  0.00  0.00    +0.043 C 
ATOM      9  C   UNL     1       0.241  -2.436  -0.424  0.00  0.00    +0.010 C 
ATOM     10  C   UNL     1       1.058  -1.661  -1.476  0.00  0.00    +0.037 C 
ATOM     11  C   UNL     1       3.011   1.065  -2.204  0.00  0.00    +0.263 A 
ATOM     12  O   UNL     1       3.358   0.095  -2.857  0.00  0.00    -0.267 OA
ATOM     13  N   UNL     1       3.647   2.243  -2.339  0.00  0.00    -0.285 N 
ENDROOT
BRANCH   1  14
ATOM     14  S   UNL     1       4.135   4.858  -1.828  0.00  0.00    -0.078 S 
BRANCH  14  15
ATOM     15  C   UNL     1       3.229   5.901  -0.658  0.00  0.00    +0.173 C 
BRANCH  15  17
ATOM     16  N   UNL     1       3.291   8.245   0.129  0.00  0.00    -0.284 N 
ATOM     17  C   UNL     1       3.810   7.291  -0.669  0.00  0.00    +0.228 C 
ATOM     18  O   UNL     1       4.745   7.552  -1.397  0.00  0.00    -0.275 OA
ATOM     19  H   UNL     1       2.510   8.052   0.672  0.00  0.00    +0.155 HD
BRANCH  16  24
ATOM     20  C   UNL     1       5.670  13.392   0.315  0.00  0.00    +0.044 C 
ATOM     21  C   UNL     1       5.038  12.024   0.266  0.00  0.00    -0.050 A 
ATOM     22  C   UNL     1       3.682  11.900   0.027  0.00  0.00    +0.008 A 
ATOM     23  C   UNL     1       3.100  10.648  -0.019  0.00  0.00    -0.029 A 
ATOM     24  C   UNL     1       3.878   9.514   0.175  0.00  0.00    +0.039 A 
ATOM     25  C   UNL     1       5.239   9.643   0.420  0.00  0.00    -0.029 A 
ATOM     26  C   UNL     1       5.816  10.897   0.459  0.00  0.00    +0.008 A 
ATOM     27  C   UNL     1       6.086   8.416   0.638  0.00  0.00    +0.045 C 
ATOM     28  C   UNL     1       1.621  10.513  -0.279  0.00  0.00    +0.045 C 
ENDBRANCH  16  24
ENDBRANCH  15  17
ENDBRANCH  14  15
ENDBRANCH   1  14
BRANCH  13  29
ATOM     29  C   UNL     1       4.765   2.354  -3.280  0.00  0.00    +0.155 C 
BRANCH  29  30
ATOM     30  C   UNL     1       4.235   2.768  -4.654  0.00  0.00    +0.181 C 
BRANCH  30  31
ATOM     31  O   UNL     1       3.678   4.082  -4.573  0.00  0.00    -0.381 OA
ATOM     32  C   UNL     1       3.152   4.567  -5.810  0.00  0.00    +0.194 C 
ENDBRANCH  30  31
ENDBRANCH  29  30
ENDBRANCH  13  29
TORSDOF 7
