REMARK  Name = ZINC28438781
REMARK  6 active torsions:
REMARK  status: ('A' for Active; 'I' for Inactive)
REMARK    1  A    between atoms: C_1  and  C_2
REMARK    2  A    between atoms: C_2  and  C_4
REMARK    3  A    between atoms: C_2  and  S_17
REMARK    4  A    between atoms: N_6  and  C_7
REMARK    5  A    between atoms: C_8  and  C_15
REMARK    6  A    between atoms: S_17  and  C_18
REMARK                            x       y       z     vdW  Elec       q    Type
REMARK                         _______ _______ _______ _____ _____    ______ ____
ROOT
ATOM      1  C   UNL     1       1.147   1.655   0.000  0.00  0.00    +0.231 C 
ATOM      2  O   UNL     1       1.130   2.868   0.007  0.00  0.00    -0.274 OA
ATOM      3  N   UNL     1      -0.011   0.966   0.007  0.00  0.00    -0.278 N 
ATOM      4  H   UNL     1       0.004  -0.134   0.006  0.00  0.00    +0.155 HD
ENDROOT
BRANCH   3   5
ATOM      5  C   UNL     1      -1.222   1.643   0.017  0.00  0.00    +0.090 A 
ATOM      6  C   UNL     1      -2.502   1.117   0.020  0.00  0.00    +0.084 A 
ATOM      7  C   UNL     1      -3.621   2.057   0.031  0.00  0.00    -0.018 A 
ATOM      8  C   UNL     1      -3.275   3.358   0.035  0.00  0.00    -0.004 A 
ATOM      9  S   UNL     1      -1.499   3.352   0.035  0.00  0.00    -0.077 S 
ATOM     10  C   UNL     1      -4.478   4.261   0.043  0.00  0.00    +0.043 C 
ATOM     11  C   UNL     1      -5.650   3.354  -0.392  0.00  0.00    +0.010 C 
ATOM     12  C   UNL     1      -5.148   1.962   0.043  0.00  0.00    +0.037 C 
BRANCH   6  13
ATOM     13  C   UNL     1      -2.722  -0.298   0.012  0.00  0.00    +0.102 C 
ATOM     14  N   UNL     1      -2.896  -1.420   0.006  0.00  0.00    -0.191 NA
ENDBRANCH   6  13
ENDBRANCH   3   5
BRANCH   1  16
ATOM     15  C   UNL     1       2.832   0.569  -1.459  0.00  0.00    +0.029 C 
ATOM     16  C   UNL     1       2.462   0.920  -0.017  0.00  0.00    +0.136 C 
BRANCH  16  17
ATOM     17  S   UNL     1       3.750   1.971   0.698  0.00  0.00    -0.092 S 
BRANCH  17  18
ATOM     18  C   UNL     1       5.103   0.842   0.695  0.00  0.00    +0.115 A 
ATOM     19  C   UNL     1       6.349   1.225   1.165  0.00  0.00    +0.069 A 
ATOM     20  C   UNL     1       7.435   0.324   1.169  0.00  0.00    +0.082 A 
ATOM     21  C   UNL     1       8.641   0.837   1.678  0.00  0.00    +0.036 A 
ATOM     22  C   UNL     1       8.702   2.107   2.123  0.00  0.00    +0.048 A 
ATOM     23  S   UNL     1       7.039   2.701   1.862  0.00  0.00    -0.092 S 
ATOM     24  N   UNL     1       7.171  -0.913   0.678  0.00  0.00    -0.235 NA
ATOM     25  C   UNL     1       5.982  -1.233   0.238  0.00  0.00    +0.223 A 
ATOM     26  N   UNL     1       4.956  -0.401   0.234  0.00  0.00    -0.228 NA
ENDBRANCH  17  18
ENDBRANCH  16  17
ENDBRANCH   1  16
TORSDOF 5
