REMARK  Name = ZINC13045436
REMARK  10 active torsions:
REMARK  status: ('A' for Active; 'I' for Inactive)
REMARK    1  A    between atoms: C_1  and  C_2
REMARK    2  A    between atoms: C_5  and  N_11
REMARK    3  A    between atoms: C_6  and  N_8
REMARK    4  A    between atoms: C_12  and  C_14
REMARK    5  A    between atoms: C_14  and  S_15
REMARK    6  A    between atoms: S_15  and  C_16
REMARK    7  A    between atoms: C_20  and  C_30
REMARK    8  A    between atoms: N_26  and  C_27
REMARK    9  A    between atoms: C_27  and  C_28
REMARK   10  A    between atoms: C_28  and  O_29
REMARK                            x       y       z     vdW  Elec       q    Type
REMARK                         _______ _______ _______ _____ _____    ______ ____
ROOT
ATOM      1  C   UNL     1      -0.327   2.742   1.786  0.00  0.00    +0.173 A 
ATOM      2  N   UNL     1      -0.889   3.222   2.868  0.00  0.00    -0.223 NA
ATOM      3  C   UNL     1      -1.870   2.550   3.514  0.00  0.00    +0.080 A 
ATOM      4  C   UNL     1      -2.465   3.062   4.671  0.00  0.00    +0.043 A 
ATOM      5  C   UNL     1      -3.469   2.336   5.301  0.00  0.00    +0.065 A 
ATOM      6  C   UNL     1      -3.885   1.102   4.784  0.00  0.00    +0.016 A 
ATOM      7  C   UNL     1      -3.311   0.593   3.655  0.00  0.00    +0.016 A 
ATOM      8  C   UNL     1      -2.301   1.304   3.007  0.00  0.00    +0.065 A 
ATOM      9  C   UNL     1      -1.656   0.792   1.787  0.00  0.00    +0.262 A 
ATOM     10  O   UNL     1      -1.983  -0.275   1.301  0.00  0.00    -0.267 OA
ATOM     11  N   UNL     1      -0.686   1.550   1.226  0.00  0.00    -0.285 N 
ENDROOT
BRANCH   5  12
ATOM     12  C   UNL     1      -4.104   2.871   6.525  0.00  0.00    +0.387 C 
ATOM     13  O   UNL     1      -3.747   3.940   6.977  0.00  0.00    -0.241 OA
ATOM     14  O   UNL     1      -5.077   2.172   7.139  0.00  0.00    -0.241 OA
ENDBRANCH   5  12
BRANCH   1  15
ATOM     15  S   UNL     1       0.948   3.682   1.014  0.00  0.00    -0.078 S 
BRANCH  15  16
ATOM     16  C   UNL     1       1.010   5.105   2.132  0.00  0.00    +0.173 C 
BRANCH  16  18
ATOM     17  N   UNL     1       2.287   7.213   2.337  0.00  0.00    -0.283 N 
ATOM     18  C   UNL     1       2.063   6.073   1.655  0.00  0.00    +0.228 C 
ATOM     19  O   UNL     1       2.707   5.825   0.658  0.00  0.00    -0.275 OA
ATOM     20  H   UNL     1       1.719   7.450   3.087  0.00  0.00    +0.155 HD
BRANCH  17  25
ATOM     21  C   UNL     1       6.558  10.628   0.824  0.00  0.00    +0.044 C 
ATOM     22  C   UNL     1       5.423   9.721   1.226  0.00  0.00    -0.048 A 
ATOM     23  C   UNL     1       5.479   8.371   0.927  0.00  0.00    +0.005 A 
ATOM     24  C   UNL     1       4.442   7.538   1.294  0.00  0.00    +0.026 A 
ATOM     25  C   UNL     1       3.341   8.055   1.964  0.00  0.00    +0.064 A 
ATOM     26  C   UNL     1       3.285   9.411   2.258  0.00  0.00    +0.148 A 
ATOM     27  C   UNL     1       4.329  10.239   1.893  0.00  0.00    +0.038 A 
BRANCH  26  28
ATOM     28  N   UNL     1       2.111   9.968   2.966  0.00  0.00    +0.058 N 
ATOM     29  O   UNL     1       2.020  11.170   3.144  0.00  0.00    -0.126 OA
ATOM     30  O   UNL     1       1.235   9.225   3.372  0.00  0.00    -0.126 OA
ENDBRANCH  26  28
ENDBRANCH  17  25
ENDBRANCH  16  18
ENDBRANCH  15  16
ENDBRANCH   1  15
BRANCH  11  31
ATOM     31  C   UNL     1      -0.012   1.085   0.011  0.00  0.00    +0.155 C 
BRANCH  31  32
ATOM     32  C   UNL     1      -0.768   1.594  -1.218  0.00  0.00    +0.177 C 
BRANCH  32  33
ATOM     33  O   UNL     1      -0.694   3.020  -1.266  0.00  0.00    -0.393 OA
ATOM     34  H   UNL     1      -1.152   3.413  -2.022  0.00  0.00    +0.209 HD
ENDBRANCH  32  33
ENDBRANCH  31  32
ENDBRANCH  11  31
TORSDOF 9
