REMARK  Name = ZINC29507408
REMARK  4 active torsions:
REMARK  status: ('A' for Active; 'I' for Inactive)
REMARK    1  A    between atoms: C_3  and  C_17
REMARK    2  A    between atoms: C_5  and  C_7
REMARK    3  A    between atoms: N_9  and  C_10
REMARK    4  A    between atoms: C_17  and  N_18
REMARK                            x       y       z     vdW  Elec       q    Type
REMARK                         _______ _______ _______ _____ _____    ______ ____
ROOT
ATOM      1  C   UNL     1       2.379   0.077   0.000  0.00  0.00    +0.001 A 
ATOM      2  C   UNL     1       2.343   1.451  -0.163  0.00  0.00    +0.005 A 
ATOM      3  C   UNL     1       1.133   2.103  -0.325  0.00  0.00    -0.029 A 
ATOM      4  C   UNL     1      -0.046   1.386  -0.324  0.00  0.00    +0.018 A 
ATOM      5  C   UNL     1      -0.017   0.001  -0.159  0.00  0.00    +0.037 A 
ATOM      6  C   UNL     1       1.207  -0.651   0.003  0.00  0.00    +0.013 A 
ENDROOT
BRANCH   5   7
ATOM      7  C   UNL     1      -1.276  -0.773  -0.157  0.00  0.00    +0.248 C 
ATOM      8  O   UNL     1      -2.340  -0.203  -0.299  0.00  0.00    -0.270 OA
ATOM      9  N   UNL     1      -1.244  -2.111   0.002  0.00  0.00    -0.281 N 
ATOM     10  H   UNL     1      -0.279  -2.638   0.043  0.00  0.00    +0.155 HD
BRANCH   9  11
ATOM     11  C   UNL     1      -2.438  -2.830   0.115  0.00  0.00    +0.035 A 
ATOM     12  C   UNL     1      -2.524  -4.121  -0.393  0.00  0.00    +0.023 A 
ATOM     13  C   UNL     1      -3.704  -4.829  -0.280  0.00  0.00    +0.003 A 
ATOM     14  C   UNL     1      -4.801  -4.255   0.337  0.00  0.00    +0.015 A 
ATOM     15  C   UNL     1      -4.719  -2.970   0.844  0.00  0.00    +0.020 A 
ATOM     16  C   UNL     1      -3.539  -2.258   0.739  0.00  0.00    +0.038 A 
ATOM     17 BR   UNL     1      -6.221  -2.190   1.688  0.00  0.00    -0.050 Br
ENDBRANCH   9  11
ENDBRANCH   5   7
BRANCH   3  18
ATOM     18  C   UNL     1       1.104   3.599  -0.503  0.00  0.00    +0.152 C 
BRANCH  18  19
ATOM     19  N   UNL     1       0.998   4.245   0.808  0.00  0.00    -0.228 N 
ATOM     20  C   UNL     1       2.114   4.554   1.447  0.00  0.00    +0.233 C 
ATOM     21  O   UNL     1       3.210   4.321   0.986  0.00  0.00    -0.274 OA
ATOM     22  C   UNL     1       1.926   5.222   2.802  0.00  0.00    +0.175 C 
ATOM     23  S   UNL     1       0.091   5.269   2.877  0.00  0.00    -0.058 S 
ATOM     24  C   UNL     1      -0.230   4.498   1.298  0.00  0.00    +0.281 C 
ATOM     25  O   UNL     1      -1.306   4.258   0.785  0.00  0.00    -0.262 OA
ENDBRANCH  18  19
ENDBRANCH   3  18
TORSDOF 4
