REMARK  Name = ZINC25726591
REMARK  9 active torsions:
REMARK  status: ('A' for Active; 'I' for Inactive)
REMARK    1  A    between atoms: C_1  and  C_2
REMARK    2  A    between atoms: C_2  and  C_4
REMARK    3  A    between atoms: C_2  and  S_17
REMARK    4  A    between atoms: N_6  and  C_7
REMARK    5  A    between atoms: C_11  and  S_13
REMARK    6  A    between atoms: S_13  and  N_16
REMARK    7  A    between atoms: S_17  and  C_18
REMARK    8  A    between atoms: C_21  and  C_24
REMARK    9  A    between atoms: N_22  and  N_23
REMARK                            x       y       z     vdW  Elec       q    Type
REMARK                         _______ _______ _______ _____ _____    ______ ____
ROOT
ATOM      1  C   UNL     1       6.685   5.980   1.354  0.00  0.00    +0.029 C 
ATOM      2  C   UNL     1       6.376   6.639   0.008  0.00  0.00    +0.137 C 
ENDROOT
BRANCH   2   3
ATOM      3  C   UNL     1       7.237   7.864  -0.161  0.00  0.00    +0.230 C 
ATOM      4  O   UNL     1       6.806   8.956   0.145  0.00  0.00    -0.274 OA
ATOM      5  N   UNL     1       8.487   7.747  -0.651  0.00  0.00    -0.285 N 
ATOM      6  H   UNL     1       8.849   6.771  -1.007  0.00  0.00    +0.155 HD
BRANCH   5   7
ATOM      7  C   UNL     1       9.324   8.867  -0.709  0.00  0.00    +0.035 A 
ATOM      8  C   UNL     1       9.237   9.851   0.267  0.00  0.00    +0.023 A 
ATOM      9  C   UNL     1      10.064  10.955   0.207  0.00  0.00    +0.004 A 
ATOM     10  C   UNL     1      10.979  11.081  -0.822  0.00  0.00    +0.028 A 
ATOM     11  C   UNL     1      11.068  10.103  -1.795  0.00  0.00    +0.107 A 
ATOM     12  C   UNL     1      10.247   8.993  -1.738  0.00  0.00    +0.051 A 
BRANCH  11  13
ATOM     13  S   UNL     1      12.235  10.268  -3.105  0.00  0.00    +0.056 S 
ATOM     14  O   UNL     1      11.745   9.487  -4.186  0.00  0.00    -0.153 OA
ATOM     15  O   UNL     1      12.511  11.656  -3.231  0.00  0.00    -0.153 OA
BRANCH  13  16
ATOM     16  N   UNL     1      13.640   9.550  -2.602  0.00  0.00    -0.204 NA
ATOM     17  H   UNL     1      14.398   9.632  -3.395  0.00  0.00    +0.144 HD
ATOM     18  H   UNL     1      13.451   8.488  -2.383  0.00  0.00    +0.144 HD
ENDBRANCH  13  16
ENDBRANCH  11  13
ENDBRANCH   5   7
ENDBRANCH   2   3
BRANCH   2  19
ATOM     19  S   UNL     1       4.631   7.117  -0.043  0.00  0.00    -0.072 S 
BRANCH  19  20
ATOM     20  C   UNL     1       3.876   5.526   0.021  0.00  0.00    +0.209 A 
ATOM     21  N   UNL     1       4.498   4.370   0.086  0.00  0.00    -0.121 NA
ATOM     22  N   UNL     1       3.644   3.410   0.118  0.00  0.00    -0.127 NA
ATOM     23  C   UNL     1       2.425   3.894   0.075  0.00  0.00    +0.183 A 
ATOM     24  N   UNL     1       2.536   5.263   0.006  0.00  0.00    -0.224 N 
BRANCH  23  25
ATOM     25  C   UNL     1       1.169   3.114   0.092  0.00  0.00    +0.035 A 
ATOM     26  C   UNL     1       0.153   3.401  -0.821  0.00  0.00    +0.013 A 
ATOM     27  C   UNL     1      -1.016   2.670  -0.800  0.00  0.00    +0.001 A 
ATOM     28  C   UNL     1      -1.186   1.657   0.128  0.00  0.00    +0.001 A 
ATOM     29  C   UNL     1      -0.182   1.363   1.032  0.00  0.00    +0.016 A 
ATOM     30  C   UNL     1       0.994   2.087   1.022  0.00  0.00    +0.029 A 
ATOM     31 BR   UNL     1       2.363   1.689   2.264  0.00  0.00    -0.050 Br
ENDBRANCH  23  25
BRANCH  24  32
ATOM     32  N   UNL     1       1.518   6.172  -0.061  0.00  0.00    -0.295 N 
ATOM     33  H   UNL     1       0.473   5.827  -0.066  0.00  0.00    +0.163 HD
ATOM     34  H   UNL     1       1.743   7.247  -0.111  0.00  0.00    +0.163 HD
ENDBRANCH  24  32
ENDBRANCH  19  20
ENDBRANCH   2  19
TORSDOF 8
