REMARK  Name = ZINC23259843
REMARK  9 active torsions:
REMARK  status: ('A' for Active; 'I' for Inactive)
REMARK    1  A    between atoms: C_1  and  C_2
REMARK    2  A    between atoms: C_2  and  C_4
REMARK    3  A    between atoms: C_2  and  N_14
REMARK    4  A    between atoms: C_7  and  S_10
REMARK    5  A    between atoms: S_10  and  N_13
REMARK    6  A    between atoms: N_14  and  C_15
REMARK    7  A    between atoms: N_14  and  C_16
REMARK    8  A    between atoms: C_16  and  C_17
REMARK    9  A    between atoms: N_19  and  C_20
REMARK                            x       y       z     vdW  Elec       q    Type
REMARK                         _______ _______ _______ _____ _____    ______ ____
ROOT
ATOM      1  N   UNL     1      -4.823   3.936   4.364  0.00  0.00    +0.388 N 
ATOM      2  C   UNL     1      -3.820   4.513   3.459  0.00  0.00    -0.095 C 
ATOM      3  H   UNL     1      -5.785   3.910   3.830  0.00  0.00    -0.081 HD
ENDROOT
BRANCH   1   5
ATOM      4  C   UNL     1      -4.191   1.750   3.459  0.00  0.00    -0.008 C 
ATOM      5  C   UNL     1      -4.473   2.556   4.728  0.00  0.00    -0.041 C 
BRANCH   5   6
ATOM      6  C   UNL     1      -5.618   1.928   5.479  0.00  0.00    -0.061 A 
ATOM      7  C   UNL     1      -5.370   1.145   6.590  0.00  0.00    +0.004 A 
ATOM      8  C   UNL     1      -6.421   0.569   7.279  0.00  0.00    +0.029 A 
ATOM      9  C   UNL     1      -7.720   0.776   6.857  0.00  0.00    +0.105 A 
ATOM     10  C   UNL     1      -7.969   1.555   5.742  0.00  0.00    +0.029 A 
ATOM     11  C   UNL     1      -6.918   2.135   5.056  0.00  0.00    +0.004 A 
BRANCH   9  12
ATOM     12  S   UNL     1      -9.060   0.042   7.735  0.00  0.00    +0.056 S 
ATOM     13  O   UNL     1      -8.530  -1.088   8.414  0.00  0.00    -0.153 OA
ATOM     14  O   UNL     1     -10.140  -0.059   6.817  0.00  0.00    -0.153 OA
BRANCH  12  15
ATOM     15  N   UNL     1      -9.529   1.119   8.902  0.00  0.00    -0.204 NA
ATOM     16  H   UNL     1     -10.367   0.696   9.476  0.00  0.00    +0.144 HD
ATOM     17  H   UNL     1      -9.846   2.059   8.428  0.00  0.00    +0.144 HD
ENDBRANCH  12  15
ENDBRANCH   9  12
ENDBRANCH   5   6
ENDBRANCH   1   5
BRANCH   1  18
ATOM     18  C   UNL     1      -4.994   4.769   5.561  0.00  0.00    +0.019 C 
BRANCH  18  19
ATOM     19  C   UNL     1      -5.587   6.097   5.168  0.00  0.00    +0.201 C 
ATOM     20  O   UNL     1      -5.843   6.327   4.005  0.00  0.00    -0.278 OA
ATOM     21  N   UNL     1      -5.834   7.030   6.110  0.00  0.00    -0.285 N 
ATOM     22  H   UNL     1      -5.657   6.801   7.171  0.00  0.00    +0.155 HD
BRANCH  21  23
ATOM     23  C   UNL     1      -6.317   8.290   5.737  0.00  0.00    +0.073 A 
ATOM     24  C   UNL     1      -5.783   8.941   4.631  0.00  0.00    +0.082 A 
ATOM     25  C   UNL     1      -6.266  10.184   4.262  0.00  0.00    +0.063 A 
ATOM     26  C   UNL     1      -7.271  10.784   4.999  0.00  0.00    +0.043 A 
ATOM     27  C   UNL     1      -7.801  10.141   6.104  0.00  0.00    +0.063 A 
ATOM     28  C   UNL     1      -7.326   8.896   6.475  0.00  0.00    +0.082 A 
ATOM     29 CL   UNL     1      -7.992   8.089   7.861  0.00  0.00    -0.080 Cl
ATOM     30 CL   UNL     1      -9.063  10.898   7.025  0.00  0.00    -0.082 Cl
ATOM     31 CL   UNL     1      -5.605  10.994   2.876  0.00  0.00    -0.082 Cl
ATOM     32 CL   UNL     1      -4.516   8.192   3.710  0.00  0.00    -0.080 Cl
ENDBRANCH  21  23
ENDBRANCH  18  19
ENDBRANCH   1  18
TORSDOF 7
