REMARK  Name = ZINC36006464
REMARK  6 active torsions:
REMARK  status: ('A' for Active; 'I' for Inactive)
REMARK    1  A    between atoms: C_1  and  C_2
REMARK    2  A    between atoms: C_3  and  C_8
REMARK    3  A    between atoms: N_6  and  C_7
REMARK    4  A    between atoms: C_19  and  O_33
REMARK    5  A    between atoms: C_23  and  C_32
REMARK    6  A    between atoms: C_28  and  C_31
REMARK                            x       y       z     vdW  Elec       q    Type
REMARK                         _______ _______ _______ _____ _____    ______ ____
ROOT
ATOM      1  C   UNL     1      -0.005  -0.377  -2.517  0.00  0.00    +0.018 C 
ATOM      2  C   UNL     1       0.106  -1.287  -3.517  0.00  0.00    -0.003 C 
ATOM      3  C   UNL     1       0.221  -0.966  -4.997  0.00  0.00    +0.043 C 
ATOM      4  C   UNL     1      -0.291  -2.267  -5.689  0.00  0.00    +0.010 C 
ATOM      5  C   UNL     1      -1.819  -2.214  -5.631  0.00  0.00    +0.001 C 
ATOM      6  C   UNL     1      -2.258  -1.710  -4.252  0.00  0.00    +0.031 C 
ATOM      7  C   UNL     1      -3.758  -1.733  -4.179  0.00  0.00    -0.027 C 
ATOM      8  C   UNL     1      -4.491  -2.539  -4.890  0.00  0.00    -0.065 C 
ATOM      9  C   UNL     1      -6.000  -2.476  -4.723  0.00  0.00    +0.062 C 
ATOM     10  C   UNL     1      -6.517  -3.893  -4.456  0.00  0.00    +0.119 C 
ATOM     11  C   UNL     1      -6.055  -4.825  -5.577  0.00  0.00    +0.032 C 
ATOM     12  C   UNL     1      -4.527  -4.916  -5.577  0.00  0.00    +0.014 C 
ATOM     13  C   UNL     1      -3.937  -3.534  -5.869  0.00  0.00    -0.008 C 
ATOM     14  C   UNL     1      -2.419  -3.600  -5.848  0.00  0.00    +0.003 C 
ATOM     15  C   UNL     1      -1.949  -4.518  -4.714  0.00  0.00    +0.005 C 
ATOM     16  C   UNL     1      -0.430  -4.657  -4.810  0.00  0.00    +0.015 C 
ATOM     17  C   UNL     1       0.273  -3.319  -4.716  0.00  0.00    +0.034 C 
ATOM     18  C   UNL     1       0.139  -2.690  -3.352  0.00  0.00    +0.165 C 
ATOM     19  O   UNL     1       0.069  -3.286  -2.296  0.00  0.00    -0.292 OA
ATOM     20  C   UNL     1       1.765  -3.500  -5.004  0.00  0.00    +0.020 C 
ATOM     21  C   UNL     1      -4.370  -3.115  -7.275  0.00  0.00    +0.016 C 
ENDROOT
BRANCH   1  24
ATOM     22  C   UNL     1      -1.801   0.687  -0.159  0.00  0.00    +0.066 C 
ATOM     23  C   UNL     1      -0.714  -0.353  -0.071  0.00  0.00    +0.043 A 
ATOM     24  C   UNL     1       0.069  -0.811  -1.118  0.00  0.00    +0.016 A 
ATOM     25  C   UNL     1       0.953  -1.778  -0.582  0.00  0.00    +0.142 A 
ATOM     26  N   UNL     1       0.709  -1.885   0.694  0.00  0.00    -0.179 NA
ATOM     27  N   UNL     1      -0.321  -1.002   1.037  0.00  0.00    -0.271 N 
ATOM     28  C   UNL     1      -0.880  -0.819   2.378  0.00  0.00    +0.172 C 
ENDBRANCH   1  24
BRANCH  10  29
ATOM     29  O   UNL     1      -6.003  -4.360  -3.207  0.00  0.00    -0.391 OA
ATOM     30  H   UNL     1      -6.257  -3.816  -2.449  0.00  0.00    +0.210 HD
ENDBRANCH  10  29
TORSDOF 2
