REMARK  Name = ZINC40798987
REMARK  5 active torsions:
REMARK  status: ('A' for Active; 'I' for Inactive)
REMARK    1  A    between atoms: C_4  and  C_7
REMARK    2  A    between atoms: C_7  and  N_8
REMARK    3  A    between atoms: C_16  and  N_30
REMARK    4  A    between atoms: C_17  and  N_21
REMARK    5  A    between atoms: N_21  and  C_22
REMARK                            x       y       z     vdW  Elec       q    Type
REMARK                         _______ _______ _______ _____ _____    ______ ____
ROOT
ATOM      1  N   UNL     1       4.280  -1.157   1.493  0.00  0.00    -0.264 N 
ATOM      2  C   UNL     1       3.955  -2.387   2.057  0.00  0.00    +0.127 A 
ATOM      3  C   UNL     1       3.148  -3.276   1.354  0.00  0.00    +0.044 A 
ATOM      4  C   UNL     1       2.833  -4.495   1.927  0.00  0.00    +0.005 A 
ATOM      5  C   UNL     1       3.337  -4.785   3.188  0.00  0.00    +0.020 A 
ATOM      6  C   UNL     1       4.132  -3.856   3.828  0.00  0.00    +0.113 A 
ATOM      7  N   UNL     1       4.421  -2.703   3.255  0.00  0.00    -0.240 NA
ATOM      8  C   UNL     1       5.210  -0.330   2.116  0.00  0.00    +0.153 A 
ATOM      9  C   UNL     1       6.553  -0.363   1.736  0.00  0.00    +0.104 A 
ATOM     10  C   UNL     1       7.444   0.488   2.394  0.00  0.00    +0.126 A 
ATOM     11  N   UNL     1       6.982   1.291   3.349  0.00  0.00    -0.333 N 
ATOM     12  C   UNL     1       5.706   1.290   3.677  0.00  0.00    +0.200 A 
ATOM     13  N   UNL     1       4.832   0.508   3.078  0.00  0.00    -0.220 NA
ATOM     14  H   UNL     1       7.594   1.885   3.812  0.00  0.00    +0.168 HD
ENDROOT
BRANCH   9  15
ATOM     15  N   UNL     1       6.995  -1.227   0.723  0.00  0.00    -0.353 N 
ATOM     16  H   UNL     1       6.354  -1.756   0.222  0.00  0.00    +0.143 HD
ATOM     17  H   UNL     1       7.942  -1.296   0.523  0.00  0.00    +0.143 HD
ENDBRANCH   9  15
BRANCH  10  18
ATOM     18  N   UNL     1       8.793   0.495   2.056  0.00  0.00    -0.297 N 
ATOM     19  H   UNL     1       9.130  -0.131   1.395  0.00  0.00    +0.154 HD
BRANCH  18  20
ATOM     20  C   UNL     1       9.662   1.404   2.667  0.00  0.00    +0.071 A 
ATOM     21  C   UNL     1      10.199   2.454   1.935  0.00  0.00    +0.064 A 
ATOM     22  C   UNL     1      11.058   3.352   2.542  0.00  0.00    +0.125 A 
ATOM     23  C   UNL     1      11.383   3.204   3.881  0.00  0.00    +0.041 A 
ATOM     24  C   UNL     1      10.850   2.159   4.613  0.00  0.00    +0.043 A 
ATOM     25  C   UNL     1       9.986   1.261   4.012  0.00  0.00    +0.145 A 
ATOM     26  F   UNL     1       9.461   0.244   4.730  0.00  0.00    -0.204 F 
ATOM     27  F   UNL     1      11.581   4.373   1.830  0.00  0.00    -0.205 F 
ENDBRANCH  18  20
ENDBRANCH  10  18
BRANCH   1  28
ATOM     28  C   UNL     1       3.643  -0.733   0.244  0.00  0.00    +0.149 C 
BRANCH  28  32
ATOM     29  C   UNL     1       0.064   1.426   1.130  0.00  0.00    +0.000 A 
ATOM     30  C   UNL     1       1.267   2.098   1.017  0.00  0.00    +0.000 A 
ATOM     31  C   UNL     1       2.425   1.400   0.730  0.00  0.00    +0.005 A 
ATOM     32  C   UNL     1       2.380   0.029   0.557  0.00  0.00    -0.030 A 
ATOM     33  C   UNL     1       1.178  -0.644   0.672  0.00  0.00    +0.005 A 
ATOM     34  C   UNL     1       0.020   0.055   0.957  0.00  0.00    +0.000 A 
ENDBRANCH  28  32
ENDBRANCH   1  28
TORSDOF 5
