REMARK  Name = ZINC32213746
REMARK  4 active torsions:
REMARK  status: ('A' for Active; 'I' for Inactive)
REMARK    1  A    between atoms: C_4  and  C_8
REMARK    2  A    between atoms: C_8  and  C_9
REMARK    3  A    between atoms: C_9  and  C_11
REMARK    4  A    between atoms: C_9  and  N_18
REMARK                            x       y       z     vdW  Elec       q    Type
REMARK                         _______ _______ _______ _____ _____    ______ ____
ROOT
ATOM      1  C   UNL     1      -1.332   2.114   0.020  0.00  0.00    +0.153 C 
ENDROOT
BRANCH   1   2
ATOM      2  C   UNL     1      -0.017   1.378   0.010  0.00  0.00    -0.022 A 
ATOM      3  C   UNL     1       1.171   2.086   0.002  0.00  0.00    +0.007 A 
ATOM      4  C   UNL     1       2.377   1.412  -0.013  0.00  0.00    +0.020 A 
ATOM      5  C   UNL     1       2.397   0.029  -0.021  0.00  0.00    +0.041 A 
ATOM      6  C   UNL     1       1.208  -0.679  -0.013  0.00  0.00    +0.020 A 
ATOM      7  C   UNL     1       0.002  -0.004   0.002  0.00  0.00    +0.007 A 
ATOM      8 CL   UNL     1       3.912  -0.818  -0.039  0.00  0.00    -0.084 Cl
ENDBRANCH   1   2
BRANCH   1   9
ATOM      9  N   UNL     1      -1.238   3.271   0.913  0.00  0.00    -0.197 NA
ATOM     10  C   UNL     1      -2.002   3.363   1.899  0.00  0.00    +0.235 C 
ATOM     11  O   UNL     1      -2.740   3.453   2.851  0.00  0.00    -0.210 OA
ENDBRANCH   1   9
BRANCH   1  12
ATOM     12  C   UNL     1      -1.662   2.589  -1.397  0.00  0.00    +0.072 C 
BRANCH  12  16
ATOM     13  C   UNL     1      -5.548   4.367  -1.434  0.00  0.00    +0.004 A 
ATOM     14  C   UNL     1      -5.407   3.013  -1.673  0.00  0.00    +0.039 A 
ATOM     15  C   UNL     1      -4.148   2.437  -1.667  0.00  0.00    +0.128 A 
ATOM     16  C   UNL     1      -3.032   3.216  -1.410  0.00  0.00    +0.008 A 
ATOM     17  C   UNL     1      -3.176   4.570  -1.171  0.00  0.00    +0.047 A 
ATOM     18  C   UNL     1      -4.434   5.145  -1.184  0.00  0.00    +0.020 A 
ATOM     19 CL   UNL     1      -1.777   5.549  -0.857  0.00  0.00    -0.083 Cl
ATOM     20  F   UNL     1      -4.008   1.114  -1.906  0.00  0.00    -0.205 F 
ENDBRANCH  12  16
ENDBRANCH   1  12
TORSDOF 4
