REMARK  Name = ZINC66176932
REMARK  3 active torsions:
REMARK  status: ('A' for Active; 'I' for Inactive)
REMARK    1  A    between atoms: N_4  and  C_6
REMARK    2  A    between atoms: N_14  and  C_15
REMARK    3  A    between atoms: C_21  and  C_23
REMARK                            x       y       z     vdW  Elec       q    Type
REMARK                         _______ _______ _______ _____ _____    ______ ____
ROOT
ATOM      1  C   UNL     1       1.618  -1.641   0.747  0.00  0.00    -0.049 C 
ATOM      2  C   UNL     1       0.886  -2.846   0.099  0.00  0.00    +0.005 C 
ATOM      3  C   UNL     1       1.709  -4.055   0.591  0.00  0.00    +0.108 C 
ATOM      4  N   UNL     1       3.043  -3.556   0.957  0.00  0.00    -0.287 N 
ATOM      5  C   UNL     1       3.094  -2.106   0.692  0.00  0.00    +0.094 C 
ATOM      6  C   UNL     1       4.051  -4.300   1.453  0.00  0.00    +0.302 C 
ATOM      7  O   UNL     1       5.117  -3.778   1.721  0.00  0.00    -0.253 OA
ATOM      8  N   UNL     1       3.879  -5.621   1.652  0.00  0.00    -0.296 N 
ATOM      9  H   UNL     1       3.030  -6.037   1.438  0.00  0.00    +0.151 HD
ENDROOT
BRANCH   8  10
ATOM     10  C   UNL     1       4.975  -6.430   2.191  0.00  0.00    +0.077 C 
ATOM     11  C   UNL     1       4.967  -6.346   3.719  0.00  0.00    +0.041 C 
ATOM     12  C   UNL     1       6.135  -7.165   4.278  0.00  0.00    +0.109 C 
ATOM     13  N   UNL     1       6.050  -8.533   3.748  0.00  0.00    -0.301 N 
ATOM     14  C   UNL     1       5.962  -8.722   2.294  0.00  0.00    +0.109 C 
ATOM     15  C   UNL     1       4.796  -7.887   1.757  0.00  0.00    +0.041 C 
ATOM     16  C   UNL     1       6.054  -9.593   4.580  0.00  0.00    +0.219 C 
ATOM     17  O   UNL     1       6.128  -9.423   5.779  0.00  0.00    -0.275 OA
BRANCH  16  18
ATOM     18  C   UNL     1       5.967 -10.989   4.021  0.00  0.00    +0.075 C 
ATOM     19  C   UNL     1       4.683 -11.778   4.288  0.00  0.00    +0.013 C 
ATOM     20  C   UNL     1       5.976 -12.151   5.017  0.00  0.00    +0.013 C 
ENDBRANCH  16  18
ENDBRANCH   8  10
BRANCH   1  24
ATOM     21  C   UNL     1      -0.019   1.536   0.011  0.00  0.00    -0.020 C 
ATOM     22  C   UNL     1       1.468   1.960  -0.001  0.00  0.00    -0.020 C 
ATOM     23  C   UNL     1       2.191   0.705   0.550  0.00  0.00    -0.078 C 
ATOM     24  N   UNL     1       1.421  -0.418  -0.044  0.00  0.00    +0.383 N 
ATOM     25  C   UNL     1       0.002  -0.004   0.002  0.00  0.00    -0.078 C 
ATOM     26  H   UNL     1       1.708  -0.571  -0.999  0.00  0.00    -0.081 HD
ENDBRANCH   1  24
TORSDOF 3
