REMARK  Name = ZINC01119068
REMARK  7 active torsions:
REMARK  status: ('A' for Active; 'I' for Inactive)
REMARK    1  A    between atoms: C_1  and  O_2
REMARK    2  A    between atoms: O_2  and  C_3
REMARK    3  A    between atoms: C_8  and  N_9
REMARK    4  A    between atoms: N_9  and  C_10
REMARK    5  A    between atoms: C_10  and  N_12
REMARK    6  A    between atoms: N_12  and  N_13
REMARK    7  A    between atoms: C_14  and  C_16
REMARK                            x       y       z     vdW  Elec       q    Type
REMARK                         _______ _______ _______ _____ _____    ______ ____
ROOT
ATOM      1  N   UNL     1       4.713   5.246  -0.219  0.00  0.00    -0.234 N 
ATOM      2  C   UNL     1       5.867   5.933  -0.329  0.00  0.00    +0.241 C 
ATOM      3  O   UNL     1       5.847   7.142  -0.413  0.00  0.00    -0.273 OA
ATOM      4  H   UNL     1       4.728   4.278  -0.151  0.00  0.00    +0.173 HD
ENDROOT
BRANCH   2   5
ATOM      5  C   UNL     1       7.182   5.197  -0.345  0.00  0.00    +0.143 C 
ATOM      6  C   UNL     1       7.330   4.415   0.931  0.00  0.00    +0.011 A 
ATOM      7  C   UNL     1       6.646   3.220   1.077  0.00  0.00    +0.008 A 
ATOM      8  C   UNL     1       6.770   2.486   2.241  0.00  0.00    +0.001 A 
ATOM      9  C   UNL     1       7.578   2.943   3.266  0.00  0.00    +0.004 A 
ATOM     10  C   UNL     1       8.262   4.134   3.125  0.00  0.00    +0.046 A 
ATOM     11  C   UNL     1       8.140   4.875   1.955  0.00  0.00    +0.133 A 
ATOM     12  O   UNL     1       8.820   6.040   1.836  0.00  0.00    -0.455 OA
ATOM     13  C   UNL     1       9.065   6.561   0.610  0.00  0.00    +0.133 A 
ATOM     14  C   UNL     1       8.304   6.190  -0.487  0.00  0.00    +0.011 A 
ATOM     15  C   UNL     1       8.575   6.736  -1.729  0.00  0.00    +0.008 A 
ATOM     16  C   UNL     1       9.601   7.649  -1.880  0.00  0.00    +0.001 A 
ATOM     17  C   UNL     1      10.362   8.021  -0.787  0.00  0.00    +0.004 A 
ATOM     18  C   UNL     1      10.096   7.480   0.455  0.00  0.00    +0.046 A 
ENDBRANCH   2   5
BRANCH   1  19
ATOM     19  N   UNL     1       3.490   5.929  -0.204  0.00  0.00    -0.246 N 
ATOM     20  H   UNL     1       3.474   6.897  -0.272  0.00  0.00    +0.172 HD
BRANCH  19  21
ATOM     21  C   UNL     1       2.335   5.243  -0.094  0.00  0.00    +0.151 C 
ATOM     22  S   UNL     1       0.841   6.078  -0.075  0.00  0.00    -0.017 S 
BRANCH  21  23
ATOM     23  N   UNL     1       2.357   3.898   0.000  0.00  0.00    -0.293 N 
ATOM     24  H   UNL     1       3.205   3.430   0.053  0.00  0.00    +0.154 HD
BRANCH  23  30
ATOM     25  C   UNL     1       0.998   2.059  -0.792  0.00  0.00    +0.141 A 
ATOM     26  C   UNL     1      -0.193   1.350  -0.767  0.00  0.00    +0.049 A 
ATOM     27  C   UNL     1      -1.223   1.757   0.060  0.00  0.00    +0.024 A 
ATOM     28  C   UNL     1      -1.065   2.866   0.874  0.00  0.00    +0.043 A 
ATOM     29  C   UNL     1       0.120   3.578   0.854  0.00  0.00    +0.047 A 
ATOM     30  C   UNL     1       1.155   3.178   0.022  0.00  0.00    +0.076 A 
ATOM     31 CL   UNL     1      -2.360   3.367   1.915  0.00  0.00    -0.083 Cl
BRANCH  25  33
ATOM     32  C   UNL     1       1.777   0.506  -2.416  0.00  0.00    +0.277 C 
ATOM     33  O   UNL     1       2.009   1.663  -1.609  0.00  0.00    -0.493 OA
ENDBRANCH  25  33
ENDBRANCH  23  30
ENDBRANCH  21  23
ENDBRANCH  19  21
ENDBRANCH   1  19
TORSDOF 6
