REMARK  Name = ZINC38731028
REMARK  4 active torsions:
REMARK  status: ('A' for Active; 'I' for Inactive)
REMARK    1  A    between atoms: C_1  and  C_2
REMARK    2  A    between atoms: C_2  and  C_3
REMARK    3  A    between atoms: C_17  and  C_19
REMARK    4  A    between atoms: C_29  and  C_31
REMARK                            x       y       z     vdW  Elec       q    Type
REMARK                         _______ _______ _______ _____ _____    ______ ____
ROOT
ATOM      1  C   UNL     1       0.731  -0.503   1.223  0.00  0.00    -0.047 A 
ATOM      2  C   UNL     1       2.103  -0.710   1.173  0.00  0.00    +0.007 A 
ATOM      3  C   UNL     1       2.787  -1.168   2.276  0.00  0.00    +0.047 A 
ATOM      4  C   UNL     1       2.104  -1.430   3.464  0.00  0.00    +0.139 A 
ATOM      5  C   UNL     1       0.717  -1.212   3.504  0.00  0.00    +0.065 A 
ATOM      6  C   UNL     1       0.040  -0.746   2.377  0.00  0.00    +0.019 A 
ATOM      7  C   UNL     1      -0.017  -1.474   4.768  0.00  0.00    +0.199 A 
ATOM      8  O   UNL     1      -1.233  -1.475   4.845  0.00  0.00    -0.287 OA
ATOM      9  C   UNL     1       0.861  -1.733   5.913  0.00  0.00    +0.072 A 
ATOM     10  C   UNL     1       2.204  -1.919   5.744  0.00  0.00    +0.199 A 
ATOM     11  O   UNL     1       2.795  -1.887   4.533  0.00  0.00    -0.450 OA
ATOM     12  C   UNL     1       2.810  -2.147   7.066  0.00  0.00    +0.289 C 
ATOM     13  O   UNL     1       3.992  -2.342   7.266  0.00  0.00    -0.266 OA
ATOM     14  N   UNL     1       1.861  -2.105   8.024  0.00  0.00    -0.230 N 
ATOM     15  C   UNL     1       0.567  -1.844   7.373  0.00  0.00    +0.152 C 
ATOM     16  C   UNL     1       2.069  -2.278   9.386  0.00  0.00    +0.191 A 
ATOM     17  N   UNL     1       1.204  -2.260  10.391  0.00  0.00    -0.125 NA
ATOM     18  N   UNL     1       1.567  -2.437  11.586  0.00  0.00    -0.145 NA
ATOM     19  C   UNL     1       2.826  -2.652  11.912  0.00  0.00    +0.101 A 
ATOM     20  S   UNL     1       3.582  -2.597  10.290  0.00  0.00    -0.035 S 
ATOM     21  C   UNL     1       3.451  -2.884  13.264  0.00  0.00    +0.075 C 
ENDROOT
BRANCH  15  22
ATOM     22  C   UNL     1      -0.022  -0.555   7.885  0.00  0.00    -0.021 A 
ATOM     23  C   UNL     1       0.804   0.516   8.172  0.00  0.00    +0.006 A 
ATOM     24  C   UNL     1       0.264   1.699   8.641  0.00  0.00    +0.001 A 
ATOM     25  C   UNL     1      -1.101   1.812   8.824  0.00  0.00    +0.015 A 
ATOM     26  C   UNL     1      -1.928   0.741   8.537  0.00  0.00    +0.018 A 
ATOM     27  C   UNL     1      -1.388  -0.441   8.062  0.00  0.00    +0.021 A 
ATOM     28 BR   UNL     1      -3.796   0.894   8.787  0.00  0.00    -0.050 Br
ENDBRANCH  15  22
BRANCH   1  30
ATOM     29  C   UNL     1      -0.019   1.526   0.010  0.00  0.00    +0.009 C 
ATOM     30  C   UNL     1       0.002  -0.004   0.002  0.00  0.00    +0.032 C 
ENDBRANCH   1  30
TORSDOF 2
