REMARK  Name = ZINC50177526
REMARK  10 active torsions:
REMARK  status: ('A' for Active; 'I' for Inactive)
REMARK    1  A    between atoms: C_1  and  C_2
REMARK    2  A    between atoms: C_5  and  C_9
REMARK    3  A    between atoms: C_6  and  C_8
REMARK    4  A    between atoms: C_15  and  C_17
REMARK    5  A    between atoms: N_19  and  C_20
REMARK    6  A    between atoms: C_20  and  C_21
REMARK    7  A    between atoms: N_23  and  C_24
REMARK    8  A    between atoms: C_24  and  C_25
REMARK    9  A    between atoms: C_25  and  C_26
REMARK   10  A    between atoms: C_25  and  C_27
REMARK                            x       y       z     vdW  Elec       q    Type
REMARK                         _______ _______ _______ _____ _____    ______ ____
ROOT
ATOM      1  C   UNL     1       0.059  -4.251  -0.021  0.00  0.00    +0.134 A 
ATOM      2  N   UNL     1       0.070  -5.110   0.992  0.00  0.00    -0.140 NA
ATOM      3  N   UNL     1       0.086  -6.357   0.807  0.00  0.00    -0.125 NA
ATOM      4  C   UNL     1       0.094  -6.886  -0.411  0.00  0.00    +0.188 A 
ATOM      5  S   UNL     1       0.068  -5.394  -1.400  0.00  0.00    -0.030 S 
ATOM      6  N   UNL     1       0.113  -8.216  -0.805  0.00  0.00    -0.255 N 
ATOM      7  C   UNL     1       0.125  -9.193   0.123  0.00  0.00    +0.305 C 
ATOM      8  O   UNL     1       0.120  -8.910   1.303  0.00  0.00    -0.265 OA
ATOM      9  H   UNL     1       0.117  -8.442  -1.748  0.00  0.00    +0.157 HD
ENDROOT
BRANCH   1  14
ATOM     10  C   UNL     1      -0.018   1.503   0.010  0.00  0.00    +0.044 C 
ATOM     11  C   UNL     1       0.002  -0.004   0.002  0.00  0.00    -0.050 A 
ATOM     12  C   UNL     1       0.006  -0.686  -1.202  0.00  0.00    +0.004 A 
ATOM     13  C   UNL     1       0.024  -2.066  -1.216  0.00  0.00    +0.011 A 
ATOM     14  C   UNL     1       0.040  -2.773  -0.013  0.00  0.00    +0.012 A 
ATOM     15  C   UNL     1       0.036  -2.079   1.197  0.00  0.00    -0.040 A 
ATOM     16  C   UNL     1       0.023  -0.699   1.198  0.00  0.00    +0.007 A 
ATOM     17  C   UNL     1       0.052  -2.834   2.501  0.00  0.00    +0.044 C 
ENDBRANCH   1  14
BRANCH   7  18
ATOM     18  C   UNL     1       0.145 -10.625  -0.301  0.00  0.00    +0.300 C 
ATOM     19  O   UNL     1       0.150 -10.908  -1.481  0.00  0.00    -0.265 OA
ATOM     20  N   UNL     1       0.157 -11.602   0.627  0.00  0.00    -0.299 N 
ATOM     21  H   UNL     1       0.153 -11.376   1.570  0.00  0.00    +0.150 HD
BRANCH  20  22
ATOM     22  C   UNL     1       0.176 -13.007   0.211  0.00  0.00    +0.200 C 
BRANCH  22  23
ATOM     23  C   UNL     1       0.187 -13.892   1.431  0.00  0.00    +0.230 C 
ATOM     24  O   UNL     1       0.179 -13.398   2.538  0.00  0.00    -0.274 OA
ATOM     25  N   UNL     1       0.205 -15.232   1.290  0.00  0.00    -0.314 N 
ATOM     26  H   UNL     1       0.211 -15.627   0.404  0.00  0.00    +0.149 HD
BRANCH  25  27
ATOM     27  C   UNL     1       0.215 -16.093   2.476  0.00  0.00    +0.107 C 
BRANCH  27  28
ATOM     28  C   UNL     1       0.235 -17.559   2.042  0.00  0.00    -0.000 C 
ATOM     29  C   UNL     1       0.372 -18.455   3.275  0.00  0.00    +0.009 C 
ATOM     30  C   UNL     1      -1.067 -17.893   1.311  0.00  0.00    +0.009 C 
ENDBRANCH  27  28
ENDBRANCH  25  27
ENDBRANCH  22  23
ENDBRANCH  20  22
ENDBRANCH   7  18
TORSDOF 6
