REMARK  Name = ZINC00086661
REMARK  4 active torsions:
REMARK  status: ('A' for Active; 'I' for Inactive)
REMARK    1  A    between atoms: C_1  and  C_2
REMARK    2  A    between atoms: C_5  and  C_7
REMARK    3  A    between atoms: C_19  and  S_22
REMARK    4  A    between atoms: S_22  and  C_23
REMARK                            x       y       z     vdW  Elec       q    Type
REMARK                         _______ _______ _______ _____ _____    ______ ____
ROOT
ATOM      1  C   UNL     1      -0.562   5.916  -1.203  0.00  0.00    +0.300 C 
ATOM      2  N   UNL     1      -0.067   5.245  -0.005  0.00  0.00    -0.305 N 
ATOM      3  C   UNL     1      -0.026   3.848   0.015  0.00  0.00    +0.039 A 
ATOM      4  C   UNL     1       1.175   3.163   0.001  0.00  0.00    +0.024 A 
ATOM      5  C   UNL     1       1.179   1.780   0.000  0.00  0.00    +0.002 A 
ATOM      6  C   UNL     1      -0.013   1.076   0.008  0.00  0.00    +0.001 A 
ATOM      7  C   UNL     1      -1.220   1.746   0.017  0.00  0.00    +0.012 A 
ATOM      8  C   UNL     1      -1.239   3.135   0.033  0.00  0.00    +0.028 A 
ATOM      9  C   UNL     1      -2.507   3.892   0.074  0.00  0.00    +0.156 A 
ATOM     10  C   UNL     1      -2.705   4.972  -0.816  0.00  0.00    +0.248 A 
ATOM     11  N   UNL     1      -3.841   5.646  -0.755  0.00  0.00    -0.184 NA
ATOM     12  C   UNL     1      -4.763   5.287   0.134  0.00  0.00    +0.212 A 
ATOM     13  N   UNL     1      -4.560   4.266   0.956  0.00  0.00    -0.122 NA
ATOM     14  N   UNL     1      -3.468   3.584   0.932  0.00  0.00    -0.141 NA
ATOM     15  O   UNL     1      -1.739   5.295  -1.708  0.00  0.00    -0.448 OA
ATOM     16  H   UNL     1       0.228   5.759   0.762  0.00  0.00    +0.150 HD
ENDROOT
BRANCH   1  21
ATOM     17  C   UNL     1       3.730   4.927  -4.765  0.00  0.00    +0.051 C 
ATOM     18  C   UNL     1       2.550   5.408  -3.960  0.00  0.00    -0.013 A 
ATOM     19  C   UNL     1       1.801   6.525  -4.128  0.00  0.00    +0.011 A 
ATOM     20  C   UNL     1       0.750   6.763  -3.262  0.00  0.00    +0.017 A 
ATOM     21  C   UNL     1       0.507   5.879  -2.265  0.00  0.00    +0.049 A 
ATOM     22  S   UNL     1       1.776   4.654  -2.539  0.00  0.00    -0.093 S 
ENDBRANCH   1  21
BRANCH  12  23
ATOM     23  S   UNL     1      -6.278   6.183   0.220  0.00  0.00    -0.088 S 
ATOM     24  C   UNL     1      -7.102   5.279   1.554  0.00  0.00    +0.093 C 
ENDBRANCH  12  23
TORSDOF 2
