REMARK  Name = ZINC46285606
REMARK  7 active torsions:
REMARK  status: ('A' for Active; 'I' for Inactive)
REMARK    1  A    between atoms: C_1  and  N_2
REMARK    2  A    between atoms: C_6  and  C_7
REMARK    3  A    between atoms: N_9  and  N_10
REMARK    4  A    between atoms: N_13  and  C_14
REMARK    5  A    between atoms: C_14  and  C_15
REMARK    6  A    between atoms: N_21  and  C_22
REMARK    7  A    between atoms: N_21  and  C_23
REMARK                            x       y       z     vdW  Elec       q    Type
REMARK                         _______ _______ _______ _____ _____    ______ ____
ROOT
ATOM      1  N   UNL     1      -0.423   1.417   4.205  0.00  0.00    -0.218 N 
ATOM      2  C   UNL     1      -0.617   2.726   4.461  0.00  0.00    +0.316 C 
ATOM      3  O   UNL     1      -0.616   3.128   5.609  0.00  0.00    -0.251 OA
ATOM      4  N   UNL     1      -0.812   3.590   3.445  0.00  0.00    -0.294 N 
ATOM      5  H   UNL     1      -0.283   0.796   4.937  0.00  0.00    +0.174 HD
ATOM      6  H   UNL     1      -0.813   3.269   2.529  0.00  0.00    +0.151 HD
ENDROOT
BRANCH   1   9
ATOM      7  C   UNL     1      -0.231  -0.355   2.628  0.00  0.00    +0.277 C 
ATOM      8  O   UNL     1      -0.147  -1.148   3.546  0.00  0.00    -0.267 OA
ATOM      9  N   UNL     1      -0.425   0.954   2.883  0.00  0.00    -0.228 N 
ATOM     10  H   UNL     1      -0.565   1.576   2.152  0.00  0.00    +0.173 HD
BRANCH   7  16
ATOM     11  C   UNL     1       0.003  -3.304   1.711  0.00  0.00    +0.149 C 
ATOM     12  N   UNL     1      -0.017  -2.133   0.832  0.00  0.00    -0.345 N 
ATOM     13  C   UNL     1       0.057  -2.159  -0.522  0.00  0.00    +0.101 A 
ATOM     14  C   UNL     1       0.009  -0.887  -0.988  0.00  0.00    +0.036 A 
ATOM     15  C   UNL     1      -0.100  -0.031   0.114  0.00  0.00    +0.047 A 
ATOM     16  C   UNL     1      -0.121  -0.823   1.242  0.00  0.00    +0.107 A 
ATOM     17 BR   UNL     1       0.076  -0.363  -2.803  0.00  0.00    -0.049 Br
ENDBRANCH   7  16
ENDBRANCH   1   9
BRANCH   4  18
ATOM     18  C   UNL     1      -1.023   5.013   3.723  0.00  0.00    +0.141 C 
BRANCH  18  19
ATOM     19  C   UNL     1      -1.215   5.755   2.425  0.00  0.00    -0.026 A 
ATOM     20  C   UNL     1      -0.128   6.287   1.744  0.00  0.00    +0.023 A 
ATOM     21  C   UNL     1      -0.337   6.961   0.558  0.00  0.00    +0.084 A 
ATOM     22  N   UNL     1      -1.553   7.104   0.066  0.00  0.00    -0.350 N 
ATOM     23  C   UNL     1      -2.615   6.612   0.686  0.00  0.00    +0.098 A 
ATOM     24  C   UNL     1      -2.477   5.917   1.883  0.00  0.00    +0.047 A 
ATOM     25  N   UNL     1      -3.878   6.787   0.132  0.00  0.00    -0.323 N 
ATOM     26  C   UNL     1      -4.047   7.626  -1.057  0.00  0.00    +0.130 C 
ATOM     27  C   UNL     1      -5.040   6.133   0.738  0.00  0.00    +0.130 C 
ATOM     28  H   UNL     1      -1.672   7.582  -0.769  0.00  0.00    +0.166 HD
ENDBRANCH  18  19
ENDBRANCH   4  18
TORSDOF 4
