REMARK  Name = ZINC09496756
REMARK  6 active torsions:
REMARK  status: ('A' for Active; 'I' for Inactive)
REMARK    1  A    between atoms: C_1  and  C_2
REMARK    2  A    between atoms: C_2  and  C_3
REMARK    3  A    between atoms: C_3  and  N_58
REMARK    4  A    between atoms: C_13  and  C_15
REMARK    5  A    between atoms: C_20  and  O_21
REMARK    6  A    between atoms: O_21  and  C_22
REMARK                            x       y       z     vdW  Elec       q    Type
REMARK                         _______ _______ _______ _____ _____    ______ ____
ROOT
ATOM      1  C   UNL     1      -0.594  -2.525   1.381  0.00  0.00    -0.073 C 
ATOM      2  C   UNL     1      -0.552  -4.047   1.217  0.00  0.00    +0.052 C 
ATOM      3  C   UNL     1       0.383  -4.643   2.267  0.00  0.00    +0.189 C 
ATOM      4  C   UNL     1       1.772  -4.020   2.136  0.00  0.00    +0.052 C 
ATOM      5  C   UNL     1       1.660  -2.500   2.272  0.00  0.00    -0.073 C 
ATOM      6  N   UNL     1      -0.151  -4.402   3.610  0.00  0.00    -0.207 N 
ATOM      7  C   UNL     1       0.518  -4.972   4.802  0.00  0.00    +0.136 C 
ATOM      8  C   UNL     1      -0.542  -4.846   5.904  0.00  0.00    +0.086 C 
ATOM      9  C   UNL     1      -1.601  -3.946   5.253  0.00  0.00    +0.072 C 
ATOM     10  N   UNL     1      -1.293  -3.737   4.015  0.00  0.00    -0.184 NA
ATOM     11  C   UNL     1       0.824  -6.410   4.473  0.00  0.00    +0.018 A 
ATOM     12  C   UNL     1       1.144  -7.283   5.495  0.00  0.00    +0.024 A 
ATOM     13  C   UNL     1       1.453  -8.601   5.217  0.00  0.00    +0.018 A 
ATOM     14  C   UNL     1       1.439  -9.046   3.907  0.00  0.00    +0.019 A 
ATOM     15  C   UNL     1       1.112  -8.181   2.886  0.00  0.00    +0.047 A 
ATOM     16  C   UNL     1       0.793  -6.850   3.158  0.00  0.00    +0.129 A 
ATOM     17  O   UNL     1       0.464  -6.060   2.103  0.00  0.00    -0.467 OA
ATOM     18 BR   UNL     1       1.892  -9.790   6.620  0.00  0.00    -0.050 Br
ATOM     19  N   UNL     1       0.773  -1.988   1.206  0.00  0.00    +0.380 N 
ATOM     20  H   UNL     1       1.137  -2.292   0.296  0.00  0.00    -0.082 HD
ENDROOT
BRANCH   9  21
ATOM     21  C   UNL     1      -2.783  -3.396   5.942  0.00  0.00    +0.040 A 
ATOM     22  C   UNL     1      -3.013  -3.692   7.287  0.00  0.00    +0.013 A 
ATOM     23  C   UNL     1      -4.120  -3.173   7.925  0.00  0.00    +0.001 A 
ATOM     24  C   UNL     1      -5.004  -2.359   7.239  0.00  0.00    +0.004 A 
ATOM     25  C   UNL     1      -4.787  -2.058   5.907  0.00  0.00    +0.046 A 
ATOM     26  C   UNL     1      -3.677  -2.566   5.252  0.00  0.00    +0.136 A 
BRANCH  26  27
ATOM     27  O   UNL     1      -3.459  -2.266   3.945  0.00  0.00    -0.434 OA
BRANCH  27  28
ATOM     28  C   UNL     1      -4.413  -1.415   3.308  0.00  0.00    +0.541 C 
ATOM     29  F   UNL     1      -5.676  -2.016   3.350  0.00  0.00    -0.166 F 
ATOM     30  F   UNL     1      -4.459  -0.185   3.973  0.00  0.00    -0.166 F 
ENDBRANCH  27  28
ENDBRANCH  26  27
ENDBRANCH   9  21
BRANCH  19  31
ATOM     31  C   UNL     1       0.742  -0.511   1.242  0.00  0.00    -0.079 C 
BRANCH  31  33
ATOM     32  C   UNL     1      -0.019   1.526   0.010  0.00  0.00    +0.002 C 
ATOM     33  C   UNL     1       0.002  -0.004   0.002  0.00  0.00    -0.022 C 
ENDBRANCH  31  33
ENDBRANCH  19  31
TORSDOF 5
