REMARK  Name = ZINC20803280
REMARK  4 active torsions:
REMARK  status: ('A' for Active; 'I' for Inactive)
REMARK    1  A    between atoms: C_1  and  C_2
REMARK    2  A    between atoms: C_4  and  C_21
REMARK    3  A    between atoms: C_6  and  C_14
REMARK    4  A    between atoms: N_23  and  C_24
REMARK                            x       y       z     vdW  Elec       q    Type
REMARK                         _______ _______ _______ _____ _____    ______ ____
ROOT
ATOM      1  C   UNL     1      -3.860   5.816   1.035  0.00  0.00    +0.028 C 
ATOM      2  C   UNL     1      -5.048   4.851   1.032  0.00  0.00    +0.084 C 
ATOM      3  C   UNL     1      -4.766   3.691   0.071  0.00  0.00    +0.124 C 
ATOM      4  C   UNL     1      -5.931   2.694   0.108  0.00  0.00    +0.154 C 
ATOM      5  N   UNL     1      -7.186   3.429  -0.044  0.00  0.00    -0.225 N 
ATOM      6  C   UNL     1      -7.322   4.760   0.173  0.00  0.00    +0.214 A 
ATOM      7  N   UNL     1      -8.566   5.082  -0.057  0.00  0.00    -0.202 NA
ATOM      8  C   UNL     1      -9.250   3.991  -0.419  0.00  0.00    +0.247 A 
ATOM      9  N   UNL     1      -8.444   2.959  -0.423  0.00  0.00    -0.156 NA
ATOM     10  N   UNL     1      -6.259   5.559   0.572  0.00  0.00    -0.310 N 
ATOM     11  H   UNL     1      -6.281   6.659   0.560  0.00  0.00    +0.149 HD
ENDROOT
BRANCH   4  12
ATOM     12  C   UNL     1      -5.786   1.705  -1.020  0.00  0.00    -0.022 A 
ATOM     13  C   UNL     1      -5.774   2.147  -2.330  0.00  0.00    +0.007 A 
ATOM     14  C   UNL     1      -5.636   1.241  -3.364  0.00  0.00    +0.015 A 
ATOM     15  C   UNL     1      -5.520  -0.110  -3.089  0.00  0.00    +0.018 A 
ATOM     16  C   UNL     1      -5.537  -0.552  -1.779  0.00  0.00    +0.015 A 
ATOM     17  C   UNL     1      -5.670   0.355  -0.745  0.00  0.00    +0.007 A 
ATOM     18 BR   UNL     1      -5.338  -1.351  -4.504  0.00  0.00    -0.050 Br
ENDBRANCH   4  12
BRANCH   3  19
ATOM     19  C   UNL     1      -3.496   2.993   0.487  0.00  0.00    +0.224 C 
ATOM     20  O   UNL     1      -3.551   1.971   1.138  0.00  0.00    -0.275 OA
ATOM     21  N   UNL     1      -2.300   3.505   0.135  0.00  0.00    -0.285 N 
ATOM     22  H   UNL     1      -2.247   4.471  -0.388  0.00  0.00    +0.155 HD
BRANCH  21  23
ATOM     23  C   UNL     1      -1.125   2.807   0.435  0.00  0.00    +0.033 A 
ATOM     24  C   UNL     1      -1.035   2.066   1.606  0.00  0.00    +0.023 A 
ATOM     25  C   UNL     1       0.127   1.382   1.902  0.00  0.00    +0.002 A 
ATOM     26  C   UNL     1       1.198   1.425   1.028  0.00  0.00    +0.000 A 
ATOM     27  C   UNL     1       1.111   2.159  -0.141  0.00  0.00    +0.002 A 
ATOM     28  C   UNL     1      -0.048   2.849  -0.440  0.00  0.00    +0.023 A 
ENDBRANCH  21  23
ENDBRANCH   3  19
TORSDOF 3
