REMARK  Name = ZINC62047800
REMARK  15 active torsions:
REMARK  status: ('A' for Active; 'I' for Inactive)
REMARK    1  A    between atoms: C_3  and  C_12
REMARK    2  A    between atoms: N_6  and  C_8
REMARK    3  A    between atoms: C_8  and  C_9
REMARK    4  A    between atoms: C_9  and  C_10
REMARK    5  A    between atoms: N_14  and  C_15
REMARK    6  A    between atoms: C_15  and  C_16
REMARK    7  A    between atoms: C_16  and  C_17
REMARK    8  A    between atoms: C_17  and  C_18
REMARK    9  A    between atoms: C_18  and  C_19
REMARK   10  A    between atoms: C_19  and  C_20
REMARK   11  A    between atoms: C_20  and  C_21
REMARK   12  A    between atoms: C_21  and  C_22
REMARK   13  A    between atoms: C_22  and  C_23
REMARK   14  A    between atoms: C_23  and  C_24
REMARK   15  A    between atoms: C_24  and  C_25
REMARK                            x       y       z     vdW  Elec       q    Type
REMARK                         _______ _______ _______ _____ _____    ______ ____
ROOT
ATOM      1  C   UNL     1       3.588   1.936  -1.203  0.00  0.00    +0.214 C 
ATOM      2  O   UNL     1       4.479   1.114  -1.166  0.00  0.00    -0.276 OA
ATOM      3  N   UNL     1       3.884   3.251  -1.226  0.00  0.00    -0.315 N 
ATOM      4  H   UNL     1       3.171   3.908  -1.255  0.00  0.00    +0.149 HD
ENDROOT
BRANCH   1   7
ATOM      5  C   UNL     1      -0.019   1.526   0.010  0.00  0.00    -0.018 C 
ATOM      6  C   UNL     1       1.420   2.051  -0.001  0.00  0.00    +0.009 C 
ATOM      7  C   UNL     1       2.149   1.487  -1.223  0.00  0.00    +0.058 C 
ATOM      8  C   UNL     1       2.090  -0.042  -1.186  0.00  0.00    -0.066 C 
ATOM      9  N   UNL     1       0.689  -0.481  -1.204  0.00  0.00    +0.381 N 
ATOM     10  C   UNL     1       0.002  -0.004   0.002  0.00  0.00    -0.079 C 
ATOM     11  H   UNL     1       0.231  -0.107  -2.021  0.00  0.00    -0.082 HD
BRANCH   9  12
ATOM     12  C   UNL     1       0.638  -1.949  -1.247  0.00  0.00    -0.064 C 
BRANCH  12  13
ATOM     13  C   UNL     1      -0.815  -2.405  -1.391  0.00  0.00    +0.100 C 
BRANCH  13  14
ATOM     14  C   UNL     1      -0.866  -3.875  -1.434  0.00  0.00    +0.061 C 
ATOM     15  N   UNL     1      -0.905  -5.010  -1.467  0.00  0.00    -0.197 NA
ENDBRANCH  13  14
ENDBRANCH  12  13
ENDBRANCH   9  12
ENDBRANCH   1   7
BRANCH   3  16
ATOM     16  C   UNL     1       5.282   3.687  -1.206  0.00  0.00    +0.104 C 
BRANCH  16  17
ATOM     17  C   UNL     1       5.339   5.216  -1.238  0.00  0.00    +0.019 C 
BRANCH  17  18
ATOM     18  C   UNL     1       6.800   5.672  -1.217  0.00  0.00    +0.002 C 
BRANCH  18  19
ATOM     19  C   UNL     1       6.857   7.200  -1.249  0.00  0.00    +0.000 C 
BRANCH  19  20
ATOM     20  C   UNL     1       8.318   7.656  -1.228  0.00  0.00    +0.000 C 
BRANCH  20  21
ATOM     21  C   UNL     1       8.375   9.185  -1.261  0.00  0.00    +0.000 C 
BRANCH  21  22
ATOM     22  C   UNL     1       9.835   9.641  -1.240  0.00  0.00    +0.000 C 
BRANCH  22  23
ATOM     23  C   UNL     1       9.893  11.169  -1.272  0.00  0.00    +0.001 C 
BRANCH  23  24
ATOM     24  C   UNL     1      11.353  11.625  -1.252  0.00  0.00    +0.011 C 
BRANCH  24  25
ATOM     25  C   UNL     1      11.411  13.154  -1.284  0.00  0.00    +0.125 C 
BRANCH  25  26
ATOM     26  C   UNL     1      12.849  13.603  -1.263  0.00  0.00    +0.356 C 
ATOM     27  O   UNL     1      13.745  12.777  -1.226  0.00  0.00    -0.246 OA
ATOM     28  O   UNL     1      13.117  14.792  -1.284  0.00  0.00    -0.246 OA
ENDBRANCH  25  26
ENDBRANCH  24  25
ENDBRANCH  23  24
ENDBRANCH  22  23
ENDBRANCH  21  22
ENDBRANCH  20  21
ENDBRANCH  19  20
ENDBRANCH  18  19
ENDBRANCH  17  18
ENDBRANCH  16  17
ENDBRANCH   3  16
TORSDOF 15
