REMARK  Name = ZINC37376874
REMARK  6 active torsions:
REMARK  status: ('A' for Active; 'I' for Inactive)
REMARK    1  A    between atoms: C_1  and  C_2
REMARK    2  A    between atoms: C_7  and  S_8
REMARK    3  A    between atoms: S_8  and  N_11
REMARK    4  A    between atoms: N_11  and  C_12
REMARK    5  A    between atoms: C_12  and  C_17
REMARK    6  A    between atoms: C_17  and  N_18
REMARK                            x       y       z     vdW  Elec       q    Type
REMARK                         _______ _______ _______ _____ _____    ______ ____
ROOT
ATOM      1  N   UNL     1       1.681   0.971   2.693  0.00  0.00    -0.186 NA
ATOM      2  H   UNL     1       1.593   0.020   2.520  0.00  0.00    +0.149 HD
ENDROOT
BRANCH   1   3
ATOM      3  C   UNL     1       2.180   1.863   1.644  0.00  0.00    +0.025 C 
ATOM      4  C   UNL     1       2.445   1.071   0.339  0.00  0.00    +0.022 C 
ATOM      5  C   UNL     1       3.829   0.428   0.604  0.00  0.00    +0.002 C 
ATOM      6  C   UNL     1       4.611   1.517   1.368  0.00  0.00    +0.002 C 
ATOM      7  C   UNL     1       3.563   2.429   2.029  0.00  0.00    +0.022 C 
BRANCH   3   8
ATOM      8  C   UNL     1       1.188   2.999   1.392  0.00  0.00    -0.062 C 
BRANCH   8   9
ATOM      9  N   UNL     1      -0.147   2.438   1.143  0.00  0.00    +0.379 N 
ATOM     10  H   UNL     1      -0.477   1.974   1.976  0.00  0.00    -0.090 HD
ATOM     11  H   UNL     1      -0.784   3.181   0.898  0.00  0.00    -0.090 HD
ATOM     12  H   UNL     1      -0.097   1.774   0.385  0.00  0.00    -0.090 HD
ENDBRANCH   8   9
ENDBRANCH   3   8
ENDBRANCH   1   3
BRANCH   1  13
ATOM     13  S   UNL     1       1.265   1.585   4.173  0.00  0.00    +0.059 S 
ATOM     14  O   UNL     1       0.798   0.491   4.951  0.00  0.00    -0.153 OA
ATOM     15  O   UNL     1       0.470   2.737   3.926  0.00  0.00    -0.153 OA
BRANCH  13  22
ATOM     16  C   UNL     1       3.583  -0.208   4.915  0.00  0.00    +0.046 C 
ATOM     17  C   UNL     1       3.755   1.253   5.240  0.00  0.00    -0.024 A 
ATOM     18  C   UNL     1       4.922   1.696   5.835  0.00  0.00    +0.008 A 
ATOM     19  C   UNL     1       5.080   3.036   6.133  0.00  0.00    +0.039 A 
ATOM     20  C   UNL     1       4.070   3.935   5.836  0.00  0.00    +0.125 A 
ATOM     21  C   UNL     1       2.902   3.490   5.240  0.00  0.00    +0.067 A 
ATOM     22  C   UNL     1       2.748   2.150   4.938  0.00  0.00    +0.111 A 
ATOM     23  F   UNL     1       4.224   5.245   6.127  0.00  0.00    -0.205 F 
ENDBRANCH  13  22
ENDBRANCH   1  13
TORSDOF 5
