REMARK  Name = ZINC13273785
REMARK  8 active torsions:
REMARK  status: ('A' for Active; 'I' for Inactive)
REMARK    1  A    between atoms: C_3  and  N_9
REMARK    2  A    between atoms: C_6  and  C_7
REMARK    3  A    between atoms: N_9  and  S_10
REMARK    4  A    between atoms: S_10  and  C_13
REMARK    5  A    between atoms: C_16  and  O_22
REMARK    6  A    between atoms: C_17  and  N_19
REMARK    7  A    between atoms: O_22  and  C_23
REMARK    8  A    between atoms: C_28  and  C_29
REMARK                            x       y       z     vdW  Elec       q    Type
REMARK                         _______ _______ _______ _____ _____    ______ ____
ROOT
ATOM      1  C   UNL     1       2.031   8.113  -0.452  0.00  0.00    +0.111 A 
ATOM      2  C   UNL     1       0.833   7.421  -0.439  0.00  0.00    +0.032 A 
ATOM      3  C   UNL     1       0.832   6.040  -0.431  0.00  0.00    +0.050 A 
ATOM      4  C   UNL     1       2.034   5.346  -0.435  0.00  0.00    +0.159 A 
ATOM      5  C   UNL     1       3.234   6.042  -0.442  0.00  0.00    +0.170 A 
ATOM      6  C   UNL     1       3.229   7.424  -0.456  0.00  0.00    +0.065 A 
ENDROOT
BRANCH   1   7
ATOM      7  S   UNL     1       2.029   9.875  -0.464  0.00  0.00    +0.072 S 
ATOM      8  O   UNL     1       3.221  10.278  -1.124  0.00  0.00    -0.150 OA
ATOM      9  O   UNL     1       0.740  10.277  -0.906  0.00  0.00    -0.150 OA
BRANCH   7  10
ATOM     10  N   UNL     1       2.167  10.375   1.109  0.00  0.00    -0.216 N 
ATOM     11  H   UNL     1       1.432  10.844   1.535  0.00  0.00    +0.174 HD
BRANCH  10  14
ATOM     12  C   UNL     1       5.635  10.621   2.256  0.00  0.00    +0.017 A 
ATOM     13  C   UNL     1       4.481  10.867   1.557  0.00  0.00    +0.025 A 
ATOM     14  C   UNL     1       3.335  10.122   1.819  0.00  0.00    +0.048 A 
ATOM     15  C   UNL     1       3.354   9.128   2.794  0.00  0.00    +0.025 A 
ATOM     16  C   UNL     1       4.506   8.873   3.492  0.00  0.00    +0.017 A 
ATOM     17  C   UNL     1       5.660   9.620   3.232  0.00  0.00    +0.063 A 
BRANCH  17  18
ATOM     18  C   UNL     1       6.898   9.352   3.985  0.00  0.00    +0.387 C 
ATOM     19  O   UNL     1       7.900  10.002   3.757  0.00  0.00    -0.241 OA
ATOM     20  O   UNL     1       6.920   8.387   4.925  0.00  0.00    -0.241 OA
ENDBRANCH  17  18
ENDBRANCH  10  14
ENDBRANCH   7  10
ENDBRANCH   1   7
BRANCH   5  21
ATOM     21  N   UNL     1       4.518   5.306  -0.440  0.00  0.00    +0.060 N 
ATOM     22  O   UNL     1       5.571   5.917  -0.446  0.00  0.00    -0.126 OA
ATOM     23  O   UNL     1       4.521   4.088  -0.432  0.00  0.00    -0.126 OA
ENDBRANCH   5  21
BRANCH   4  24
ATOM     24  O   UNL     1       2.035   3.987  -0.427  0.00  0.00    -0.453 OA
BRANCH  24  25
ATOM     25  C   UNL     1       0.842   3.349  -0.523  0.00  0.00    +0.143 A 
ATOM     26  C   UNL     1       0.165   2.961   0.624  0.00  0.00    +0.048 A 
ATOM     27  C   UNL     1      -1.049   2.311   0.524  0.00  0.00    +0.023 A 
ATOM     28  C   UNL     1      -1.603   2.045  -0.719  0.00  0.00    +0.042 A 
ATOM     29  C   UNL     1      -0.941   2.418  -1.869  0.00  0.00    +0.038 A 
ATOM     30  C   UNL     1       0.289   3.078  -1.783  0.00  0.00    +0.107 A 
ATOM     31 CL   UNL     1      -3.134   1.234  -0.828  0.00  0.00    -0.084 Cl
BRANCH  30  32
ATOM     32  C   UNL     1       0.999   3.486  -3.008  0.00  0.00    +0.390 C 
ATOM     33  O   UNL     1       2.068   4.058  -2.928  0.00  0.00    -0.240 OA
ATOM     34  O   UNL     1       0.464   3.223  -4.216  0.00  0.00    -0.240 OA
ENDBRANCH  30  32
ENDBRANCH  24  25
ENDBRANCH   4  24
TORSDOF 8
