REMARK  Name = ZINC40685513
REMARK  7 active torsions:
REMARK  status: ('A' for Active; 'I' for Inactive)
REMARK    1  A    between atoms: C_1  and  C_2
REMARK    2  A    between atoms: C_6  and  N_8
REMARK    3  A    between atoms: C_10  and  N_29
REMARK    4  A    between atoms: C_11  and  N_15
REMARK    5  A    between atoms: N_15  and  N_16
REMARK    6  A    between atoms: N_16  and  C_17
REMARK    7  A    between atoms: N_16  and  C_23
REMARK                            x       y       z     vdW  Elec       q    Type
REMARK                         _______ _______ _______ _____ _____    ______ ____
ROOT
ATOM      1  N   UNL     1       1.132  -3.388   1.457  0.00  0.00    -0.284 N 
ATOM      2  C   UNL     1       0.855  -4.714   1.773  0.00  0.00    +0.127 A 
ATOM      3  C   UNL     1       0.495  -5.072   3.073  0.00  0.00    +0.105 A 
ATOM      4  C   UNL     1       0.228  -6.417   3.336  0.00  0.00    +0.161 A 
ATOM      5  N   UNL     1       0.326  -7.300   2.345  0.00  0.00    -0.219 NA
ATOM      6  C   UNL     1       0.670  -6.920   1.131  0.00  0.00    +0.200 A 
ATOM      7  N   UNL     1       0.925  -5.660   0.839  0.00  0.00    -0.333 N 
ATOM      8  H   UNL     1       1.209  -2.727   2.163  0.00  0.00    +0.155 HD
ATOM      9  H   UNL     1       1.170  -5.420  -0.068  0.00  0.00    +0.168 HD
ENDROOT
BRANCH   1  15
ATOM     10  C   UNL     1       0.930  -4.600  -3.171  0.00  0.00    +0.065 C 
ATOM     11  C   UNL     1       1.210  -3.567  -2.110  0.00  0.00    +0.040 A 
ATOM     12  C   UNL     1       1.614  -2.300  -2.481  0.00  0.00    +0.023 A 
ATOM     13  C   UNL     1       1.870  -1.353  -1.499  0.00  0.00    +0.005 A 
ATOM     14  C   UNL     1       1.708  -1.716  -0.174  0.00  0.00    +0.044 A 
ATOM     15  C   UNL     1       1.298  -3.010   0.128  0.00  0.00    +0.124 A 
ATOM     16  N   UNL     1       1.059  -3.883  -0.838  0.00  0.00    -0.237 NA
ENDBRANCH   1  15
BRANCH   3  17
ATOM     17  N   UNL     1       0.404  -4.107   4.088  0.00  0.00    -0.353 N 
ATOM     18  H   UNL     1       0.592  -3.176   3.891  0.00  0.00    +0.143 HD
ATOM     19  H   UNL     1       0.152  -4.371   4.987  0.00  0.00    +0.143 HD
ENDBRANCH   3  17
BRANCH   4  20
ATOM     20  N   UNL     1      -0.135  -6.828   4.613  0.00  0.00    -0.242 N 
ATOM     21  H   UNL     1      -0.204  -6.179   5.330  0.00  0.00    +0.172 HD
BRANCH  20  22
ATOM     22  N   UNL     1      -0.401  -8.181   4.865  0.00  0.00    -0.221 N 
BRANCH  22  23
ATOM     23  C   UNL     1       0.532  -8.959   5.555  0.00  0.00    +0.053 A 
ATOM     24  C   UNL     1       1.882  -8.633   5.507  0.00  0.00    +0.025 A 
ATOM     25  C   UNL     1       2.802  -9.405   6.190  0.00  0.00    +0.002 A 
ATOM     26  C   UNL     1       2.380 -10.501   6.921  0.00  0.00    +0.000 A 
ATOM     27  C   UNL     1       1.038 -10.828   6.970  0.00  0.00    +0.002 A 
ATOM     28  C   UNL     1       0.112 -10.057   6.295  0.00  0.00    +0.025 A 
ENDBRANCH  22  23
BRANCH  22  29
ATOM     29  C   UNL     1      -1.598  -8.751   4.427  0.00  0.00    +0.053 A 
ATOM     30  C   UNL     1      -2.811  -8.154   4.746  0.00  0.00    +0.025 A 
ATOM     31  C   UNL     1      -3.993  -8.720   4.311  0.00  0.00    +0.002 A 
ATOM     32  C   UNL     1      -3.970  -9.880   3.558  0.00  0.00    +0.000 A 
ATOM     33  C   UNL     1      -2.765 -10.477   3.239  0.00  0.00    +0.002 A 
ATOM     34  C   UNL     1      -1.579  -9.913   3.665  0.00  0.00    +0.025 A 
ENDBRANCH  22  29
ENDBRANCH  20  22
ENDBRANCH   4  20
TORSDOF 6
