REMARK  Name = ZINC43763130
REMARK  3 active torsions:
REMARK  status: ('A' for Active; 'I' for Inactive)
REMARK    1  A    between atoms: C_18  and  C_20
REMARK    2  A    between atoms: C_20  and  C_21
REMARK    3  A    between atoms: C_21  and  O_22
REMARK                            x       y       z     vdW  Elec       q    Type
REMARK                         _______ _______ _______ _____ _____    ______ ____
ROOT
ATOM      1  C   UNL     1      -0.019   1.549   0.011  0.00  0.00    +0.031 C 
ATOM      2  C   UNL     1       1.504   1.859  -0.002  0.00  0.00    +0.161 C 
ATOM      3  O   UNL     1       1.998   0.904  -0.972  0.00  0.00    -0.367 OA
ATOM      4  C   UNL     1       1.328  -0.344  -0.704  0.00  0.00    +0.133 C 
ATOM      5  C   UNL     1       0.002  -0.004   0.002  0.00  0.00    +0.043 C 
ATOM      6  C   UNL     1       1.030  -1.025  -2.047  0.00  0.00    +0.133 C 
ATOM      7  O   UNL     1       0.261  -0.099  -2.846  0.00  0.00    -0.367 OA
ATOM      8  C   UNL     1      -0.726  -0.875  -3.565  0.00  0.00    +0.161 C 
ATOM      9  C   UNL     1      -1.203  -1.886  -2.486  0.00  0.00    +0.031 C 
ATOM     10  C   UNL     1       0.157  -2.268  -1.833  0.00  0.00    +0.043 C 
ATOM     11  C   UNL     1       2.338  -1.360  -2.757  0.00  0.00    +0.135 C 
ATOM     12  O   UNL     1       3.006  -0.105  -3.074  0.00  0.00    -0.367 OA
ATOM     13  C   UNL     1       3.758  -0.262  -4.287  0.00  0.00    +0.161 C 
ATOM     14  C   UNL     1       3.468  -1.691  -4.813  0.00  0.00    +0.031 C 
ATOM     15  C   UNL     1       2.068  -1.927  -4.161  0.00  0.00    +0.043 C 
ATOM     16  C   UNL     1       3.260  -2.175  -1.877  0.00  0.00    +0.159 C 
ATOM     17  O   UNL     1       4.413  -2.766  -2.496  0.00  0.00    -0.358 OA
ATOM     18  C   UNL     1       3.469  -3.670  -1.916  0.00  0.00    +0.159 C 
ATOM     19  C   UNL     1       3.526  -1.521  -0.499  0.00  0.00    +0.135 C 
ATOM     20  C   UNL     1       2.191  -1.233   0.180  0.00  0.00    +0.133 C 
ATOM     21  O   UNL     1       1.523  -2.480   0.427  0.00  0.00    -0.367 OA
ATOM     22  C   UNL     1       1.290  -2.652   1.832  0.00  0.00    +0.161 C 
ATOM     23  C   UNL     1       2.369  -1.782   2.524  0.00  0.00    +0.031 C 
ATOM     24  C   UNL     1       2.427  -0.570   1.550  0.00  0.00    +0.043 C 
ATOM     25  O   UNL     1       4.296  -2.423   0.305  0.00  0.00    -0.367 OA
ATOM     26  C   UNL     1       5.681  -2.058   0.266  0.00  0.00    +0.161 C 
ATOM     27  C   UNL     1       5.814  -0.841  -0.673  0.00  0.00    +0.031 C 
ATOM     28  C   UNL     1       4.374  -0.253  -0.657  0.00  0.00    +0.043 C 
ENDROOT
BRANCH  18  29
ATOM     29  C   UNL     1       2.734  -4.630  -2.832  0.00  0.00    +0.062 C 
BRANCH  29  30
ATOM     30  C   UNL     1       3.131  -6.067  -2.487  0.00  0.00    +0.158 C 
BRANCH  30  31
ATOM     31  O   UNL     1       2.439  -6.972  -3.350  0.00  0.00    -0.395 OA
ATOM     32  H   UNL     1       2.643  -7.903  -3.188  0.00  0.00    +0.209 HD
ENDBRANCH  30  31
ENDBRANCH  29  30
ENDBRANCH  18  29
TORSDOF 3
