REMARK  Name = ZINC59936284
REMARK  7 active torsions:
REMARK  status: ('A' for Active; 'I' for Inactive)
REMARK    1  A    between atoms: C_2  and  C_3
REMARK    2  A    between atoms: N_5  and  C_6
REMARK    3  A    between atoms: C_6  and  C_7
REMARK    4  A    between atoms: C_10  and  C_13
REMARK    5  A    between atoms: N_15  and  C_16
REMARK    6  A    between atoms: N_15  and  C_22
REMARK    7  A    between atoms: C_16  and  C_17
REMARK                            x       y       z     vdW  Elec       q    Type
REMARK                         _______ _______ _______ _____ _____    ______ ____
ROOT
ATOM      1  C   UNL     1      -1.122  -8.454  -0.030  0.00  0.00    +0.251 C 
ATOM      2  O   UNL     1      -1.103  -9.047  -1.092  0.00  0.00    -0.270 OA
ATOM      3  N   UNL     1      -1.136  -9.145   1.127  0.00  0.00    -0.263 N 
ENDROOT
BRANCH   3   4
ATOM      4  C   UNL     1      -0.989 -10.537   1.113  0.00  0.00    +0.041 A 
ATOM      5  C   UNL     1      -0.868 -11.235   2.308  0.00  0.00    +0.027 A 
ATOM      6  C   UNL     1      -0.722 -12.608   2.295  0.00  0.00    +0.051 A 
ATOM      7  C   UNL     1      -0.696 -13.295   1.090  0.00  0.00    +0.162 A 
ATOM      8  C   UNL     1      -0.820 -12.600  -0.107  0.00  0.00    +0.164 A 
ATOM      9  C   UNL     1      -0.970 -11.222  -0.094  0.00  0.00    +0.073 A 
ATOM     10  O   UNL     1      -0.805 -13.258  -1.299  0.00  0.00    -0.485 OA
ATOM     11  C   UNL     1      -0.285 -14.591  -1.292  0.00  0.00    +0.270 C 
ATOM     12  C   UNL     1      -0.903 -15.342  -0.104  0.00  0.00    +0.270 C 
ATOM     13  O   UNL     1      -0.547 -14.649   1.098  0.00  0.00    -0.485 OA
ENDBRANCH   3   4
BRANCH   1  17
ATOM     14  C   UNL     1      -1.143  -4.208   0.029  0.00  0.00    -0.030 A 
ATOM     15  C   UNL     1      -0.466  -4.879  -0.974  0.00  0.00    +0.006 A 
ATOM     16  C   UNL     1      -0.455  -6.258  -0.999  0.00  0.00    +0.013 A 
ATOM     17  C   UNL     1      -1.129  -6.976  -0.010  0.00  0.00    +0.037 A 
ATOM     18  C   UNL     1      -1.810  -6.293   0.999  0.00  0.00    +0.013 A 
ATOM     19  C   UNL     1      -1.809  -4.913   1.015  0.00  0.00    +0.006 A 
BRANCH  14  20
ATOM     20  C   UNL     1      -1.151  -2.701   0.050  0.00  0.00    +0.139 C 
BRANCH  20  23
ATOM     21  C   UNL     1       0.192  -0.893   0.982  0.00  0.00    +0.237 C 
ATOM     22  O   UNL     1      -0.580  -0.100   0.478  0.00  0.00    -0.271 OA
ATOM     23  N   UNL     1      -0.006  -2.217   0.826  0.00  0.00    -0.308 N 
ATOM     24  H   UNL     1       0.609  -2.850   1.229  0.00  0.00    +0.149 HD
BRANCH  21  26
ATOM     25  C   UNL     1       1.536   0.898   1.916  0.00  0.00    +0.013 C 
ATOM     26  C   UNL     1       1.341  -0.408   1.762  0.00  0.00    +0.059 C 
ENDBRANCH  21  26
ENDBRANCH  20  23
ENDBRANCH  14  20
ENDBRANCH   1  17
BRANCH   3  27
ATOM     27  C   UNL     1      -1.305  -8.438   2.399  0.00  0.00    +0.156 C 
BRANCH  27  28
ATOM     28  C   UNL     1      -2.700  -8.670   2.921  0.00  0.00    +0.007 A 
ATOM     29  C   UNL     1      -3.154  -9.651   3.739  0.00  0.00    +0.013 A 
ATOM     30  C   UNL     1      -4.490  -9.665   4.091  0.00  0.00    +0.008 A 
ATOM     31  C   UNL     1      -5.308  -8.698   3.608  0.00  0.00    +0.045 A 
ATOM     32  S   UNL     1      -4.182  -7.719   2.628  0.00  0.00    -0.100 S 
ENDBRANCH  27  28
ENDBRANCH   3  27
TORSDOF 7
