REMARK  Name = ZINC05400767
REMARK  7 active torsions:
REMARK  status: ('A' for Active; 'I' for Inactive)
REMARK    1  A    between atoms: C_1  and  C_2
REMARK    2  A    between atoms: C_5  and  N_9
REMARK    3  A    between atoms: C_7  and  C_8
REMARK    4  A    between atoms: C_10  and  C_12
REMARK    5  A    between atoms: C_14  and  C_15
REMARK    6  A    between atoms: C_15  and  C_17
REMARK    7  A    between atoms: C_21  and  N_23
REMARK                            x       y       z     vdW  Elec       q    Type
REMARK                         _______ _______ _______ _____ _____    ______ ____
ROOT
ATOM      1  C   UNL     1      -0.786  -9.052  -4.050  0.00  0.00    +0.024 A 
ATOM      2  C   UNL     1      -0.789  -8.501  -5.335  0.00  0.00    +0.012 A 
ATOM      3  C   UNL     1      -0.769  -9.323  -6.446  0.00  0.00    +0.003 A 
ATOM      4  C   UNL     1      -0.746 -10.694  -6.297  0.00  0.00    +0.028 A 
ATOM      5  C   UNL     1      -0.742 -11.264  -5.015  0.00  0.00    +0.065 A 
ATOM      6  C   UNL     1      -0.757 -10.434  -3.887  0.00  0.00    +0.039 A 
ENDROOT
BRANCH   5   7
ATOM      7  N   UNL     1      -0.720 -12.613  -4.868  0.00  0.00    -0.247 NA
ATOM      8  C   UNL     1      -1.666 -13.216  -4.177  0.00  0.00    +0.076 C 
ATOM      9  C   UNL     1      -1.484 -14.597  -3.720  0.00  0.00    +0.083 C 
ATOM     10  C   UNL     1      -2.314 -15.125  -2.790  0.00  0.00    +0.228 C 
ATOM     11  O   UNL     1      -2.135 -16.405  -2.375  0.00  0.00    -0.284 OA
ATOM     12  C   UNL     1      -3.409 -14.320  -2.226  0.00  0.00    +0.233 C 
ATOM     13  O   UNL     1      -3.996 -14.692  -1.227  0.00  0.00    -0.283 OA
ATOM     14  C   UNL     1      -3.786 -13.056  -2.886  0.00  0.00    +0.035 A 
ATOM     15  C   UNL     1      -2.920 -12.506  -3.849  0.00  0.00    +0.011 A 
ATOM     16  C   UNL     1      -3.259 -11.313  -4.476  0.00  0.00    +0.011 A 
ATOM     17  C   UNL     1      -4.440 -10.675  -4.145  0.00  0.00    +0.001 A 
ATOM     18  C   UNL     1      -5.289 -11.215  -3.193  0.00  0.00    +0.001 A 
ATOM     19  C   UNL     1      -4.974 -12.403  -2.569  0.00  0.00    +0.012 A 
ENDBRANCH   5   7
BRANCH   1  20
ATOM     20  C   UNL     1      -0.807  -8.167  -2.865  0.00  0.00    +0.190 C 
ATOM     21  O   UNL     1      -0.799  -8.647  -1.747  0.00  0.00    -0.287 OA
BRANCH  20  24
ATOM     22  C   UNL     1      -0.856  -5.902  -1.953  0.00  0.00    +0.244 C 
ATOM     23  O   UNL     1      -0.847  -6.436  -0.710  0.00  0.00    -0.282 OA
ATOM     24  C   UNL     1      -0.837  -6.712  -3.037  0.00  0.00    +0.107 C 
BRANCH  22  26
ATOM     25  N   UNL     1      -0.906  -3.625  -1.047  0.00  0.00    -0.279 N 
ATOM     26  C   UNL     1      -0.887  -4.432  -2.127  0.00  0.00    +0.288 C 
ATOM     27  O   UNL     1      -0.895  -3.952  -3.243  0.00  0.00    -0.266 OA
ATOM     28  H   UNL     1      -0.823  -4.004  -0.158  0.00  0.00    +0.155 HD
BRANCH  25  33
ATOM     29  C   UNL     1      -1.467   1.980  -1.704  0.00  0.00    +0.044 C 
ATOM     30  C   UNL     1      -1.318   0.491  -1.530  0.00  0.00    -0.047 A 
ATOM     31  C   UNL     1      -0.559  -0.009  -0.487  0.00  0.00    +0.005 A 
ATOM     32  C   UNL     1      -0.420  -1.373  -0.324  0.00  0.00    +0.023 A 
ATOM     33  C   UNL     1      -1.045  -2.244  -1.209  0.00  0.00    +0.034 A 
ATOM     34  C   UNL     1      -1.807  -1.739  -2.254  0.00  0.00    +0.027 A 
ATOM     35  C   UNL     1      -1.945  -0.373  -2.408  0.00  0.00    -0.046 A 
ATOM     36  C   UNL     1      -2.777   0.176  -3.539  0.00  0.00    +0.044 C 
ENDBRANCH  25  33
ENDBRANCH  22  26
ENDBRANCH  20  24
ENDBRANCH   1  20
TORSDOF 5
