REMARK  Name = ZINC01822101
REMARK  6 active torsions:
REMARK  status: ('A' for Active; 'I' for Inactive)
REMARK    1  A    between atoms: C_1  and  C_2
REMARK    2  A    between atoms: C_7  and  C_8
REMARK    3  A    between atoms: C_7  and  N_55
REMARK    4  A    between atoms: C_9  and  O_31
REMARK    5  A    between atoms: C_17  and  C_19
REMARK    6  A    between atoms: C_21  and  C_24
REMARK                            x       y       z     vdW  Elec       q    Type
REMARK                         _______ _______ _______ _____ _____    ______ ____
ROOT
ATOM      1  C   UNL     1       0.232   5.868  -2.778  0.00  0.00    +0.020 A 
ATOM      2  C   UNL     1       1.099   5.947  -3.855  0.00  0.00    +0.122 A 
ATOM      3  C   UNL     1       0.627   6.299  -5.119  0.00  0.00    +0.046 A 
ATOM      4  C   UNL     1      -0.694   6.580  -5.308  0.00  0.00    +0.015 A 
ATOM      5  C   UNL     1      -1.587   6.510  -4.228  0.00  0.00    +0.019 A 
ATOM      6  C   UNL     1      -1.116   6.150  -2.952  0.00  0.00    +0.144 A 
ATOM      7  O   UNL     1      -1.959   6.078  -1.899  0.00  0.00    -0.421 OA
ATOM      8  C   UNL     1      -3.269   6.345  -2.031  0.00  0.00    +0.347 A 
ATOM      9  O   UNL     1      -4.004   6.272  -1.064  0.00  0.00    -0.244 OA
ATOM     10  C   UNL     1      -3.815   6.724  -3.338  0.00  0.00    +0.092 A 
ATOM     11  C   UNL     1      -2.961   6.801  -4.421  0.00  0.00    +0.029 A 
ENDROOT
BRANCH  10  12
ATOM     12  C   UNL     1      -5.253   7.019  -3.493  0.00  0.00    +0.116 A 
ATOM     13  N   UNL     1      -6.216   6.999  -2.584  0.00  0.00    -0.239 NA
ATOM     14  C   UNL     1      -7.463   7.293  -2.901  0.00  0.00    +0.079 A 
ATOM     15  C   UNL     1      -7.768   7.626  -4.194  0.00  0.00    +0.075 A 
ATOM     16  S   UNL     1      -6.156   7.505  -4.957  0.00  0.00    -0.075 S 
BRANCH  14  17
ATOM     17  C   UNL     1      -8.525   7.264  -1.865  0.00  0.00    +0.001 A 
ATOM     18  C   UNL     1      -9.839   7.582  -2.202  0.00  0.00    +0.011 A 
ATOM     19  C   UNL     1     -10.824   7.549  -1.236  0.00  0.00    +0.016 A 
ATOM     20  C   UNL     1     -10.506   7.212   0.069  0.00  0.00    +0.018 A 
ATOM     21  C   UNL     1      -9.201   6.900   0.410  0.00  0.00    +0.016 A 
ATOM     22  C   UNL     1      -8.210   6.925  -0.550  0.00  0.00    +0.011 A 
ATOM     23 BR   UNL     1     -11.859   7.177   1.389  0.00  0.00    -0.050 Br
ENDBRANCH  14  17
ENDBRANCH  10  12
BRANCH   2  24
ATOM     24  O   UNL     1       2.417   5.675  -3.680  0.00  0.00    -0.506 OA
ATOM     25  H   UNL     1       2.648   4.745  -3.813  0.00  0.00    +0.292 HD
ENDBRANCH   2  24
BRANCH   1  26
ATOM     26  C   UNL     1       0.752   5.481  -1.418  0.00  0.00    -0.036 C 
BRANCH  26  33
ATOM     27  C   UNL     1       0.002  -0.004   0.002  0.00  0.00    +0.007 C 
ATOM     28  C   UNL     1      -0.019   1.526   0.010  0.00  0.00    -0.018 C 
ATOM     29  C   UNL     1      -0.752   2.034  -1.234  0.00  0.00    -0.016 C 
ATOM     30  C   UNL     1      -0.717   3.564  -1.251  0.00  0.00    -0.078 C 
ATOM     31  C   UNL     1       1.390   3.586  -0.053  0.00  0.00    -0.078 C 
ATOM     32  C   UNL     1       1.417   2.057  -0.000  0.00  0.00    -0.016 C 
ATOM     33  N   UNL     1       0.692   4.011  -1.286  0.00  0.00    +0.383 N 
ATOM     34  H   UNL     1       1.157   3.584  -2.095  0.00  0.00    -0.081 HD
ENDBRANCH  26  33
ENDBRANCH   1  26
TORSDOF 5
