REMARK  Name = ZINC09075336
REMARK  10 active torsions:
REMARK  status: ('A' for Active; 'I' for Inactive)
REMARK    1  A    between atoms: C_1  and  C_2
REMARK    2  A    between atoms: C_3  and  C_28
REMARK    3  A    between atoms: C_4  and  C_23
REMARK    4  A    between atoms: C_6  and  C_21
REMARK    5  A    between atoms: C_7  and  S_9
REMARK    6  A    between atoms: S_9  and  C_10
REMARK    7  A    between atoms: C_10  and  C_11
REMARK    8  A    between atoms: N_13  and  C_14
REMARK    9  A    between atoms: C_14  and  C_15
REMARK   10  A    between atoms: N_30  and  C_31
REMARK                            x       y       z     vdW  Elec       q    Type
REMARK                         _______ _______ _______ _____ _____    ______ ____
ROOT
ATOM      1  C   UNL     1       0.153   5.636  -0.725  0.00  0.00    +0.061 C 
ATOM      2  C   UNL     1       0.038   4.186  -0.332  0.00  0.00    +0.015 C 
ATOM      3  C   UNL     1      -1.166   3.592  -0.343  0.00  0.00    +0.047 C 
ATOM      4  C   UNL     1      -1.340   2.153   0.042  0.00  0.00    +0.134 C 
ATOM      5  C   UNL     1      -0.021   1.434   0.044  0.00  0.00    +0.072 C 
ATOM      6  C   UNL     1       1.155   2.118   0.039  0.00  0.00    +0.080 C 
ATOM      7  N   UNL     1       1.162   3.495   0.030  0.00  0.00    -0.312 N 
ATOM      8  H   UNL     1       2.075   4.039   0.314  0.00  0.00    +0.152 HD
ENDROOT
BRANCH   4   9
ATOM      9  C   UNL     1      -1.944   2.083   1.421  0.00  0.00    +0.118 A 
ATOM     10  C   UNL     1      -3.128   1.528   1.734  0.00  0.00    +0.045 A 
ATOM     11  C   UNL     1      -3.299   1.685   3.129  0.00  0.00    +0.041 A 
ATOM     12  C   UNL     1      -2.208   2.327   3.585  0.00  0.00    +0.195 A 
ATOM     13  O   UNL     1      -1.389   2.561   2.547  0.00  0.00    -0.467 OA
ENDBRANCH   4   9
BRANCH   3  14
ATOM     14  C   UNL     1      -2.301   4.343  -0.733  0.00  0.00    +0.247 C 
ATOM     15  O   UNL     1      -2.178   5.511  -1.053  0.00  0.00    -0.270 OA
ATOM     16  N   UNL     1      -3.518   3.764  -0.750  0.00  0.00    -0.279 N 
ATOM     17  H   UNL     1      -3.618   2.687  -0.549  0.00  0.00    +0.155 HD
BRANCH  16  18
ATOM     18  C   UNL     1      -4.655   4.534  -1.022  0.00  0.00    +0.069 A 
ATOM     19  C   UNL     1      -4.648   5.899  -0.772  0.00  0.00    +0.026 A 
ATOM     20  C   UNL     1      -5.769   6.657  -1.048  0.00  0.00    +0.002 A 
ATOM     21  C   UNL     1      -6.904   6.056  -1.561  0.00  0.00    +0.003 A 
ATOM     22  C   UNL     1      -6.918   4.695  -1.806  0.00  0.00    +0.040 A 
ATOM     23  C   UNL     1      -5.797   3.931  -1.538  0.00  0.00    +0.144 A 
ATOM     24  F   UNL     1      -5.812   2.601  -1.778  0.00  0.00    -0.204 F 
ENDBRANCH  16  18
ENDBRANCH   3  14
BRANCH   5  25
ATOM     25  C   UNL     1      -0.001   0.002   0.045  0.00  0.00    +0.098 C 
ATOM     26  N   UNL     1       0.015  -1.133   0.046  0.00  0.00    -0.191 NA
ENDBRANCH   5  25
BRANCH   6  27
ATOM     27  S   UNL     1       2.680   1.235   0.045  0.00  0.00    -0.100 S 
BRANCH  27  28
ATOM     28  C   UNL     1       3.845   2.621   0.035  0.00  0.00    +0.171 C 
BRANCH  28  29
ATOM     29  C   UNL     1       5.256   2.091   0.039  0.00  0.00    +0.224 C 
ATOM     30  O   UNL     1       5.454   0.894   0.048  0.00  0.00    -0.275 OA
ATOM     31  N   UNL     1       6.297   2.946   0.033  0.00  0.00    -0.311 N 
ATOM     32  H   UNL     1       6.117   4.032   0.025  0.00  0.00    +0.149 HD
BRANCH  31  33
ATOM     33  C   UNL     1       7.668   2.431   0.037  0.00  0.00    +0.139 C 
BRANCH  33  34
ATOM     34  C   UNL     1       8.638   3.584   0.028  0.00  0.00    -0.030 A 
ATOM     35  C   UNL     1       9.088   4.101  -1.173  0.00  0.00    +0.005 A 
ATOM     36  C   UNL     1       9.974   5.162  -1.180  0.00  0.00    +0.000 A 
ATOM     37  C   UNL     1      10.418   5.700   0.013  0.00  0.00    +0.000 A 
ATOM     38  C   UNL     1       9.973   5.180   1.214  0.00  0.00    +0.000 A 
ATOM     39  C   UNL     1       9.083   4.122   1.222  0.00  0.00    +0.005 A 
ENDBRANCH  33  34
ENDBRANCH  31  33
ENDBRANCH  28  29
ENDBRANCH  27  28
ENDBRANCH   6  27
TORSDOF 9
