REMARK  Name = ZINC32635278
REMARK  5 active torsions:
REMARK  status: ('A' for Active; 'I' for Inactive)
REMARK    1  A    between atoms: C_1  and  C_2
REMARK    2  A    between atoms: C_6  and  C_25
REMARK    3  A    between atoms: C_7  and  N_8
REMARK    4  A    between atoms: N_20  and  C_21
REMARK    5  A    between atoms: C_21  and  C_23
REMARK                            x       y       z     vdW  Elec       q    Type
REMARK                         _______ _______ _______ _____ _____    ______ ____
ROOT
ATOM      1  N   UNL     1       3.558   0.485  -0.298  0.00  0.00    -0.275 N 
ATOM      2  C   UNL     1       2.398   0.777  -1.117  0.00  0.00    +0.116 C 
ATOM      3  C   UNL     1       1.819   2.152  -0.705  0.00  0.00    +0.190 C 
ATOM      4  S   UNL     1       0.012   1.897  -0.975  0.00  0.00    -0.028 S 
ATOM      5  O   UNL     1      -0.292   2.101  -2.348  0.00  0.00    -0.174 OA
ATOM      6  O   UNL     1      -0.716   2.600   0.022  0.00  0.00    -0.174 OA
ATOM      7  C   UNL     1      -0.029   0.089  -0.601  0.00  0.00    +0.182 C 
ATOM      8  C   UNL     1       1.357  -0.348  -1.112  0.00  0.00    +0.097 C 
ATOM      9  S   UNL     1       2.094  -1.522   0.084  0.00  0.00    -0.086 S 
ATOM     10  C   UNL     1       3.603  -0.649   0.448  0.00  0.00    +0.154 C 
ATOM     11  N   UNL     1       4.570  -1.027   1.276  0.00  0.00    -0.158 NA
ENDROOT
BRANCH   1  18
ATOM     12  C   UNL     1       5.386   0.436  -2.478  0.00  0.00    +0.046 C 
ATOM     13  C   UNL     1       5.553   1.386  -1.320  0.00  0.00    -0.028 A 
ATOM     14  C   UNL     1       6.613   2.270  -1.299  0.00  0.00    +0.020 A 
ATOM     15  C   UNL     1       6.770   3.139  -0.233  0.00  0.00    +0.018 A 
ATOM     16  C   UNL     1       5.862   3.127   0.811  0.00  0.00    +0.020 A 
ATOM     17  C   UNL     1       4.797   2.249   0.792  0.00  0.00    -0.028 A 
ATOM     18  C   UNL     1       4.637   1.376  -0.276  0.00  0.00    +0.042 A 
ATOM     19  C   UNL     1       3.808   2.237   1.930  0.00  0.00    +0.046 C 
ATOM     20 BR   UNL     1       8.228   4.342  -0.203  0.00  0.00    -0.050 Br
ENDBRANCH   1  18
BRANCH  11  21
ATOM     21  C   UNL     1       4.465  -2.175   1.941  0.00  0.00    +0.253 C 
ATOM     22  O   UNL     1       3.485  -2.878   1.790  0.00  0.00    -0.272 OA
BRANCH  21  23
ATOM     23  C   UNL     1       5.562  -2.605   2.881  0.00  0.00    +0.206 C 
ATOM     24 CL   UNL     1       5.131  -4.190   3.624  0.00  0.00    -0.116 Cl
ENDBRANCH  21  23
ENDBRANCH  11  21
TORSDOF 3
