REMARK  Name = ZINC40760959
REMARK  8 active torsions:
REMARK  status: ('A' for Active; 'I' for Inactive)
REMARK    1  A    between atoms: C_1  and  C_2
REMARK    2  A    between atoms: C_2  and  C_30
REMARK    3  A    between atoms: C_4  and  N_10
REMARK    4  A    between atoms: C_6  and  C_8
REMARK    5  A    between atoms: C_6  and  C_9
REMARK    6  A    between atoms: C_12  and  N_29
REMARK    7  A    between atoms: C_13  and  N_17
REMARK    8  A    between atoms: C_21  and  C_24
REMARK                            x       y       z     vdW  Elec       q    Type
REMARK                         _______ _______ _______ _____ _____    ______ ____
ROOT
ATOM      1  N   UNL     1       1.633  -2.333  -2.511  0.00  0.00    -0.325 N 
ATOM      2  C   UNL     1       1.545  -3.642  -2.968  0.00  0.00    +0.145 A 
ATOM      3  C   UNL     1       2.184  -4.026  -4.149  0.00  0.00    +0.105 A 
ATOM      4  C   UNL     1       2.063  -5.353  -4.563  0.00  0.00    +0.150 A 
ATOM      5  N   UNL     1       1.350  -6.197  -3.821  0.00  0.00    -0.219 NA
ATOM      6  C   UNL     1       0.763  -5.795  -2.712  0.00  0.00    +0.225 A 
ATOM      7  N   UNL     1       0.856  -4.552  -2.283  0.00  0.00    -0.219 NA
ATOM      8  H   UNL     1       2.137  -1.676  -3.016  0.00  0.00    +0.148 HD
ENDROOT
BRANCH   1  12
ATOM      9  C   UNL     1      -0.019   1.542   0.011  0.00  0.00    -0.010 C 
ATOM     10  C   UNL     1       0.002  -0.004   0.002  0.00  0.00    -0.072 C 
ATOM     11  C   UNL     1       0.670  -0.443  -1.297  0.00  0.00    +0.009 C 
ATOM     12  C   UNL     1       0.963  -1.944  -1.265  0.00  0.00    +0.069 C 
ATOM     13  C   UNL     1       1.892  -2.223  -0.084  0.00  0.00    +0.009 C 
ATOM     14  C   UNL     1       1.233  -1.798   1.224  0.00  0.00    -0.072 C 
ATOM     15  N   UNL     1       0.711  -0.443   1.191  0.00  0.00    +0.386 N 
ATOM     16  C   UNL     1       2.314  -1.859   2.328  0.00  0.00    -0.010 C 
ATOM     17  C   UNL     1       0.143  -2.805   1.606  0.00  0.00    -0.010 C 
ATOM     18  C   UNL     1      -1.457  -0.473   0.018  0.00  0.00    -0.010 C 
ATOM     19  H   UNL     1       1.489   0.204   1.356  0.00  0.00    -0.084 HD
ATOM     20  H   UNL     1       0.093  -0.317   1.998  0.00  0.00    -0.084 HD
ENDBRANCH   1  12
BRANCH   4  21
ATOM     21  N   UNL     1       2.679  -5.788  -5.732  0.00  0.00    -0.282 N 
ATOM     22  C   UNL     1       2.551  -7.114  -6.134  0.00  0.00    +0.142 A 
ATOM     23  C   UNL     1       3.175  -7.544  -7.303  0.00  0.00    +0.081 A 
ATOM     24  C   UNL     1       3.039  -8.866  -7.690  0.00  0.00    +0.037 A 
ATOM     25  C   UNL     1       2.283  -9.715  -6.894  0.00  0.00    +0.074 A 
ATOM     26  C   UNL     1       1.693  -9.221  -5.748  0.00  0.00    +0.125 A 
ATOM     27  N   UNL     1       1.843  -7.957  -5.399  0.00  0.00    -0.238 NA
ATOM     28 CL   UNL     1       4.108  -6.437  -8.261  0.00  0.00    -0.080 Cl
ATOM     29  H   UNL     1       3.196  -5.166  -6.267  0.00  0.00    +0.155 HD
BRANCH  25  30
ATOM     30  C   UNL     1       2.108 -11.162  -7.277  0.00  0.00    +0.419 C 
ATOM     31  F   UNL     1       3.133 -11.924  -6.705  0.00  0.00    -0.166 F 
ATOM     32  F   UNL     1       0.871 -11.622  -6.811  0.00  0.00    -0.166 F 
ATOM     33  F   UNL     1       2.157 -11.285  -8.669  0.00  0.00    -0.166 F 
ENDBRANCH  25  30
ENDBRANCH   4  21
BRANCH   3  34
ATOM     34  N   UNL     1       2.926  -3.101  -4.901  0.00  0.00    -0.353 N 
ATOM     35  H   UNL     1       3.001  -2.181  -4.602  0.00  0.00    +0.143 HD
ATOM     36  H   UNL     1       3.364  -3.382  -5.720  0.00  0.00    +0.143 HD
ENDBRANCH   3  34
TORSDOF 4
