REMARK  Name = ZINC60512061
REMARK  11 active torsions:
REMARK  status: ('A' for Active; 'I' for Inactive)
REMARK    1  A    between atoms: C_1  and  C_2
REMARK    2  A    between atoms: C_2  and  O_3
REMARK    3  A    between atoms: O_3  and  C_4
REMARK    4  A    between atoms: N_6  and  C_7
REMARK    5  A    between atoms: C_11  and  N_14
REMARK    6  A    between atoms: C_12  and  C_13
REMARK    7  A    between atoms: N_14  and  C_15
REMARK    8  A    between atoms: C_15  and  C_16
REMARK    9  A    between atoms: C_15  and  C_17
REMARK   10  A    between atoms: N_19  and  C_20
REMARK   11  A    between atoms: C_23  and  C_27
REMARK                            x       y       z     vdW  Elec       q    Type
REMARK                         _______ _______ _______ _____ _____    ______ ____
ROOT
ATOM      1  N   UNL     1      -5.476  -6.325  -0.364  0.00  0.00    -0.333 N 
ATOM      2  H   UNL     1      -6.275  -5.776  -0.366  0.00  0.00    +0.147 HD
ENDROOT
BRANCH   1   7
ATOM      3  C   UNL     1      -2.859  -3.757  -0.058  0.00  0.00    +0.041 A 
ATOM      4  C   UNL     1      -1.717  -4.549  -0.056  0.00  0.00    +0.024 A 
ATOM      5  C   UNL     1      -1.827  -5.923  -0.156  0.00  0.00    +0.004 A 
ATOM      6  C   UNL     1      -3.072  -6.514  -0.258  0.00  0.00    +0.023 A 
ATOM      7  C   UNL     1      -4.218  -5.727  -0.261  0.00  0.00    +0.032 A 
ATOM      8  C   UNL     1      -4.111  -4.348  -0.155  0.00  0.00    -0.008 A 
ATOM      9  C   UNL     1      -5.351  -3.492  -0.151  0.00  0.00    +0.047 C 
BRANCH   3  12
ATOM     10  C   UNL     1      -1.662  -1.818   0.626  0.00  0.00    +0.405 C 
ATOM     11  O   UNL     1      -0.832  -2.530   1.155  0.00  0.00    -0.226 OA
ATOM     12  N   UNL     1      -2.747  -2.366   0.043  0.00  0.00    -0.251 N 
ATOM     13  H   UNL     1      -3.449  -1.796  -0.306  0.00  0.00    +0.158 HD
BRANCH  10  14
ATOM     14  O   UNL     1      -1.498  -0.482   0.622  0.00  0.00    -0.450 OA
BRANCH  14  16
ATOM     15  C   UNL     1      -0.313   1.556   1.153  0.00  0.00    +0.048 C 
ATOM     16  C   UNL     1      -0.325   0.030   1.258  0.00  0.00    +0.230 C 
ENDBRANCH  14  16
ENDBRANCH  10  14
ENDBRANCH   3  12
ENDBRANCH   1   7
BRANCH   1  17
ATOM     17  C   UNL     1      -5.588  -7.782  -0.470  0.00  0.00    +0.154 C 
ATOM     18  C   UNL     1      -5.573  -8.398   0.930  0.00  0.00    +0.038 C 
BRANCH  17  19
ATOM     19  C   UNL     1      -6.879  -8.137  -1.162  0.00  0.00    +0.237 C 
ATOM     20  O   UNL     1      -7.631  -7.260  -1.530  0.00  0.00    -0.273 OA
ATOM     21  N   UNL     1      -7.198  -9.430  -1.371  0.00  0.00    -0.283 N 
ATOM     22  H   UNL     1      -6.631 -10.133  -1.017  0.00  0.00    +0.155 HD
BRANCH  21  23
ATOM     23  C   UNL     1      -8.347  -9.758  -2.100  0.00  0.00    +0.052 A 
ATOM     24  C   UNL     1      -9.483  -8.966  -2.001  0.00  0.00    +0.025 A 
ATOM     25  C   UNL     1     -10.616  -9.292  -2.721  0.00  0.00    +0.005 A 
ATOM     26  C   UNL     1     -10.620 -10.407  -3.540  0.00  0.00    -0.049 A 
ATOM     27  C   UNL     1      -9.490 -11.198  -3.641  0.00  0.00    +0.025 A 
ATOM     28  C   UNL     1      -8.352 -10.874  -2.928  0.00  0.00    +0.062 A 
ATOM     29 CL   UNL     1      -6.932 -11.864  -3.060  0.00  0.00    -0.082 Cl
ATOM     30  C   UNL     1     -11.858 -10.760  -4.324  0.00  0.00    +0.044 C 
ENDBRANCH  21  23
ENDBRANCH  17  19
ENDBRANCH   1  17
TORSDOF 7
