REMARK  Name = ZINC35055515
REMARK  2 active torsions:
REMARK  status: ('A' for Active; 'I' for Inactive)
REMARK    1  A    between atoms: C_9  and  N_11
REMARK    2  A    between atoms: C_12  and  C_14
REMARK                            x       y       z     vdW  Elec       q    Type
REMARK                         _______ _______ _______ _____ _____    ______ ____
ROOT
ATOM      1  N   UNL     1       1.206  -2.089  -0.021  0.00  0.00    -0.280 N 
ATOM      2  C   UNL     1       0.148  -2.767  -0.508  0.00  0.00    +0.268 C 
ATOM      3  O   UNL     1      -0.774  -2.166  -1.023  0.00  0.00    -0.268 OA
ATOM      4  H   UNL     1       1.977  -2.571   0.316  0.00  0.00    +0.155 HD
ENDROOT
BRANCH   1  13
ATOM      5  C   UNL     1      -0.028   1.383   0.037  0.00  0.00    +0.002 A 
ATOM      6  C   UNL     1       1.125   2.108   0.033  0.00  0.00    +0.010 A 
ATOM      7  C   UNL     1       2.364   1.449   0.010  0.00  0.00    +0.002 A 
ATOM      8  C   UNL     1       3.581   2.151   0.005  0.00  0.00    +0.119 A 
ATOM      9  N   UNL     1       4.716   1.492  -0.016  0.00  0.00    -0.263 NA
ATOM     10  C   UNL     1       4.777   0.168  -0.033  0.00  0.00    +0.111 A 
ATOM     11  C   UNL     1       3.654  -0.604  -0.030  0.00  0.00    +0.030 A 
ATOM     12  C   UNL     1       2.400   0.030  -0.008  0.00  0.00    +0.006 A 
ATOM     13  C   UNL     1       1.192  -0.694  -0.003  0.00  0.00    +0.042 A 
ATOM     14  C   UNL     1      -0.005  -0.008   0.019  0.00  0.00    +0.024 A 
ENDBRANCH   1  13
BRANCH   2  15
ATOM     15  C   UNL     1       0.109  -4.244  -0.416  0.00  0.00    +0.146 A 
ATOM     16  C   UNL     1      -0.985  -4.941  -0.927  0.00  0.00    +0.072 A 
ATOM     17  C   UNL     1      -1.007  -6.325  -0.833  0.00  0.00    +0.025 A 
ATOM     18  C   UNL     1       0.066  -6.963  -0.233  0.00  0.00    +0.041 A 
ATOM     19  C   UNL     1       1.123  -6.207   0.254  0.00  0.00    +0.130 A 
ATOM     20  N   UNL     1       1.120  -4.896   0.147  0.00  0.00    -0.229 NA
ATOM     21 CL   UNL     1       2.469  -7.003   1.007  0.00  0.00    -0.062 Cl
ATOM     22 CL   UNL     1      -2.303  -4.088  -1.669  0.00  0.00    -0.081 Cl
ENDBRANCH   2  15
TORSDOF 2
