REMARK  Name = ZINC01298681
REMARK  12 active torsions:
REMARK  status: ('A' for Active; 'I' for Inactive)
REMARK    1  A    between atoms: C_1  and  C_2
REMARK    2  A    between atoms: C_2  and  C_3
REMARK    3  A    between atoms: C_2  and  C_4
REMARK    4  A    between atoms: C_2  and  C_5
REMARK    5  A    between atoms: C_5  and  C_7
REMARK    6  A    between atoms: C_9  and  C_33
REMARK    7  A    between atoms: C_36  and  O_43
REMARK    8  A    between atoms: C_37  and  O_41
REMARK    9  A    between atoms: C_38  and  O_39
REMARK   10  A    between atoms: O_39  and  C_40
REMARK   11  A    between atoms: O_41  and  C_42
REMARK   12  A    between atoms: O_43  and  C_44
REMARK                            x       y       z     vdW  Elec       q    Type
REMARK                         _______ _______ _______ _____ _____    ______ ____
ROOT
ATOM      1  C   UNL     1       0.706  -2.498  -1.444  0.00  0.00    +0.150 C 
ATOM      2  C   UNL     1       1.685  -3.456  -0.706  0.00  0.00    +0.074 C 
ATOM      3  C   UNL     1       1.146  -4.840  -1.125  0.00  0.00    +0.127 C 
ATOM      4  C   UNL     1       0.553  -4.628  -2.517  0.00  0.00    +0.119 C 
ATOM      5  N   UNL     1       0.470  -3.163  -2.729  0.00  0.00    -0.311 N 
ATOM      6  C   UNL     1       0.269  -2.615  -3.989  0.00  0.00    +0.038 A 
ATOM      7  C   UNL     1      -0.386  -1.425  -4.214  0.00  0.00    +0.024 A 
ATOM      8  C   UNL     1      -0.552  -0.971  -5.512  0.00  0.00    +0.002 A 
ATOM      9  C   UNL     1      -0.064  -1.706  -6.579  0.00  0.00    +0.001 A 
ATOM     10  C   UNL     1       0.602  -2.898  -6.367  0.00  0.00    +0.010 A 
ATOM     11  C   UNL     1       0.783  -3.362  -5.069  0.00  0.00    -0.004 A 
ATOM     12  C   UNL     1       1.522  -4.607  -4.782  0.00  0.00    +0.007 C 
ATOM     13  C   UNL     1       1.425  -5.219  -3.592  0.00  0.00    -0.003 C 
ATOM     14  C   UNL     1       0.114  -5.335  -0.149  0.00  0.00    +0.180 C 
ATOM     15  O   UNL     1      -0.924  -4.783   0.149  0.00  0.00    -0.291 OA
ATOM     16  C   UNL     1       0.604  -6.613   0.372  0.00  0.00    +0.029 A 
ATOM     17  C   UNL     1       0.012  -7.475   1.300  0.00  0.00    +0.012 A 
ATOM     18  C   UNL     1       0.707  -8.635   1.617  0.00  0.00    +0.001 A 
ATOM     19  C   UNL     1       1.930  -8.935   1.050  0.00  0.00    +0.001 A 
ATOM     20  C   UNL     1       2.539  -8.097   0.126  0.00  0.00    +0.012 A 
ATOM     21  C   UNL     1       1.860  -6.922  -0.212  0.00  0.00    +0.029 A 
ATOM     22  C   UNL     1       2.251  -5.862  -1.143  0.00  0.00    +0.180 C 
ATOM     23  O   UNL     1       3.267  -5.816  -1.802  0.00  0.00    -0.291 OA
ENDROOT
BRANCH   2  24
ATOM     24  C   UNL     1       1.596  -3.272   0.787  0.00  0.00    +0.005 A 
ATOM     25  C   UNL     1       0.450  -2.742   1.350  0.00  0.00    +0.011 A 
ATOM     26  C   UNL     1       0.364  -2.571   2.719  0.00  0.00    +0.050 A 
ATOM     27  C   UNL     1       1.429  -2.929   3.533  0.00  0.00    +0.165 A 
ATOM     28  C   UNL     1       2.582  -3.462   2.970  0.00  0.00    +0.204 A 
ATOM     29  C   UNL     1       2.663  -3.638   1.594  0.00  0.00    +0.169 A 
BRANCH  29  30
ATOM     30  O   UNL     1       3.787  -4.164   1.039  0.00  0.00    -0.491 OA
ATOM     31  C   UNL     1       4.966  -3.357   1.074  0.00  0.00    +0.277 C 
ENDBRANCH  29  30
BRANCH  28  32
ATOM     32  O   UNL     1       3.629  -3.816   3.765  0.00  0.00    -0.488 OA
ATOM     33  C   UNL     1       3.643  -5.156   4.261  0.00  0.00    +0.277 C 
ENDBRANCH  28  32
BRANCH  27  34
ATOM     34  O   UNL     1       1.344  -2.760   4.880  0.00  0.00    -0.491 OA
ATOM     35  C   UNL     1       0.128  -2.206   5.388  0.00  0.00    +0.277 C 
ENDBRANCH  27  34
ENDBRANCH   2  24
BRANCH   1  36
ATOM     36  C   UNL     1       1.343  -1.149  -1.655  0.00  0.00    +0.159 C 
ATOM     37  O   UNL     1       0.746  -0.145  -1.349  0.00  0.00    -0.295 OA
BRANCH  36  39
ATOM     38  C   UNL     1       2.858   0.258  -3.024  0.00  0.00    +0.018 C 
ATOM     39  C   UNL     1       2.726  -1.053  -2.246  0.00  0.00    +0.022 C 
ATOM     40  C   UNL     1       2.960  -2.232  -3.192  0.00  0.00    +0.018 C 
ATOM     41  C   UNL     1       3.764  -1.086  -1.123  0.00  0.00    +0.018 C 
ENDBRANCH  36  39
ENDBRANCH   1  36
TORSDOF 6
