REMARK  Name = ZINC23450666
REMARK  12 active torsions:
REMARK  status: ('A' for Active; 'I' for Inactive)
REMARK    1  A    between atoms: C_1  and  C_2
REMARK    2  A    between atoms: C_5  and  C_8
REMARK    3  A    between atoms: C_8  and  O_9
REMARK    4  A    between atoms: O_9  and  C_10
REMARK    5  A    between atoms: C_10  and  C_12
REMARK    6  A    between atoms: C_10  and  C_30
REMARK    7  A    between atoms: C_12  and  N_13
REMARK    8  A    between atoms: N_16  and  S_19
REMARK    9  A    between atoms: S_19  and  C_22
REMARK   10  A    between atoms: C_24  and  C_29
REMARK   11  A    between atoms: C_34  and  O_36
REMARK   12  A    between atoms: O_36  and  C_37
REMARK                            x       y       z     vdW  Elec       q    Type
REMARK                         _______ _______ _______ _____ _____    ______ ____
ROOT
ATOM      1  C   UNL     1       1.408   4.102   1.431  0.00  0.00    -0.042 C 
ENDROOT
BRANCH   1   2
ATOM      2  N   UNL     1       1.389   5.571   1.438  0.00  0.00    +0.383 N 
ATOM      3  C   UNL     1       2.064   6.100   2.631  0.00  0.00    -0.061 C 
ATOM      4  C   UNL     1       2.183   7.623   2.513  0.00  0.00    +0.091 C 
ATOM      5  N   UNL     1       0.844   8.178   2.259  0.00  0.00    -0.180 NA
ATOM      6  C   UNL     1       0.049   7.602   1.163  0.00  0.00    +0.091 C 
ATOM      7  C   UNL     1       0.015   6.080   1.334  0.00  0.00    -0.061 C 
ATOM      8  H   UNL     1       1.944   5.923   0.556  0.00  0.00    -0.082 HD
BRANCH   5   9
ATOM      9  S   UNL     1       0.248   9.416   3.182  0.00  0.00    +0.063 S 
ATOM     10  O   UNL     1       1.372  10.096   3.724  0.00  0.00    -0.153 OA
ATOM     11  O   UNL     1      -0.733  10.075   2.393  0.00  0.00    -0.153 OA
BRANCH   9  12
ATOM     12  C   UNL     1      -0.605   8.689   4.542  0.00  0.00    +0.141 A 
ATOM     13  C   UNL     1      -0.134   8.869   5.829  0.00  0.00    +0.034 A 
ATOM     14  C   UNL     1      -0.806   8.303   6.896  0.00  0.00    -0.048 A 
ATOM     15  C   UNL     1      -1.943   7.548   6.677  0.00  0.00    +0.006 A 
ATOM     16  C   UNL     1      -2.412   7.362   5.390  0.00  0.00    +0.040 A 
ATOM     17  C   UNL     1      -1.743   7.933   4.321  0.00  0.00    +0.150 A 
ATOM     18  F   UNL     1      -2.201   7.752   3.062  0.00  0.00    -0.203 F 
ATOM     19  C   UNL     1      -0.295   8.505   8.299  0.00  0.00    +0.044 C 
ENDBRANCH   9  12
ENDBRANCH   5   9
ENDBRANCH   1   2
BRANCH   1  20
ATOM     20  C   UNL     1       1.173   3.596   0.006  0.00  0.00    +0.132 C 
BRANCH  20  21
ATOM     21  C   UNL     1       1.180   2.089   0.000  0.00  0.00    -0.017 A 
ATOM     22  C   UNL     1       2.381   1.404   0.008  0.00  0.00    +0.006 A 
ATOM     23  C   UNL     1       2.391   0.022   0.002  0.00  0.00    +0.004 A 
ATOM     24  C   UNL     1       1.200  -0.679  -0.011  0.00  0.00    +0.045 A 
ATOM     25  C   UNL     1      -0.006   0.006  -0.018  0.00  0.00    +0.120 A 
ATOM     26  C   UNL     1      -0.013   1.393  -0.013  0.00  0.00    +0.051 A 
BRANCH  25  27
ATOM     27  O   UNL     1      -1.179  -0.681  -0.032  0.00  0.00    -0.495 OA
ATOM     28  C   UNL     1      -1.095  -2.107  -0.037  0.00  0.00    +0.277 C 
ENDBRANCH  25  27
ENDBRANCH  20  21
BRANCH  20  29
ATOM     29  O   UNL     1       2.210   4.081  -0.849  0.00  0.00    -0.369 OA
BRANCH  29  30
ATOM     30  C   UNL     1       1.802   4.277  -2.204  0.00  0.00    +0.195 C 
BRANCH  30  35
ATOM     31  C   UNL     1       6.273   6.231  -5.300  0.00  0.00    +0.044 C 
ATOM     32  C   UNL     1       5.107   5.721  -4.492  0.00  0.00    -0.050 A 
ATOM     33  C   UNL     1       4.886   4.362  -4.380  0.00  0.00    +0.004 A 
ATOM     34  C   UNL     1       3.816   3.894  -3.639  0.00  0.00    +0.006 A 
ATOM     35  C   UNL     1       2.968   4.787  -3.011  0.00  0.00    -0.022 A 
ATOM     36  C   UNL     1       3.186   6.147  -3.128  0.00  0.00    +0.006 A 
ATOM     37  C   UNL     1       4.258   6.614  -3.865  0.00  0.00    +0.004 A 
ENDBRANCH  30  35
ENDBRANCH  29  30
ENDBRANCH  20  29
ENDBRANCH   1  20
TORSDOF 9
