REMARK  Name = ZINC66216894
REMARK  8 active torsions:
REMARK  status: ('A' for Active; 'I' for Inactive)
REMARK    1  A    between atoms: C_1  and  C_2
REMARK    2  A    between atoms: C_2  and  C_4
REMARK    3  A    between atoms: C_2  and  N_10
REMARK    4  A    between atoms: C_11  and  C_13
REMARK    5  A    between atoms: C_16  and  N_19
REMARK    6  A    between atoms: C_20  and  C_22
REMARK    7  A    between atoms: C_22  and  N_23
REMARK    8  A    between atoms: N_23  and  C_24
REMARK                            x       y       z     vdW  Elec       q    Type
REMARK                         _______ _______ _______ _____ _____    ______ ____
ROOT
ATOM      1  C   UNL     1       0.707  -1.070  -3.573  0.00  0.00    +0.037 A 
ATOM      2  C   UNL     1       2.096  -1.220  -3.578  0.00  0.00    +0.015 A 
ATOM      3  C   UNL     1       2.734  -1.669  -4.712  0.00  0.00    +0.024 A 
ATOM      4  C   UNL     1       1.997  -1.974  -5.853  0.00  0.00    +0.033 A 
ATOM      5  C   UNL     1       0.614  -1.825  -5.851  0.00  0.00    +0.024 A 
ATOM      6  C   UNL     1      -0.031  -1.382  -4.718  0.00  0.00    +0.015 A 
ENDROOT
BRANCH   1   8
ATOM      7  N   UNL     1       0.732  -0.288  -1.255  0.00  0.00    -0.305 N 
ATOM      8  C   UNL     1       0.019  -0.589  -2.359  0.00  0.00    +0.245 C 
ATOM      9  O   UNL     1      -1.190  -0.463  -2.354  0.00  0.00    -0.270 OA
ATOM     10  H   UNL     1       1.697  -0.388  -1.259  0.00  0.00    +0.150 HD
BRANCH   7  12
ATOM     11  C   UNL     1      -0.159   1.702  -0.148  0.00  0.00    +0.033 C 
ATOM     12  C   UNL     1       0.050   0.189  -0.050  0.00  0.00    +0.100 C 
BRANCH  12  13
ATOM     13  C   UNL     1       0.891  -0.124   1.161  0.00  0.00    -0.027 A 
ATOM     14  C   UNL     1       2.263   0.033   1.109  0.00  0.00    +0.005 A 
ATOM     15  C   UNL     1       3.035  -0.254   2.219  0.00  0.00    +0.000 A 
ATOM     16  C   UNL     1       2.433  -0.699   3.382  0.00  0.00    +0.000 A 
ATOM     17  C   UNL     1       1.061  -0.855   3.435  0.00  0.00    +0.000 A 
ATOM     18  C   UNL     1       0.289  -0.563   2.325  0.00  0.00    +0.005 A 
ENDBRANCH  12  13
ENDBRANCH   7  12
ENDBRANCH   1   8
BRANCH   4  19
ATOM     19  N   UNL     1       2.647  -2.428  -7.000  0.00  0.00    -0.284 N 
ATOM     20  C   UNL     1       3.751  -3.192  -6.891  0.00  0.00    +0.234 C 
ATOM     21  O   UNL     1       4.125  -3.565  -5.800  0.00  0.00    -0.274 OA
ATOM     22  H   UNL     1       2.304  -2.193  -7.877  0.00  0.00    +0.155 HD
BRANCH  20  23
ATOM     23  C   UNL     1       4.521  -3.584  -8.126  0.00  0.00    +0.198 C 
BRANCH  23  24
ATOM     24  N   UNL     1       5.670  -4.409  -7.744  0.00  0.00    -0.335 N 
ATOM     25  H   UNL     1       5.828  -4.617  -6.810  0.00  0.00    +0.147 HD
BRANCH  24  26
ATOM     26  C   UNL     1       6.539  -4.895  -8.726  0.00  0.00    +0.029 A 
ATOM     27  C   UNL     1       6.316  -4.593 -10.063  0.00  0.00    +0.026 A 
ATOM     28  C   UNL     1       7.175  -5.074 -11.031  0.00  0.00    +0.041 A 
ATOM     29  C   UNL     1       8.258  -5.858 -10.671  0.00  0.00    +0.142 A 
ATOM     30  C   UNL     1       8.482  -6.162  -9.338  0.00  0.00    +0.078 A 
ATOM     31  C   UNL     1       7.628  -5.677  -8.364  0.00  0.00    +0.045 A 
ATOM     32 CL   UNL     1       9.839  -7.146  -8.888  0.00  0.00    -0.081 Cl
ATOM     33  F   UNL     1       9.096  -6.329 -11.620  0.00  0.00    -0.204 F 
ENDBRANCH  24  26
ENDBRANCH  23  24
ENDBRANCH  20  23
ENDBRANCH   4  19
TORSDOF 7
