REMARK  Name = ZINC35538410
REMARK  10 active torsions:
REMARK  status: ('A' for Active; 'I' for Inactive)
REMARK    1  A    between atoms: C_1  and  C_2
REMARK    2  A    between atoms: C_5  and  C_38
REMARK    3  A    between atoms: N_8  and  C_10
REMARK    4  A    between atoms: C_10  and  C_11
REMARK    5  A    between atoms: C_11  and  C_12
REMARK    6  A    between atoms: C_12  and  N_13
REMARK    7  A    between atoms: C_14  and  C_16
REMARK    8  A    between atoms: C_16  and  C_37
REMARK    9  A    between atoms: N_28  and  C_29
REMARK   10  A    between atoms: C_29  and  C_30
REMARK                            x       y       z     vdW  Elec       q    Type
REMARK                         _______ _______ _______ _____ _____    ______ ____
ROOT
ATOM      1  C   UNL     1       6.648   1.494   5.450  0.00  0.00    +0.129 C 
ATOM      2  C   UNL     1       7.287   0.999   6.747  0.00  0.00    +0.157 C 
ATOM      3  N   UNL     1       6.646   1.668   7.884  0.00  0.00    -0.331 N 
ATOM      4  C   UNL     1       6.462   1.236   9.163  0.00  0.00    +0.088 A 
ATOM      5  C   UNL     1       6.652   0.178  10.084  0.00  0.00    +0.067 A 
ATOM      6  C   UNL     1       6.141   0.577  11.261  0.00  0.00    +0.198 A 
ATOM      7  O   UNL     1       5.642   1.818  11.136  0.00  0.00    -0.461 OA
ATOM      8  C   UNL     1       5.817   2.252   9.869  0.00  0.00    +0.153 A 
ATOM      9  C   UNL     1       5.606   3.318   8.982  0.00  0.00    +0.079 A 
ATOM     10  C   UNL     1       6.110   2.948   7.770  0.00  0.00    +0.109 A 
ATOM     11  C   UNL     1       6.137   3.663   6.489  0.00  0.00    +0.264 C 
ATOM     12  O   UNL     1       5.833   4.839   6.404  0.00  0.00    -0.268 OA
ATOM     13  N   UNL     1       6.519   2.946   5.406  0.00  0.00    -0.276 N 
ATOM     14  C   UNL     1       7.512   1.039   4.271  0.00  0.00    +0.043 C 
ENDROOT
BRANCH   1  16
ATOM     15  N   UNL     1       4.213   1.476   5.883  0.00  0.00    -0.314 N 
ATOM     16  C   UNL     1       5.279   0.878   5.315  0.00  0.00    +0.238 C 
ATOM     17  O   UNL     1       5.137  -0.155   4.696  0.00  0.00    -0.273 OA
ATOM     18  H   UNL     1       4.312   2.341   6.311  0.00  0.00    +0.149 HD
BRANCH  15  19
ATOM     19  C   UNL     1       2.904   0.819   5.854  0.00  0.00    +0.102 C 
BRANCH  19  20
ATOM     20  C   UNL     1       1.851   1.754   6.452  0.00  0.00    +0.000 C 
BRANCH  20  21
ATOM     21  C   UNL     1       0.466   1.119   6.311  0.00  0.00    -0.077 C 
BRANCH  21  27
ATOM     22  C   UNL     1      -1.171   4.659   7.923  0.00  0.00    +0.005 C 
ATOM     23  C   UNL     1      -1.601   4.245   6.514  0.00  0.00    -0.031 C 
ATOM     24  C   UNL     1      -2.989   3.600   6.572  0.00  0.00    +0.003 C 
ATOM     25  C   UNL     1      -2.913   2.324   7.415  0.00  0.00    -0.031 C 
ATOM     26  C   UNL     1      -1.862   1.386   6.817  0.00  0.00    -0.076 C 
ATOM     27  N   UNL     1      -0.553   2.050   6.813  0.00  0.00    +0.380 N 
ATOM     28  C   UNL     1      -0.599   3.237   5.949  0.00  0.00    -0.076 C 
ATOM     29  C   UNL     1      -4.276   1.630   7.417  0.00  0.00    +0.005 C 
ATOM     30  H   UNL     1      -0.316   2.330   7.753  0.00  0.00    -0.082 HD
ENDBRANCH  21  27
ENDBRANCH  20  21
ENDBRANCH  19  20
ENDBRANCH  15  19
ENDBRANCH   1  16
BRANCH  13  31
ATOM     31  C   UNL     1       6.809   3.648   4.154  0.00  0.00    +0.144 C 
BRANCH  31  32
ATOM     32  C   UNL     1       5.529   3.861   3.388  0.00  0.00    -0.030 A 
ATOM     33  C   UNL     1       5.042   2.863   2.565  0.00  0.00    +0.006 A 
ATOM     34  C   UNL     1       3.868   3.058   1.862  0.00  0.00    +0.020 A 
ATOM     35  C   UNL     1       3.180   4.252   1.983  0.00  0.00    +0.041 A 
ATOM     36  C   UNL     1       3.667   5.250   2.808  0.00  0.00    +0.020 A 
ATOM     37  C   UNL     1       4.839   5.052   3.514  0.00  0.00    +0.006 A 
ATOM     38 CL   UNL     1       1.705   4.498   1.101  0.00  0.00    -0.084 Cl
ENDBRANCH  31  32
ENDBRANCH  13  31
TORSDOF 7
