REMARK  Name = ZINC59014922
REMARK  5 active torsions:
REMARK  status: ('A' for Active; 'I' for Inactive)
REMARK    1  A    between atoms: C_5  and  C_7
REMARK    2  A    between atoms: N_8  and  N_9
REMARK    3  A    between atoms: C_12  and  S_15
REMARK    4  A    between atoms: S_15  and  C_16
REMARK    5  A    between atoms: C_16  and  C_17
REMARK                            x       y       z     vdW  Elec       q    Type
REMARK                         _______ _______ _______ _____ _____    ______ ____
ROOT
ATOM      1  N   UNL     1       2.413  -4.186  -0.044  0.00  0.00    -0.205 N 
ATOM      2  C   UNL     1       3.624  -4.854  -0.059  0.00  0.00    +0.232 A 
ATOM      3  N   UNL     1       4.816  -4.296  -0.062  0.00  0.00    -0.186 NA
ATOM      4  C   UNL     1       5.757  -5.246  -0.078  0.00  0.00    +0.210 A 
ATOM      5  N   UNL     1       5.176  -6.422  -0.086  0.00  0.00    -0.144 NA
ATOM      6  N   UNL     1       3.790  -6.194  -0.068  0.00  0.00    -0.245 N 
ATOM      7  H   UNL     1       1.583  -4.686  -0.038  0.00  0.00    +0.177 HD
ATOM      8  H   UNL     1       3.091  -6.866  -0.065  0.00  0.00    +0.192 HD
ENDROOT
BRANCH   1  10
ATOM      9  C   UNL     1       1.251  -2.157  -0.021  0.00  0.00    +0.141 C 
ATOM     10  N   UNL     1       2.387  -2.785  -0.036  0.00  0.00    -0.187 NA
BRANCH   9  15
ATOM     11  C   UNL     1      -0.017   1.375   0.010  0.00  0.00    +0.001 A 
ATOM     12  C   UNL     1       1.170   2.087   0.002  0.00  0.00    +0.003 A 
ATOM     13  C   UNL     1       2.383   1.424  -0.013  0.00  0.00    +0.039 A 
ATOM     14  C   UNL     1       2.419   0.043  -0.021  0.00  0.00    +0.132 A 
ATOM     15  C   UNL     1       1.223  -0.683  -0.013  0.00  0.00    +0.030 A 
ATOM     16  C   UNL     1       0.002  -0.004   0.002  0.00  0.00    +0.012 A 
ATOM     17  F   UNL     1       3.604  -0.605  -0.037  0.00  0.00    -0.205 F 
ENDBRANCH   9  15
ENDBRANCH   1  10
BRANCH   4  18
ATOM     18  S   UNL     1       7.497  -4.964  -0.089  0.00  0.00    -0.080 S 
BRANCH  18  19
ATOM     19  C   UNL     1       8.211  -6.631  -0.110  0.00  0.00    +0.112 C 
BRANCH  19  20
ATOM     20  C   UNL     1       9.715  -6.533  -0.120  0.00  0.00    -0.036 A 
ATOM     21  C   UNL     1      10.395  -6.471  -1.322  0.00  0.00    +0.004 A 
ATOM     22  C   UNL     1      11.775  -6.381  -1.333  0.00  0.00    +0.001 A 
ATOM     23  C   UNL     1      12.474  -6.352  -0.141  0.00  0.00    +0.015 A 
ATOM     24  C   UNL     1      11.794  -6.414   1.062  0.00  0.00    +0.018 A 
ATOM     25  C   UNL     1      10.414  -6.499   1.072  0.00  0.00    +0.019 A 
ATOM     26 BR   UNL     1      12.751  -6.376   2.693  0.00  0.00    -0.050 Br
ENDBRANCH  19  20
ENDBRANCH  18  19
ENDBRANCH   4  18
TORSDOF 5
