REMARK  Name = ZINC23080146
REMARK  14 active torsions:
REMARK  status: ('A' for Active; 'I' for Inactive)
REMARK    1  A    between atoms: C_1  and  C_2
REMARK    2  A    between atoms: C_2  and  O_3
REMARK    3  A    between atoms: O_3  and  C_4
REMARK    4  A    between atoms: C_7  and  C_13
REMARK    5  A    between atoms: C_9  and  O_10
REMARK    6  A    between atoms: O_10  and  C_11
REMARK    7  A    between atoms: C_11  and  C_12
REMARK    8  A    between atoms: C_13  and  C_14
REMARK    9  A    between atoms: C_14  and  N_15
REMARK   10  A    between atoms: C_16  and  C_18
REMARK   11  A    between atoms: C_18  and  O_19
REMARK   12  A    between atoms: O_19  and  C_20
REMARK   13  A    between atoms: C_20  and  C_22
REMARK   14  A    between atoms: C_23  and  C_24
REMARK                            x       y       z     vdW  Elec       q    Type
REMARK                         _______ _______ _______ _____ _____    ______ ____
ROOT
ATOM      1  N   UNL     1       2.544  -8.000   1.241  0.00  0.00    -0.312 N 
ATOM      2  C   UNL     1       3.605  -8.650   0.724  0.00  0.00    +0.251 C 
ATOM      3  O   UNL     1       4.464  -8.033   0.131  0.00  0.00    -0.272 OA
ATOM      4  H   UNL     1       1.856  -8.493   1.716  0.00  0.00    +0.149 HD
ENDROOT
BRANCH   1   5
ATOM      5  C   UNL     1       2.428  -6.548   1.087  0.00  0.00    +0.109 C 
BRANCH   5   6
ATOM      6  C   UNL     1       1.142  -6.064   1.761  0.00  0.00    +0.054 C 
BRANCH   6  10
ATOM      7  C   UNL     1       0.802  -1.825   1.306  0.00  0.00    +0.162 A 
ATOM      8  C   UNL     1       0.261  -2.673   0.353  0.00  0.00    +0.050 A 
ATOM      9  C   UNL     1       0.372  -4.043   0.502  0.00  0.00    +0.007 A 
ATOM     10  C   UNL     1       1.024  -4.570   1.602  0.00  0.00    -0.042 A 
ATOM     11  C   UNL     1       1.566  -3.730   2.557  0.00  0.00    +0.053 A 
ATOM     12  C   UNL     1       1.462  -2.356   2.410  0.00  0.00    +0.162 A 
BRANCH   7  13
ATOM     13  O   UNL     1       0.693  -0.477   1.160  0.00  0.00    -0.489 OA
BRANCH  13  15
ATOM     14  C   UNL     1      -0.019   1.526   0.010  0.00  0.00    +0.048 C 
ATOM     15  C   UNL     1       0.002  -0.004   0.002  0.00  0.00    +0.226 C 
ENDBRANCH  13  15
ENDBRANCH   7  13
BRANCH  12  16
ATOM     16  O   UNL     1       2.000  -1.528   3.345  0.00  0.00    -0.489 OA
BRANCH  16  17
ATOM     17  C   UNL     1       2.664  -2.143   4.451  0.00  0.00    +0.226 C 
ATOM     18  C   UNL     1       3.200  -1.060   5.390  0.00  0.00    +0.048 C 
ENDBRANCH  16  17
ENDBRANCH  12  16
ENDBRANCH   6  10
ENDBRANCH   5   6
ENDBRANCH   1   5
BRANCH   2  19
ATOM     19  C   UNL     1       3.723 -10.144   0.882  0.00  0.00    +0.327 C 
BRANCH  19  20
ATOM     20  O   UNL     1       4.924 -10.596   0.253  0.00  0.00    -0.452 OA
BRANCH  20  21
ATOM     21  C   UNL     1       5.182 -11.919   0.305  0.00  0.00    +0.332 C 
ATOM     22  O   UNL     1       4.408 -12.668   0.869  0.00  0.00    -0.246 OA
BRANCH  21  23
ATOM     23  C   UNL     1       6.393 -12.453  -0.317  0.00  0.00    +0.092 C 
ATOM     24  C   UNL     1       6.651 -13.776  -0.266  0.00  0.00    +0.015 C 
BRANCH  24  25
ATOM     25  C   UNL     1       7.870 -14.313  -0.892  0.00  0.00    -0.025 A 
ATOM     26  C   UNL     1       8.766 -13.454  -1.537  0.00  0.00    +0.008 A 
ATOM     27  C   UNL     1       9.906 -13.965  -2.121  0.00  0.00    +0.001 A 
ATOM     28  C   UNL     1      10.164 -15.324  -2.071  0.00  0.00    +0.000 A 
ATOM     29  C   UNL     1       9.282 -16.180  -1.435  0.00  0.00    +0.001 A 
ATOM     30  C   UNL     1       8.141 -15.684  -0.841  0.00  0.00    +0.008 A 
ENDBRANCH  24  25
ENDBRANCH  21  23
ENDBRANCH  20  21
ENDBRANCH  19  20
ENDBRANCH   2  19
TORSDOF 12
