REMARK  Name = ZINC22898358
REMARK  7 active torsions:
REMARK  status: ('A' for Active; 'I' for Inactive)
REMARK    1  A    between atoms: C_1  and  C_2
REMARK    2  A    between atoms: C_4  and  C_34
REMARK    3  A    between atoms: N_11  and  C_12
REMARK    4  A    between atoms: C_12  and  C_13
REMARK    5  A    between atoms: C_18  and  C_20
REMARK    6  A    between atoms: N_23  and  S_26
REMARK    7  A    between atoms: S_26  and  C_29
REMARK                            x       y       z     vdW  Elec       q    Type
REMARK                         _______ _______ _______ _____ _____    ______ ____
ROOT
ATOM      1  C   UNL     1       1.586  10.320   7.854  0.00  0.00    +0.044 C 
ATOM      2  C   UNL     1       0.599   9.978   6.768  0.00  0.00    -0.048 A 
ATOM      3  C   UNL     1      -0.457  10.841   6.515  0.00  0.00    +0.008 A 
ATOM      4  C   UNL     1      -1.363  10.529   5.518  0.00  0.00    -0.034 A 
ATOM      5  C   UNL     1      -1.205   9.372   4.797  0.00  0.00    +0.044 A 
ATOM      6  C   UNL     1      -0.141   8.469   5.026  0.00  0.00    +0.081 A 
ATOM      7  C   UNL     1       0.766   8.821   6.052  0.00  0.00    +0.032 A 
ATOM      8  N   UNL     1      -0.121   7.376   4.234  0.00  0.00    -0.224 NA
ATOM      9  C   UNL     1      -1.026   7.159   3.308  0.00  0.00    +0.168 A 
ATOM     10  S   UNL     1      -2.083   8.591   3.465  0.00  0.00    -0.052 S 
ATOM     11  N   UNL     1      -1.131   6.093   2.429  0.00  0.00    -0.243 N 
ATOM     12  C   UNL     1      -0.302   5.037   2.548  0.00  0.00    +0.225 C 
ATOM     13  O   UNL     1      -0.337   4.144   1.728  0.00  0.00    -0.275 OA
ATOM     14  C   UNL     1      -2.518  11.453   5.227  0.00  0.00    +0.045 C 
ENDROOT
BRANCH  12  15
ATOM     15  C   UNL     1       0.667   4.966   3.699  0.00  0.00    +0.078 C 
ATOM     16  C   UNL     1       1.100   3.514   3.912  0.00  0.00    +0.030 C 
ATOM     17  C   UNL     1       2.059   3.441   5.105  0.00  0.00    +0.110 C 
ATOM     18  N   UNL     1       3.170   4.375   4.877  0.00  0.00    -0.176 NA
ATOM     19  C   UNL     1       2.861   5.780   4.579  0.00  0.00    +0.110 C 
ATOM     20  C   UNL     1       1.894   5.825   3.387  0.00  0.00    +0.030 C 
BRANCH  18  21
ATOM     21  S   UNL     1       4.740   3.855   4.962  0.00  0.00    +0.067 S 
ATOM     22  O   UNL     1       5.531   4.997   5.258  0.00  0.00    -0.152 OA
ATOM     23  O   UNL     1       4.740   2.694   5.782  0.00  0.00    -0.152 OA
BRANCH  21  24
ATOM     24  C   UNL     1       5.202   3.328   3.345  0.00  0.00    +0.143 A 
ATOM     25  C   UNL     1       5.754   4.048   2.338  0.00  0.00    +0.036 A 
ATOM     26  C   UNL     1       6.039   3.418   1.141  0.00  0.00    +0.010 A 
ATOM     27  C   UNL     1       5.748   2.101   1.006  0.00  0.00    +0.047 A 
ATOM     28  S   UNL     1       5.055   1.710   2.605  0.00  0.00    -0.077 S 
ENDBRANCH  21  24
ENDBRANCH  18  21
ENDBRANCH  12  15
BRANCH  11  29
ATOM     29  C   UNL     1      -2.144   6.114   1.370  0.00  0.00    +0.189 C 
BRANCH  29  30
ATOM     30  C   UNL     1      -3.370   5.372   1.833  0.00  0.00    +0.123 A 
ATOM     31  C   UNL     1      -4.445   5.921   2.427  0.00  0.00    +0.046 A 
ATOM     32  C   UNL     1      -5.351   4.868   2.690  0.00  0.00    +0.041 A 
ATOM     33  C   UNL     1      -4.776   3.738   2.242  0.00  0.00    +0.195 A 
ATOM     34  O   UNL     1      -3.579   4.050   1.719  0.00  0.00    -0.466 OA
ENDBRANCH  29  30
ENDBRANCH  11  29
TORSDOF 5
