REMARK  Name = ZINC36694374
REMARK  11 active torsions:
REMARK  status: ('A' for Active; 'I' for Inactive)
REMARK    1  A    between atoms: C_1  and  C_2
REMARK    2  A    between atoms: C_2  and  N_3
REMARK    3  A    between atoms: N_3  and  C_4
REMARK    4  A    between atoms: N_3  and  C_6
REMARK    5  A    between atoms: C_4  and  C_5
REMARK    6  A    between atoms: C_6  and  C_7
REMARK    7  A    between atoms: C_7  and  N_8
REMARK    8  A    between atoms: C_19  and  C_21
REMARK    9  A    between atoms: C_24  and  S_27
REMARK   10  A    between atoms: S_27  and  C_30
REMARK   11  A    between atoms: C_30  and  C_31
REMARK                            x       y       z     vdW  Elec       q    Type
REMARK                         _______ _______ _______ _____ _____    ______ ____
ROOT
ATOM      1  N   UNL     1      -3.074  -4.313   0.563  0.00  0.00    -0.248 N 
ATOM      2  C   UNL     1      -3.493  -4.923   1.733  0.00  0.00    +0.168 A 
ATOM      3  N   UNL     1      -4.257  -4.440   2.685  0.00  0.00    -0.224 NA
ATOM      4  C   UNL     1      -4.588  -5.155   3.783  0.00  0.00    +0.080 A 
ATOM      5  C   UNL     1      -5.396  -4.756   4.873  0.00  0.00    +0.030 A 
ATOM      6  C   UNL     1      -5.634  -5.611   5.917  0.00  0.00    +0.017 A 
ATOM      7  C   UNL     1      -5.096  -6.891   5.945  0.00  0.00    +0.019 A 
ATOM      8  C   UNL     1      -4.301  -7.314   4.894  0.00  0.00    +0.032 A 
ATOM      9  C   UNL     1      -4.058  -6.464   3.844  0.00  0.00    +0.042 A 
ATOM     10  S   UNL     1      -3.138  -6.570   2.328  0.00  0.00    -0.052 S 
ATOM     11 BR   UNL     1      -5.445  -8.043   7.403  0.00  0.00    -0.050 Br
ATOM     12  C   UNL     1      -2.288  -4.983  -0.302  0.00  0.00    +0.252 C 
ATOM     13  O   UNL     1      -1.991  -6.141  -0.082  0.00  0.00    -0.270 OA
ENDROOT
BRANCH  12  14
ATOM     14  C   UNL     1      -1.787  -4.311  -1.519  0.00  0.00    +0.037 A 
ATOM     15  C   UNL     1      -1.562  -2.933  -1.516  0.00  0.00    +0.015 A 
ATOM     16  C   UNL     1      -1.094  -2.312  -2.655  0.00  0.00    +0.027 A 
ATOM     17  C   UNL     1      -0.848  -3.050  -3.799  0.00  0.00    +0.088 A 
ATOM     18  C   UNL     1      -1.069  -4.416  -3.809  0.00  0.00    +0.027 A 
ATOM     19  C   UNL     1      -1.531  -5.051  -2.675  0.00  0.00    +0.015 A 
BRANCH  17  20
ATOM     20  S   UNL     1      -0.250  -2.248  -5.250  0.00  0.00    -0.003 S 
ATOM     21  O   UNL     1      -0.682  -3.073  -6.324  0.00  0.00    -0.169 OA
ATOM     22  O   UNL     1      -0.707  -0.908  -5.137  0.00  0.00    -0.169 OA
BRANCH  20  23
ATOM     23  C   UNL     1       1.557  -2.307  -5.104  0.00  0.00    +0.168 C 
ATOM     24  C   UNL     1       2.189  -1.632  -6.323  0.00  0.00    +0.028 C 
ENDBRANCH  20  23
ENDBRANCH  17  20
ENDBRANCH  12  14
BRANCH   1  25
ATOM     25  C   UNL     1      -3.486  -2.939   0.265  0.00  0.00    +0.097 C 
BRANCH  25  26
ATOM     26  C   UNL     1      -2.644  -1.964   1.091  0.00  0.00    -0.059 C 
BRANCH  26  27
ATOM     27  N   UNL     1      -2.971  -0.585   0.703  0.00  0.00    +0.380 N 
ATOM     28  H   UNL     1      -2.836  -0.475  -0.290  0.00  0.00    -0.082 HD
BRANCH  27  30
ATOM     29  C   UNL     1      -4.747   1.091   0.527  0.00  0.00    -0.017 C 
ATOM     30  C   UNL     1      -4.371  -0.300   1.043  0.00  0.00    -0.082 C 
ENDBRANCH  27  30
BRANCH  27  31
ATOM     31  C   UNL     1      -2.092   0.347   1.423  0.00  0.00    -0.082 C 
ATOM     32  C   UNL     1      -0.652   0.165   0.941  0.00  0.00    -0.017 C 
ENDBRANCH  27  31
ENDBRANCH  26  27
ENDBRANCH  25  26
ENDBRANCH   1  25
TORSDOF 8
