REMARK  Name = ZINC12160299
REMARK  10 active torsions:
REMARK  status: ('A' for Active; 'I' for Inactive)
REMARK    1  A    between atoms: C_1  and  C_2
REMARK    2  A    between atoms: C_2  and  O_3
REMARK    3  A    between atoms: O_3  and  C_4
REMARK    4  A    between atoms: C_9  and  N_10
REMARK    5  A    between atoms: C_15  and  C_16
REMARK    6  A    between atoms: C_15  and  N_69
REMARK    7  A    between atoms: N_24  and  C_27
REMARK    8  A    between atoms: C_27  and  C_28
REMARK    9  A    between atoms: C_32  and  O_34
REMARK   10  A    between atoms: O_34  and  C_35
REMARK                            x       y       z     vdW  Elec       q    Type
REMARK                         _______ _______ _______ _____ _____    ______ ____
ROOT
ATOM      1  C   UNL     1      -7.159   0.768   1.477  0.00  0.00    +0.001 A 
ATOM      2  C   UNL     1      -6.967   1.757   2.386  0.00  0.00    +0.017 A 
ATOM      3  C   UNL     1      -7.582   1.621   3.707  0.00  0.00    -0.001 A 
ATOM      4  C   UNL     1      -7.420   2.608   4.686  0.00  0.00    +0.013 A 
ATOM      5  C   UNL     1      -8.006   2.453   5.909  0.00  0.00    +0.039 A 
ATOM      6  C   UNL     1      -8.764   1.321   6.191  0.00  0.00    +0.125 A 
ATOM      7  C   UNL     1      -8.937   0.334   5.240  0.00  0.00    +0.064 A 
ATOM      8  C   UNL     1      -8.348   0.473   3.988  0.00  0.00    +0.055 A 
ATOM      9  N   UNL     1      -8.505  -0.496   3.019  0.00  0.00    -0.304 N 
ATOM     10  C   UNL     1      -7.941  -0.359   1.807  0.00  0.00    +0.253 A 
ATOM     11  O   UNL     1      -8.104  -1.233   0.973  0.00  0.00    -0.267 OA
ATOM     12  F   UNL     1      -9.336   1.185   7.407  0.00  0.00    -0.205 F 
ENDROOT
BRANCH   1  13
ATOM     13  C   UNL     1      -6.540   0.878   0.107  0.00  0.00    -0.037 C 
BRANCH  13  19
ATOM     14  N   UNL     1      -2.417  -0.039   0.024  0.00  0.00    -0.331 N 
ATOM     15  C   UNL     1      -3.160  -0.319   1.261  0.00  0.00    +0.086 C 
ATOM     16  C   UNL     1      -4.452   0.502   1.274  0.00  0.00    -0.059 C 
ATOM     17  C   UNL     1      -4.513   0.444  -1.145  0.00  0.00    -0.059 C 
ATOM     18  C   UNL     1      -3.222  -0.377  -1.158  0.00  0.00    +0.086 C 
ATOM     19  N   UNL     1      -5.261   0.137   0.092  0.00  0.00    +0.385 N 
ATOM     20  H   UNL     1      -5.458  -0.870   0.121  0.00  0.00    -0.081 HD
BRANCH  14  26
ATOM     21  C   UNL     1       0.002  -0.004   0.002  0.00  0.00    +0.141 A 
ATOM     22  C   UNL     1       1.210  -0.682  -0.019  0.00  0.00    +0.047 A 
ATOM     23  C   UNL     1       1.227  -2.065  -0.021  0.00  0.00    +0.004 A 
ATOM     24  C   UNL     1       0.041  -2.775  -0.013  0.00  0.00    +0.002 A 
ATOM     25  C   UNL     1      -1.169  -2.106   0.002  0.00  0.00    +0.027 A 
ATOM     26  C   UNL     1      -1.194  -0.719   0.010  0.00  0.00    +0.072 A 
BRANCH  21  27
ATOM     27  O   UNL     1      -0.016   1.356   0.009  0.00  0.00    -0.490 OA
BRANCH  27  29
ATOM     28  C   UNL     1       1.027   3.536   0.011  0.00  0.00    +0.048 C 
ATOM     29  C   UNL     1       1.248   2.022   0.001  0.00  0.00    +0.226 C 
ENDBRANCH  27  29
ENDBRANCH  21  27
ENDBRANCH  14  26
ENDBRANCH  13  19
ENDBRANCH   1  13
BRANCH   9  30
ATOM     30  C   UNL     1      -9.302  -1.689   3.314  0.00  0.00    +0.160 C 
BRANCH  30  31
ATOM     31  C   UNL     1     -10.741  -1.436   2.942  0.00  0.00    -0.024 A 
ATOM     32  C   UNL     1     -11.614  -0.911   3.876  0.00  0.00    +0.005 A 
ATOM     33  C   UNL     1     -12.933  -0.673   3.536  0.00  0.00    +0.004 A 
ATOM     34  C   UNL     1     -13.384  -0.970   2.264  0.00  0.00    +0.045 A 
ATOM     35  C   UNL     1     -12.511  -1.502   1.327  0.00  0.00    +0.120 A 
ATOM     36  C   UNL     1     -11.187  -1.735   1.669  0.00  0.00    +0.051 A 
BRANCH  35  37
ATOM     37  O   UNL     1     -12.952  -1.796   0.075  0.00  0.00    -0.495 OA
ATOM     38  C   UNL     1     -14.328  -1.530  -0.206  0.00  0.00    +0.277 C 
ENDBRANCH  35  37
ENDBRANCH  30  31
ENDBRANCH   9  30
TORSDOF 8
