REMARK  Name = ZINC19531856
REMARK  6 active torsions:
REMARK  status: ('A' for Active; 'I' for Inactive)
REMARK    1  A    between atoms: C_1  and  C_2
REMARK    2  A    between atoms: C_2  and  C_4
REMARK    3  A    between atoms: C_7  and  N_10
REMARK    4  A    between atoms: N_13  and  C_16
REMARK    5  A    between atoms: C_16  and  C_17
REMARK    6  A    between atoms: N_22  and  C_23
REMARK                            x       y       z     vdW  Elec       q    Type
REMARK                         _______ _______ _______ _____ _____    ______ ____
ROOT
ATOM      1  N   UNL     1       8.324   3.258  -0.764  0.00  0.00    -0.333 N 
ATOM      2  C   UNL     1       8.260   2.580   0.538  0.00  0.00    +0.086 C 
ATOM      3  C   UNL     1       7.179   1.498   0.495  0.00  0.00    -0.059 C 
ATOM      4  N   UNL     1       5.887   2.112   0.160  0.00  0.00    +0.387 N 
ATOM      5  C   UNL     1       5.951   2.789  -1.143  0.00  0.00    -0.059 C 
ATOM      6  C   UNL     1       7.032   3.872  -1.099  0.00  0.00    +0.086 C 
ATOM      7  H   UNL     1       5.662   2.869   0.926  0.00  0.00    -0.081 HD
ENDROOT
BRANCH   1  11
ATOM      8  C   UNL     1      11.371   6.076  -0.828  0.00  0.00    +0.017 A 
ATOM      9  C   UNL     1      10.571   5.881  -1.962  0.00  0.00    +0.013 A 
ATOM     10  C   UNL     1       9.569   4.953  -1.936  0.00  0.00    +0.024 A 
ATOM     11  C   UNL     1       9.344   4.200  -0.786  0.00  0.00    +0.030 A 
ATOM     12  C   UNL     1      10.134   4.394   0.345  0.00  0.00    +0.024 A 
ATOM     13  C   UNL     1      11.141   5.317   0.326  0.00  0.00    +0.013 A 
BRANCH   8  15
ATOM     14  C   UNL     1      13.382   7.200   0.326  0.00  0.00    +0.091 C 
ATOM     15  C   UNL     1      12.449   7.072  -0.851  0.00  0.00    +0.160 C 
ATOM     16  O   UNL     1      12.589   7.792  -1.817  0.00  0.00    -0.292 OA
ENDBRANCH   8  15
ENDBRANCH   1  11
BRANCH   4  17
ATOM     17  C   UNL     1       4.809   1.115   0.183  0.00  0.00    +0.019 C 
BRANCH  17  18
ATOM     18  C   UNL     1       3.477   1.813   0.080  0.00  0.00    +0.204 C 
ATOM     19  O   UNL     1       3.431   3.021  -0.004  0.00  0.00    -0.277 OA
ATOM     20  N   UNL     1       2.337   1.094   0.081  0.00  0.00    -0.241 N 
ATOM     21  C   UNL     1       1.146   1.718  -0.011  0.00  0.00    +0.310 C 
ATOM     22  O   UNL     1       1.100   2.929  -0.096  0.00  0.00    -0.252 OA
ATOM     23  N   UNL     1       0.007   0.999  -0.010  0.00  0.00    -0.269 N 
ATOM     24  H   UNL     1       2.379  -0.003   0.158  0.00  0.00    +0.159 HD
ATOM     25  H   UNL     1       0.050  -0.101  -0.005  0.00  0.00    +0.156 HD
BRANCH  23  26
ATOM     26  C   UNL     1      -1.232   1.650  -0.014  0.00  0.00    +0.035 A 
ATOM     27  C   UNL     1      -2.308   1.103   0.672  0.00  0.00    +0.024 A 
ATOM     28  C   UNL     1      -3.528   1.751   0.671  0.00  0.00    +0.017 A 
ATOM     29  C   UNL     1      -3.681   2.938  -0.023  0.00  0.00    +0.018 A 
ATOM     30  C   UNL     1      -2.612   3.482  -0.713  0.00  0.00    +0.017 A 
ATOM     31  C   UNL     1      -1.389   2.841  -0.710  0.00  0.00    +0.024 A 
ATOM     32 BR   UNL     1      -5.355   3.819  -0.029  0.00  0.00    -0.050 Br
ENDBRANCH  23  26
ENDBRANCH  17  18
ENDBRANCH   4  17
TORSDOF 5
