REMARK  Name = ZINC39885629
REMARK  12 active torsions:
REMARK  status: ('A' for Active; 'I' for Inactive)
REMARK    1  A    between atoms: C_1  and  C_2
REMARK    2  A    between atoms: C_2  and  C_3
REMARK    3  A    between atoms: C_3  and  C_4
REMARK    4  A    between atoms: C_4  and  C_5
REMARK    5  A    between atoms: C_5  and  C_6
REMARK    6  A    between atoms: C_6  and  O_7
REMARK    7  A    between atoms: O_7  and  C_8
REMARK    8  A    between atoms: C_11  and  C_14
REMARK    9  A    between atoms: C_20  and  S_22
REMARK   10  A    between atoms: S_22  and  C_23
REMARK   11  A    between atoms: C_23  and  C_24
REMARK   12  A    between atoms: C_25  and  C_26
REMARK                            x       y       z     vdW  Elec       q    Type
REMARK                         _______ _______ _______ _____ _____    ______ ____
ROOT
ATOM      1  C   UNL     1       2.582 -10.058  -4.377  0.00  0.00    +0.250 C 
ATOM      2  O   UNL     1       2.115 -10.809  -3.544  0.00  0.00    -0.270 OA
ATOM      3  N   UNL     1       3.206 -10.558  -5.462  0.00  0.00    -0.259 N 
ATOM      4  C   UNL     1       3.316 -11.936  -5.628  0.00  0.00    +0.189 A 
ATOM      5  N   UNL     1       2.881 -12.922  -4.860  0.00  0.00    -0.125 NA
ATOM      6  N   UNL     1       3.066 -14.133  -5.159  0.00  0.00    -0.133 NA
ATOM      7  C   UNL     1       3.707 -14.493  -6.262  0.00  0.00    +0.160 A 
ATOM      8  S   UNL     1       4.077 -12.880  -6.945  0.00  0.00    -0.024 S 
ATOM      9  H   UNL     1       3.579  -9.959  -6.127  0.00  0.00    +0.157 HD
ENDROOT
BRANCH   1  13
ATOM     10  C   UNL     1       2.250  -5.855  -3.870  0.00  0.00    +0.121 A 
ATOM     11  C   UNL     1       1.714  -6.712  -2.917  0.00  0.00    +0.046 A 
ATOM     12  C   UNL     1       1.820  -8.076  -3.078  0.00  0.00    +0.016 A 
ATOM     13  C   UNL     1       2.466  -8.597  -4.201  0.00  0.00    +0.037 A 
ATOM     14  C   UNL     1       3.004  -7.731  -5.158  0.00  0.00    +0.016 A 
ATOM     15  C   UNL     1       2.889  -6.369  -4.992  0.00  0.00    +0.046 A 
BRANCH  10  16
ATOM     16  O   UNL     1       2.145  -4.511  -3.708  0.00  0.00    -0.492 OA
BRANCH  16  17
ATOM     17  C   UNL     1       1.476  -4.051  -2.532  0.00  0.00    +0.229 C 
BRANCH  17  18
ATOM     18  C   UNL     1       1.455  -2.521  -2.524  0.00  0.00    +0.041 C 
BRANCH  18  19
ATOM     19  C   UNL     1       0.739  -2.027  -1.265  0.00  0.00    +0.003 C 
BRANCH  19  20
ATOM     20  C   UNL     1       0.718  -0.497  -1.257  0.00  0.00    -0.000 C 
BRANCH  20  22
ATOM     21  C   UNL     1      -0.019   1.526   0.010  0.00  0.00    +0.004 C 
ATOM     22  C   UNL     1       0.002  -0.004   0.002  0.00  0.00    -0.003 C 
ENDBRANCH  20  22
ENDBRANCH  19  20
ENDBRANCH  18  19
ENDBRANCH  17  18
ENDBRANCH  16  17
ENDBRANCH  10  16
ENDBRANCH   1  13
BRANCH   7  23
ATOM     23  S   UNL     1       4.081 -16.099  -6.882  0.00  0.00    -0.093 S 
BRANCH  23  24
ATOM     24  C   UNL     1       3.375 -17.222  -5.645  0.00  0.00    +0.103 C 
BRANCH  24  25
ATOM     25  C   UNL     1       3.629 -18.649  -6.059  0.00  0.00    -0.015 C 
ATOM     26  C   UNL     1       4.412 -19.424  -5.322  0.00  0.00    +0.004 C 
BRANCH  26  27
ATOM     27  C   UNL     1       4.660 -20.823  -5.729  0.00  0.00    -0.025 A 
ATOM     28  C   UNL     1       4.077 -21.329  -6.891  0.00  0.00    +0.008 A 
ATOM     29  C   UNL     1       4.312 -22.637  -7.265  0.00  0.00    +0.001 A 
ATOM     30  C   UNL     1       5.125 -23.445  -6.490  0.00  0.00    +0.000 A 
ATOM     31  C   UNL     1       5.706 -22.949  -5.337  0.00  0.00    +0.001 A 
ATOM     32  C   UNL     1       5.484 -21.642  -4.955  0.00  0.00    +0.008 A 
ENDBRANCH  26  27
ENDBRANCH  24  25
ENDBRANCH  23  24
ENDBRANCH   7  23
TORSDOF 11
