REMARK  Name = ZINC12500565
REMARK  7 active torsions:
REMARK  status: ('A' for Active; 'I' for Inactive)
REMARK    1  A    between atoms: C_4  and  N_7
REMARK    2  A    between atoms: N_7  and  C_8
REMARK    3  A    between atoms: C_11  and  N_14
REMARK    4  A    between atoms: N_14  and  C_15
REMARK    5  A    between atoms: C_15  and  N_17
REMARK    6  A    between atoms: C_18  and  C_20
REMARK    7  A    between atoms: C_21  and  C_22
REMARK                            x       y       z     vdW  Elec       q    Type
REMARK                         _______ _______ _______ _____ _____    ______ ____
ROOT
ATOM      1  N   UNL     1       7.166   3.965   0.375  0.00  0.00    -0.297 N 
ATOM      2  H   UNL     1       8.016   3.502   0.311  0.00  0.00    +0.154 HD
ENDROOT
BRANCH   1   6
ATOM      3  C   UNL     1       3.598   1.839   0.001  0.00  0.00    +0.031 A 
ATOM      4  C   UNL     1       4.623   1.342   0.796  0.00  0.00    +0.025 A 
ATOM      5  C   UNL     1       5.806   2.043   0.915  0.00  0.00    +0.025 A 
ATOM      6  C   UNL     1       5.967   3.251   0.249  0.00  0.00    +0.033 A 
ATOM      7  C   UNL     1       4.941   3.751  -0.541  0.00  0.00    +0.025 A 
ATOM      8  C   UNL     1       3.760   3.047  -0.665  0.00  0.00    +0.025 A 
BRANCH   3   9
ATOM      9  N   UNL     1       2.401   1.125  -0.125  0.00  0.00    -0.314 N 
ATOM     10  H   UNL     1       1.568   1.598  -0.279  0.00  0.00    +0.152 HD
BRANCH   9  14
ATOM     11  C   UNL     1       2.413  -3.029   0.164  0.00  0.00    +0.000 A 
ATOM     12  C   UNL     1       1.304  -2.312   0.573  0.00  0.00    +0.002 A 
ATOM     13  C   UNL     1       1.294  -0.935   0.473  0.00  0.00    +0.023 A 
ATOM     14  C   UNL     1       2.405  -0.268  -0.028  0.00  0.00    +0.031 A 
ATOM     15  C   UNL     1       3.521  -0.991  -0.433  0.00  0.00    +0.023 A 
ATOM     16  C   UNL     1       3.521  -2.369  -0.335  0.00  0.00    +0.002 A 
ENDBRANCH   9  14
ENDBRANCH   3   9
ENDBRANCH   1   6
BRANCH   1  17
ATOM     17  C   UNL     1       7.138   5.296   0.585  0.00  0.00    +0.141 C 
ATOM     18  S   UNL     1       5.643   6.129   0.604  0.00  0.00    -0.018 S 
BRANCH  17  19
ATOM     19  N   UNL     1       8.288   5.972   0.780  0.00  0.00    -0.264 N 
ATOM     20  C   UNL     1       8.261   7.303   0.990  0.00  0.00    +0.242 C 
ATOM     21  O   UNL     1       7.197   7.895   1.004  0.00  0.00    -0.270 OA
ATOM     22  H   UNL     1       9.136   5.500   0.769  0.00  0.00    +0.157 HD
BRANCH  20  23
ATOM     23  C   UNL     1       9.508   8.036   1.201  0.00  0.00    +0.068 C 
ATOM     24  C   UNL     1       9.480   9.369   1.412  0.00  0.00    +0.013 C 
BRANCH  24  25
ATOM     25  C   UNL     1      10.735  10.106   1.625  0.00  0.00    -0.025 A 
ATOM     26  C   UNL     1      11.959   9.427   1.615  0.00  0.00    +0.011 A 
ATOM     27  C   UNL     1      13.131  10.125   1.811  0.00  0.00    +0.039 A 
ATOM     28  C   UNL     1      13.099  11.494   2.026  0.00  0.00    +0.123 A 
ATOM     29  C   UNL     1      11.889  12.172   2.042  0.00  0.00    +0.039 A 
ATOM     30  C   UNL     1      10.710  11.488   1.843  0.00  0.00    +0.011 A 
ATOM     31  F   UNL     1      14.252  12.171   2.222  0.00  0.00    -0.205 F 
ENDBRANCH  24  25
ENDBRANCH  20  23
ENDBRANCH  17  19
ENDBRANCH   1  17
TORSDOF 7
