REMARK  Name = ZINC60140211
REMARK  9 active torsions:
REMARK  status: ('A' for Active; 'I' for Inactive)
REMARK    1  A    between atoms: C_1  and  C_2
REMARK    2  A    between atoms: C_2  and  N_3
REMARK    3  A    between atoms: N_3  and  C_4
REMARK    4  A    between atoms: C_4  and  C_6
REMARK    5  A    between atoms: C_4  and  C_7
REMARK    6  A    between atoms: C_7  and  C_8
REMARK    7  A    between atoms: C_7  and  C_9
REMARK    8  A    between atoms: C_10  and  C_12
REMARK    9  A    between atoms: C_13  and  C_22
REMARK                            x       y       z     vdW  Elec       q    Type
REMARK                         _______ _______ _______ _____ _____    ______ ____
ROOT
ATOM      1  C   UNL     1      -1.261  -0.600   2.449  0.00  0.00    +0.078 A 
ATOM      2  C   UNL     1      -1.639  -0.954   3.706  0.00  0.00    -0.021 A 
ATOM      3  C   UNL     1      -0.824  -0.624   4.803  0.00  0.00    +0.028 A 
ATOM      4  C   UNL     1      -1.047  -0.903   6.178  0.00  0.00    +0.132 A 
ATOM      5  C   UNL     1      -0.141  -0.505   7.126  0.00  0.00    +0.039 A 
ATOM      6  C   UNL     1       1.017   0.181   6.780  0.00  0.00    +0.004 A 
ATOM      7  C   UNL     1       1.266   0.469   5.453  0.00  0.00    +0.016 A 
ATOM      8  C   UNL     1       0.365   0.075   4.487  0.00  0.00    +0.023 A 
ATOM      9  S   UNL     1       0.296   0.229   2.720  0.00  0.00    -0.083 S 
ATOM     10  F   UNL     1      -2.161  -1.567   6.555  0.00  0.00    -0.205 F 
ATOM     11  C   UNL     1      -2.932  -1.698   3.923  0.00  0.00    +0.046 C 
ENDROOT
BRANCH   1  13
ATOM     12  N   UNL     1      -1.366  -0.526   0.012  0.00  0.00    -0.294 N 
ATOM     13  C   UNL     1      -1.958  -0.846   1.179  0.00  0.00    +0.254 C 
ATOM     14  O   UNL     1      -3.071  -1.339   1.182  0.00  0.00    -0.269 OA
BRANCH  12  16
ATOM     15  C   UNL     1       0.026   1.476   0.205  0.00  0.00    +0.024 C 
ATOM     16  C   UNL     1       0.016  -0.040   0.001  0.00  0.00    +0.105 C 
ENDBRANCH  12  16
BRANCH  12  17
ATOM     17  C   UNL     1      -2.104  -0.663  -1.246  0.00  0.00    +0.076 C 
ATOM     18  C   UNL     1      -1.373  -1.648  -2.161  0.00  0.00    +0.028 C 
BRANCH  17  19
ATOM     19  C   UNL     1      -2.196   0.700  -1.935  0.00  0.00    +0.003 C 
ATOM     20  C   UNL     1      -2.967   0.556  -3.249  0.00  0.00    +0.009 C 
ATOM     21  C   UNL     1      -2.927   1.685  -1.020  0.00  0.00    +0.009 C 
ENDBRANCH  17  19
ENDBRANCH  12  17
ENDBRANCH   1  13
TORSDOF 4
