REMARK  Name = ZINC65239704
REMARK  2 active torsions:
REMARK  status: ('A' for Active; 'I' for Inactive)
REMARK    1  A    between atoms: C_4  and  N_7
REMARK    2  A    between atoms: C_13  and  C_15
REMARK                            x       y       z     vdW  Elec       q    Type
REMARK                         _______ _______ _______ _____ _____    ______ ____
ROOT
ATOM      1  C   UNL     1       7.024  -3.837   1.098  0.00  0.00    +0.172 C 
ATOM      2  C   UNL     1       7.127  -4.538  -0.061  0.00  0.00    +0.041 C 
ATOM      3  C   UNL     1       7.340  -3.929  -1.427  0.00  0.00    +0.054 C 
ATOM      4  C   UNL     1       7.394  -5.125  -2.401  0.00  0.00    +0.025 C 
ATOM      5  C   UNL     1       7.634  -6.321  -1.454  0.00  0.00    +0.111 C 
ATOM      6  N   UNL     1       7.062  -5.901  -0.165  0.00  0.00    -0.300 N 
ATOM      7  C   UNL     1       6.490  -6.769   0.775  0.00  0.00    +0.059 A 
ATOM      8  C   UNL     1       6.076  -8.036   0.385  0.00  0.00    +0.025 A 
ATOM      9  C   UNL     1       5.492  -8.883   1.307  0.00  0.00    +0.002 A 
ATOM     10  C   UNL     1       5.316  -8.473   2.616  0.00  0.00    +0.002 A 
ATOM     11  C   UNL     1       5.735  -7.215   3.011  0.00  0.00    +0.029 A 
ATOM     12  C   UNL     1       6.328  -6.372   2.098  0.00  0.00    +0.115 A 
ATOM     13  S   UNL     1       6.926  -4.783   2.594  0.00  0.00    +0.033 S 
ATOM     14  O   UNL     1       8.257  -4.964   3.056  0.00  0.00    -0.164 OA
ATOM     15  O   UNL     1       5.909  -4.191   3.390  0.00  0.00    -0.164 OA
ENDROOT
BRANCH   1  22
ATOM     16  N   UNL     1       3.791  -0.645  -0.449  0.00  0.00    -0.327 N 
ATOM     17  C   UNL     1       5.062   0.090  -0.403  0.00  0.00    +0.124 C 
ATOM     18  C   UNL     1       5.809  -0.299   0.879  0.00  0.00    +0.127 C 
ATOM     19  N   UNL     1       5.835  -1.765   0.980  0.00  0.00    -0.293 N 
ATOM     20  C   UNL     1       4.563  -2.501   0.935  0.00  0.00    +0.127 C 
ATOM     21  C   UNL     1       3.816  -2.111  -0.342  0.00  0.00    +0.124 C 
ATOM     22  C   UNL     1       7.003  -2.423   1.111  0.00  0.00    +0.266 C 
ATOM     23  O   UNL     1       8.042  -1.800   1.242  0.00  0.00    -0.268 OA
BRANCH  16  27
ATOM     24  C   UNL     1       0.179   1.387  -0.854  0.00  0.00    +0.000 A 
ATOM     25  C   UNL     1       0.199   0.004  -0.869  0.00  0.00    +0.002 A 
ATOM     26  C   UNL     1       1.395  -0.673  -0.735  0.00  0.00    +0.023 A 
ATOM     27  C   UNL     1       2.579   0.036  -0.585  0.00  0.00    +0.030 A 
ATOM     28  C   UNL     1       2.557   1.425  -0.570  0.00  0.00    +0.023 A 
ATOM     29  C   UNL     1       1.357   2.096  -0.704  0.00  0.00    +0.002 A 
ENDBRANCH  16  27
ENDBRANCH   1  22
TORSDOF 2
