REMARK  Name = ZINC30754914
REMARK  5 active torsions:
REMARK  status: ('A' for Active; 'I' for Inactive)
REMARK    1  A    between atoms: C_1  and  C_2
REMARK    2  A    between atoms: C_7  and  N_8
REMARK    3  A    between atoms: C_9  and  C_11
REMARK    4  A    between atoms: N_14  and  S_22
REMARK    5  A    between atoms: S_22  and  C_25
REMARK                            x       y       z     vdW  Elec       q    Type
REMARK                         _______ _______ _______ _____ _____    ______ ____
ROOT
ATOM      1  C   UNL     1       2.094  -2.598  -0.409  0.00  0.00    +0.278 C 
ATOM      2  C   UNL     1       3.384  -2.305   0.372  0.00  0.00    +0.185 C 
ATOM      3  N   UNL     1       3.786  -0.922   0.066  0.00  0.00    -0.200 N 
ATOM      4  C   UNL     1       2.779   0.055   0.019  0.00  0.00    +0.093 A 
ATOM      5  C   UNL     1       3.114   1.400   0.020  0.00  0.00    +0.028 A 
ATOM      6  C   UNL     1       2.119   2.358  -0.031  0.00  0.00    +0.002 A 
ATOM      7  C   UNL     1       0.791   1.976  -0.082  0.00  0.00    +0.004 A 
ATOM      8  C   UNL     1       0.451   0.636  -0.080  0.00  0.00    +0.047 A 
ATOM      9  C   UNL     1       1.442  -0.332  -0.029  0.00  0.00    +0.144 A 
ATOM     10  O   UNL     1       1.098  -1.647  -0.025  0.00  0.00    -0.476 OA
ENDROOT
BRANCH   1  12
ATOM     11  N   UNL     1       2.350  -5.057  -0.458  0.00  0.00    -0.282 N 
ATOM     12  C   UNL     1       1.615  -3.990  -0.089  0.00  0.00    +0.260 C 
ATOM     13  O   UNL     1       0.567  -4.150   0.501  0.00  0.00    -0.271 OA
ATOM     14  H   UNL     1       3.332  -4.912  -0.932  0.00  0.00    +0.155 HD
BRANCH  11  21
ATOM     15  C   UNL     1       3.270  -7.146  -2.157  0.00  0.00    +0.046 C 
ATOM     16  C   UNL     1       2.288  -7.400  -1.043  0.00  0.00    -0.028 A 
ATOM     17  C   UNL     1       1.808  -8.676  -0.822  0.00  0.00    +0.019 A 
ATOM     18  C   UNL     1       0.906  -8.910   0.201  0.00  0.00    +0.014 A 
ATOM     19  C   UNL     1       0.483  -7.867   1.005  0.00  0.00    +0.016 A 
ATOM     20  C   UNL     1       0.964  -6.590   0.793  0.00  0.00    +0.024 A 
ATOM     21  C   UNL     1       1.865  -6.351  -0.237  0.00  0.00    +0.036 A 
ATOM     22  I   UNL     1       0.180 -10.847   0.532  0.00  0.00    -0.044 I 
ENDBRANCH  11  21
ENDBRANCH   1  12
BRANCH   3  23
ATOM     23  S   UNL     1       5.370  -0.532  -0.215  0.00  0.00    +0.043 S 
ATOM     24  O   UNL     1       6.000  -1.770  -0.517  0.00  0.00    -0.155 OA
ATOM     25  O   UNL     1       5.322   0.511  -1.179  0.00  0.00    -0.155 OA
ATOM     26  C   UNL     1       5.980   0.108   1.369  0.00  0.00    +0.218 C 
ENDBRANCH   3  23
TORSDOF 3
