REMARK  Name = ZINC39464912
REMARK  6 active torsions:
REMARK  status: ('A' for Active; 'I' for Inactive)
REMARK    1  A    between atoms: C_1  and  O_2
REMARK    2  A    between atoms: O_2  and  C_3
REMARK    3  A    between atoms: C_8  and  C_9
REMARK    4  A    between atoms: C_14  and  O_15
REMARK    5  A    between atoms: P_20  and  S_26
REMARK    6  A    between atoms: S_26  and  C_27
REMARK                            x       y       z     vdW  Elec       q    Type
REMARK                         _______ _______ _______ _____ _____    ______ ____
ROOT
ATOM      1  C   UNL     1      -1.200  -0.637   0.010  0.00  0.00    +0.128 A 
ATOM      2  C   UNL     1      -2.373   0.096   0.019  0.00  0.00    +0.050 A 
ATOM      3  C   UNL     1      -3.602  -0.546   0.028  0.00  0.00    -0.038 A 
ATOM      4  C   UNL     1      -3.667  -1.924   0.026  0.00  0.00    -0.023 A 
ATOM      5  C   UNL     1      -2.498  -2.668   0.017  0.00  0.00    +0.017 A 
ATOM      6  C   UNL     1      -1.260  -2.034   0.003  0.00  0.00    +0.028 A 
ATOM      7  C   UNL     1      -4.979  -2.664   0.033  0.00  0.00    +0.129 C 
ATOM      8  C   UNL     1      -4.883  -3.841   1.008  0.00  0.00    +0.195 C 
ATOM      9  O   UNL     1      -6.097  -4.612   0.922  0.00  0.00    -0.307 OA
ATOM     10  P   UNL     1      -7.518  -3.827   1.030  0.00  0.00    +0.341 P 
ATOM     11  O   UNL     1      -8.590  -4.620   0.390  0.00  0.00    -0.259 OA
ATOM     12  N   UNL     1      -7.300  -2.402   0.220  0.00  0.00    -0.170 NA
ATOM     13  N   UNL     1      -6.082  -1.781   0.409  0.00  0.00    -0.225 NA
ATOM     14  C   UNL     1      -6.049  -0.536  -0.374  0.00  0.00    +0.108 C 
ATOM     15  C   UNL     1      -4.852   0.299   0.041  0.00  0.00    +0.052 C 
ATOM     16  H   UNL     1      -7.993  -2.026  -0.345  0.00  0.00    +0.152 HD
ENDROOT
BRANCH   6  17
ATOM     17  C   UNL     1      -0.012  -2.834  -0.013  0.00  0.00    +0.027 A 
ATOM     18  C   UNL     1       0.295  -3.630  -1.115  0.00  0.00    +0.012 A 
ATOM     19  C   UNL     1       1.458  -4.373  -1.126  0.00  0.00    +0.001 A 
ATOM     20  C   UNL     1       2.322  -4.330  -0.046  0.00  0.00    +0.004 A 
ATOM     21  C   UNL     1       2.028  -3.544   1.052  0.00  0.00    +0.046 A 
ATOM     22  C   UNL     1       0.866  -2.789   1.074  0.00  0.00    +0.125 A 
BRANCH  22  23
ATOM     23  O   UNL     1       0.578  -2.012   2.151  0.00  0.00    -0.506 OA
ATOM     24  H   UNL     1       0.067  -2.463   2.836  0.00  0.00    +0.292 HD
ENDBRANCH  22  23
ENDBRANCH   6  17
BRANCH   1  26
ATOM     25  C   UNL     1      -0.017   1.425   0.010  0.00  0.00    +0.277 C 
ATOM     26  O   UNL     1       0.002  -0.004   0.002  0.00  0.00    -0.494 OA
ENDBRANCH   1  26
BRANCH  10  27
ATOM     27  S   UNL     1      -7.997  -3.454   3.061  0.00  0.00    -0.056 S 
ATOM     28  C   UNL     1      -8.083  -5.108   3.802  0.00  0.00    +0.096 C 
ENDBRANCH  10  27
TORSDOF 4
