REMARK  Name = ZINC40869436
REMARK  16 active torsions:
REMARK  status: ('A' for Active; 'I' for Inactive)
REMARK    1  A    between atoms: C_1  and  C_2
REMARK    2  A    between atoms: C_2  and  C_3
REMARK    3  A    between atoms: C_3  and  C_4
REMARK    4  A    between atoms: C_4  and  C_5
REMARK    5  A    between atoms: C_5  and  C_7
REMARK    6  A    between atoms: C_5  and  C_9
REMARK    7  A    between atoms: C_7  and  C_8
REMARK    8  A    between atoms: C_9  and  N_10
REMARK    9  A    between atoms: C_11  and  C_13
REMARK   10  A    between atoms: C_14  and  C_15
REMARK   11  A    between atoms: C_18  and  O_24
REMARK   12  A    between atoms: C_19  and  O_21
REMARK   13  A    between atoms: O_21  and  C_22
REMARK   14  A    between atoms: C_22  and  C_23
REMARK   15  A    between atoms: O_24  and  C_25
REMARK   16  A    between atoms: C_25  and  C_26
REMARK                            x       y       z     vdW  Elec       q    Type
REMARK                         _______ _______ _______ _____ _____    ______ ____
ROOT
ATOM      1  C   UNL     1      -5.907  -6.298  -0.250  0.00  0.00    +0.068 C 
ATOM      2  C   UNL     1      -6.159  -7.624  -0.276  0.00  0.00    +0.013 C 
ENDROOT
BRANCH   2   3
ATOM      3  C   UNL     1      -7.544  -8.108  -0.368  0.00  0.00    -0.021 A 
ATOM      4  C   UNL     1      -8.603  -7.195  -0.435  0.00  0.00    +0.012 A 
ATOM      5  C   UNL     1      -9.900  -7.651  -0.522  0.00  0.00    +0.050 A 
ATOM      6  C   UNL     1     -10.160  -9.015  -0.543  0.00  0.00    +0.162 A 
ATOM      7  C   UNL     1      -9.110  -9.931  -0.476  0.00  0.00    +0.162 A 
ATOM      8  C   UNL     1      -7.806  -9.482  -0.395  0.00  0.00    +0.057 A 
BRANCH   7   9
ATOM      9  O   UNL     1      -9.370 -11.265  -0.497  0.00  0.00    -0.489 OA
BRANCH   9  10
ATOM     10  C   UNL     1      -8.246 -12.146  -0.425  0.00  0.00    +0.226 C 
ATOM     11  C   UNL     1      -8.732 -13.596  -0.461  0.00  0.00    +0.048 C 
ENDBRANCH   9  10
ENDBRANCH   7   9
BRANCH   6  12
ATOM     12  O   UNL     1     -11.441  -9.459  -0.628  0.00  0.00    -0.489 OA
BRANCH  12  13
ATOM     13  C   UNL     1     -12.468  -8.467  -0.693  0.00  0.00    +0.226 C 
ATOM     14  C   UNL     1     -13.833  -9.152  -0.784  0.00  0.00    +0.048 C 
ENDBRANCH  12  13
ENDBRANCH   6  12
ENDBRANCH   2   3
BRANCH   1  16
ATOM     15  N   UNL     1      -4.278  -4.492  -0.132  0.00  0.00    -0.312 N 
ATOM     16  C   UNL     1      -4.529  -5.816  -0.158  0.00  0.00    +0.237 C 
ATOM     17  O   UNL     1      -3.609  -6.612  -0.104  0.00  0.00    -0.271 OA
ATOM     18  H   UNL     1      -5.011  -3.859  -0.175  0.00  0.00    +0.149 HD
BRANCH  15  19
ATOM     19  C   UNL     1      -2.898  -4.010  -0.040  0.00  0.00    +0.108 C 
BRANCH  19  20
ATOM     20  C   UNL     1      -2.892  -2.480  -0.029  0.00  0.00    +0.006 C 
BRANCH  20  21
ATOM     21  C   UNL     1      -3.582  -1.977   1.241  0.00  0.00    +0.002 C 
ATOM     22  C   UNL     1      -3.705  -0.453   1.184  0.00  0.00    +0.004 C 
ENDBRANCH  20  21
BRANCH  20  23
ATOM     23  C   UNL     1      -1.448  -1.976  -0.058  0.00  0.00    +0.005 C 
BRANCH  23  24
ATOM     24  C   UNL     1      -0.801  -2.360  -1.391  0.00  0.00    +0.000 C 
BRANCH  24  26
ATOM     25  C   UNL     1       1.244  -2.127  -2.807  0.00  0.00    +0.004 C 
ATOM     26  C   UNL     1       0.597  -1.743  -1.475  0.00  0.00    -0.003 C 
ENDBRANCH  24  26
ENDBRANCH  23  24
ENDBRANCH  20  23
ENDBRANCH  19  20
ENDBRANCH  15  19
ENDBRANCH   1  16
TORSDOF 12
