REMARK  Name = ZINC46576707
REMARK  7 active torsions:
REMARK  status: ('A' for Active; 'I' for Inactive)
REMARK    1  A    between atoms: C_1  and  C_2
REMARK    2  A    between atoms: C_6  and  N_9
REMARK    3  A    between atoms: C_7  and  C_8
REMARK    4  A    between atoms: C_15  and  C_21
REMARK    5  A    between atoms: N_23  and  C_24
REMARK    6  A    between atoms: C_28  and  N_30
REMARK    7  A    between atoms: C_31  and  C_33
REMARK                            x       y       z     vdW  Elec       q    Type
REMARK                         _______ _______ _______ _____ _____    ______ ____
ROOT
ATOM      1  N   UNL     1       0.018  -2.812   2.389  0.00  0.00    -0.255 N 
ATOM      2  C   UNL     1      -1.149  -3.161   2.976  0.00  0.00    +0.267 A 
ATOM      3  O   UNL     1      -2.327  -2.833   2.416  0.00  0.00    -0.267 OA
ATOM      4  C   UNL     1      -1.100  -3.876   4.191  0.00  0.00    +0.065 A 
ATOM      5  C   UNL     1      -2.268  -4.273   4.857  0.00  0.00    +0.016 A 
ATOM      6  C   UNL     1      -2.180  -4.963   6.028  0.00  0.00    +0.014 A 
ATOM      7  C   UNL     1      -0.930  -5.285   6.580  0.00  0.00    +0.039 A 
ATOM      8  C   UNL     1       0.241  -4.906   5.944  0.00  0.00    +0.041 A 
ATOM      9  C   UNL     1       0.171  -4.196   4.737  0.00  0.00    +0.080 A 
ATOM     10  N   UNL     1       1.278  -3.810   4.087  0.00  0.00    -0.222 NA
ATOM     11  C   UNL     1       1.195  -3.144   2.945  0.00  0.00    +0.188 A 
ATOM     12  S   UNL     1       2.641  -2.682   2.154  0.00  0.00    -0.011 S 
ENDROOT
BRANCH   1  18
ATOM     13  C   UNL     1      -0.032   1.493   0.013  0.00  0.00    +0.044 C 
ATOM     14  C   UNL     1      -0.024  -0.014   0.003  0.00  0.00    -0.046 A 
ATOM     15  C   UNL     1      -0.036  -0.697  -1.200  0.00  0.00    +0.004 A 
ATOM     16  C   UNL     1      -0.030  -2.079  -1.214  0.00  0.00    +0.002 A 
ATOM     17  C   UNL     1      -0.012  -2.783  -0.026  0.00  0.00    +0.026 A 
ATOM     18  C   UNL     1       0.000  -2.101   1.183  0.00  0.00    +0.055 A 
ATOM     19  C   UNL     1      -0.000  -0.712   1.194  0.00  0.00    -0.024 A 
ATOM     20  C   UNL     1       0.019   0.032   2.504  0.00  0.00    +0.046 C 
ENDBRANCH   1  18
BRANCH   7  21
ATOM     21  C   UNL     1      -0.863  -6.035   7.855  0.00  0.00    +0.248 C 
ATOM     22  O   UNL     1       0.216  -6.317   8.338  0.00  0.00    -0.270 OA
ATOM     23  N   UNL     1      -1.998  -6.406   8.479  0.00  0.00    -0.281 N 
ATOM     24  H   UNL     1      -2.858  -6.124   8.130  0.00  0.00    +0.155 HD
BRANCH  23  25
ATOM     25  C   UNL     1      -1.937  -7.197   9.630  0.00  0.00    +0.035 A 
ATOM     26  C   UNL     1      -2.914  -8.156   9.869  0.00  0.00    +0.023 A 
ATOM     27  C   UNL     1      -2.854  -8.938  11.006  0.00  0.00    +0.004 A 
ATOM     28  C   UNL     1      -1.822  -8.770  11.909  0.00  0.00    +0.023 A 
ATOM     29  C   UNL     1      -0.842  -7.814  11.677  0.00  0.00    +0.035 A 
ATOM     30  C   UNL     1      -0.897  -7.030  10.533  0.00  0.00    +0.046 A 
BRANCH  29  31
ATOM     31  N   UNL     1       0.203  -7.644  12.593  0.00  0.00    -0.285 N 
ATOM     32  C   UNL     1       0.704  -8.710  13.248  0.00  0.00    +0.220 C 
ATOM     33  O   UNL     1       0.196  -9.803  13.107  0.00  0.00    -0.275 OA
ATOM     34  H   UNL     1       0.566  -6.760  12.756  0.00  0.00    +0.155 HD
BRANCH  32  35
ATOM     35  C   UNL     1       1.896  -8.545  14.155  0.00  0.00    +0.075 C 
ATOM     36  C   UNL     1       3.214  -9.184  13.713  0.00  0.00    +0.013 C 
ATOM     37  C   UNL     1       2.418  -9.793  14.870  0.00  0.00    +0.013 C 
ENDBRANCH  32  35
ENDBRANCH  29  31
ENDBRANCH  23  25
ENDBRANCH   7  21
TORSDOF 5
