REMARK  Name = ZINC16923493
REMARK  8 active torsions:
REMARK  status: ('A' for Active; 'I' for Inactive)
REMARK    1  A    between atoms: C_1  and  C_2
REMARK    2  A    between atoms: C_6  and  N_9
REMARK    3  A    between atoms: C_7  and  C_8
REMARK    4  A    between atoms: C_12  and  C_17
REMARK    5  A    between atoms: C_17  and  C_18
REMARK    6  A    between atoms: N_20  and  C_21
REMARK    7  A    between atoms: C_23  and  C_29
REMARK    8  A    between atoms: C_25  and  C_27
REMARK                            x       y       z     vdW  Elec       q    Type
REMARK                         _______ _______ _______ _____ _____    ______ ____
ROOT
ATOM      1  C   UNL     1      -1.325   1.929  -0.145  0.00  0.00    +0.120 C 
ENDROOT
BRANCH   1   5
ATOM      2  N   UNL     1      -4.518   1.526  -1.442  0.00  0.00    -0.200 N 
ATOM      3  C   UNL     1      -3.818   1.603  -0.323  0.00  0.00    +0.241 C 
ATOM      4  O   UNL     1      -4.232   2.179   0.661  0.00  0.00    -0.274 OA
ATOM      5  C   UNL     1      -2.458   0.922  -0.355  0.00  0.00    +0.151 C 
ATOM      6  S   UNL     1      -2.468   0.277  -2.075  0.00  0.00    -0.054 S 
ATOM      7  C   UNL     1      -4.079   0.893  -2.546  0.00  0.00    +0.286 C 
ATOM      8  O   UNL     1      -4.646   0.769  -3.615  0.00  0.00    -0.262 OA
BRANCH   2  14
ATOM      9  C   UNL     1      -9.380   1.230  -0.760  0.00  0.00    +0.044 C 
ATOM     10  C   UNL     1      -8.154   2.012  -1.155  0.00  0.00    -0.046 A 
ATOM     11  C   UNL     1      -8.274   3.330  -1.558  0.00  0.00    +0.004 A 
ATOM     12  C   UNL     1      -7.152   4.050  -1.922  0.00  0.00    +0.002 A 
ATOM     13  C   UNL     1      -5.905   3.455  -1.885  0.00  0.00    +0.024 A 
ATOM     14  C   UNL     1      -5.781   2.132  -1.481  0.00  0.00    +0.048 A 
ATOM     15  C   UNL     1      -6.911   1.410  -1.121  0.00  0.00    -0.026 A 
ATOM     16  C   UNL     1      -6.781  -0.027  -0.687  0.00  0.00    +0.046 C 
ENDBRANCH   2  14
ENDBRANCH   1   5
BRANCH   1  17
ATOM     17  C   UNL     1      -0.002   1.208  -0.160  0.00  0.00    +0.219 C 
ATOM     18  O   UNL     1       0.032   0.006  -0.324  0.00  0.00    -0.275 OA
ATOM     19  N   UNL     1       1.143   1.898   0.001  0.00  0.00    -0.285 N 
ATOM     20  H   UNL     1       1.123   2.867   0.055  0.00  0.00    +0.155 HD
BRANCH  19  21
ATOM     21  C   UNL     1       2.364   1.218   0.092  0.00  0.00    +0.035 A 
ATOM     22  C   UNL     1       2.418  -0.029   0.696  0.00  0.00    +0.038 A 
ATOM     23  C   UNL     1       3.632  -0.713   0.783  0.00  0.00    +0.066 A 
ATOM     24  C   UNL     1       4.793  -0.135   0.272  0.00  0.00    +0.030 A 
ATOM     25  C   UNL     1       4.736   1.121  -0.329  0.00  0.00    +0.066 A 
ATOM     26  C   UNL     1       3.517   1.796  -0.418  0.00  0.00    +0.038 A 
BRANCH  25  27
ATOM     27  C   UNL     1       5.965   1.738  -0.871  0.00  0.00    +0.387 C 
ATOM     28  O   UNL     1       5.914   2.833  -1.395  0.00  0.00    -0.241 OA
ATOM     29  O   UNL     1       7.140   1.086  -0.785  0.00  0.00    -0.241 OA
ENDBRANCH  25  27
BRANCH  23  30
ATOM     30  C   UNL     1       3.688  -2.044   1.422  0.00  0.00    +0.387 C 
ATOM     31  O   UNL     1       2.675  -2.546   1.867  0.00  0.00    -0.241 OA
ATOM     32  O   UNL     1       4.861  -2.700   1.511  0.00  0.00    -0.241 OA
ENDBRANCH  23  30
ENDBRANCH  19  21
ENDBRANCH   1  17
TORSDOF 6
