REMARK  Name = ZINC21981244
REMARK  6 active torsions:
REMARK  status: ('A' for Active; 'I' for Inactive)
REMARK    1  A    between atoms: C_12  and  O_23
REMARK    2  A    between atoms: O_23  and  C_24
REMARK    3  A    between atoms: C_26  and  O_40
REMARK    4  A    between atoms: C_28  and  O_39
REMARK    5  A    between atoms: C_30  and  O_38
REMARK    6  A    between atoms: C_32  and  C_35
REMARK                            x       y       z     vdW  Elec       q    Type
REMARK                         _______ _______ _______ _____ _____    ______ ____
ROOT
ATOM      1  C   UNL     1       1.424  -2.324   2.598  0.00  0.00    +0.020 A 
ATOM      2  C   UNL     1       0.497  -1.629   1.842  0.00  0.00    +0.010 A 
ATOM      3  C   UNL     1       0.948  -0.766   0.848  0.00  0.00    -0.013 A 
ATOM      4  C   UNL     1       2.290  -0.591   0.612  0.00  0.00    -0.038 A 
ATOM      5  C   UNL     1       3.216  -1.291   1.369  0.00  0.00    +0.024 A 
ATOM      6  C   UNL     1       2.777  -2.155   2.358  0.00  0.00    +0.041 A 
ATOM      7 CL   UNL     1       3.935  -3.033   3.308  0.00  0.00    -0.084 Cl
ATOM      8  C   UNL     1       2.752   0.361  -0.447  0.00  0.00    +0.040 C 
ATOM      9  C   UNL     1       2.555   1.806  -0.073  0.00  0.00    +0.042 C 
ATOM     10  C   UNL     1       1.120   2.255   0.004  0.00  0.00    -0.018 A 
ATOM     11  C   UNL     1       0.958   3.645   0.058  0.00  0.00    +0.053 A 
ATOM     12  C   UNL     1      -0.315   4.190   0.090  0.00  0.00    +0.142 A 
ATOM     13  C   UNL     1      -1.412   3.338   0.068  0.00  0.00    +0.157 A 
ATOM     14  N   UNL     1      -1.232   2.040   0.031  0.00  0.00    -0.251 NA
ATOM     15  C   UNL     1      -0.018   1.475   0.010  0.00  0.00    +0.075 A 
ATOM     16  C   UNL     1       0.002  -0.004   0.002  0.00  0.00    +0.007 C 
ATOM     17  C   UNL     1      -0.853  -0.667  -0.787  0.00  0.00    -0.063 C 
ATOM     18  C   UNL     1      -0.863  -2.181  -0.832  0.00  0.00    +0.012 C 
ATOM     19  C   UNL     1      -0.839  -2.622  -2.295  0.00  0.00    -0.078 C 
ATOM     20  N   UNL     1      -1.933  -1.968  -3.022  0.00  0.00    +0.379 N 
ATOM     21  C   UNL     1      -1.748  -0.512  -3.083  0.00  0.00    -0.078 C 
ATOM     22  C   UNL     1      -1.838   0.072  -1.668  0.00  0.00    +0.012 C 
ATOM     23  H   UNL     1      -1.974  -2.356  -4.051  0.00  0.00    -0.086 HD
ATOM     24  H   UNL     1      -2.887  -2.175  -2.514  0.00  0.00    -0.086 HD
ENDROOT
BRANCH  12  25
ATOM     25  O   UNL     1      -0.488   5.537   0.143  0.00  0.00    -0.459 OA
BRANCH  25  26
ATOM     26  C   UNL     1      -1.834   6.017   0.173  0.00  0.00    +0.340 C 
ATOM     27  C   UNL     1      -1.829   7.537   0.357  0.00  0.00    +0.214 C 
ATOM     28  C   UNL     1      -3.272   8.051   0.328  0.00  0.00    +0.180 C 
ATOM     29  C   UNL     1      -3.927   7.627  -0.990  0.00  0.00    +0.186 C 
ATOM     30  C   UNL     1      -3.851   6.103  -1.121  0.00  0.00    +0.266 C 
ATOM     31  O   UNL     1      -2.485   5.689  -1.056  0.00  0.00    -0.322 OA
BRANCH  30  32
ATOM     32  C   UNL     1      -4.441   5.683  -2.443  0.00  0.00    +0.387 C 
ATOM     33  O   UNL     1      -3.739   5.169  -3.281  0.00  0.00    -0.243 OA
ATOM     34  O   UNL     1      -5.746   5.879  -2.688  0.00  0.00    -0.243 OA
ENDBRANCH  30  32
BRANCH  29  35
ATOM     35  O   UNL     1      -5.295   8.040  -0.998  0.00  0.00    -0.386 OA
ATOM     36  H   UNL     1      -5.931   7.821  -1.869  0.00  0.00    +0.210 HD
ENDBRANCH  29  35
BRANCH  28  37
ATOM     37  O   UNL     1      -3.273   9.477   0.425  0.00  0.00    -0.386 OA
ATOM     38  H   UNL     1      -4.226  10.027   0.420  0.00  0.00    +0.210 HD
ENDBRANCH  28  37
BRANCH  27  39
ATOM     39  O   UNL     1      -1.229   7.865   1.611  0.00  0.00    -0.383 OA
ATOM     40  H   UNL     1      -1.137   8.917   1.919  0.00  0.00    +0.210 HD
ENDBRANCH  27  39
ENDBRANCH  25  26
ENDBRANCH  12  25
TORSDOF 6
