REMARK  Name = ZINC11661093
REMARK  7 active torsions:
REMARK  status: ('A' for Active; 'I' for Inactive)
REMARK    1  A    between atoms: C_1  and  O_2
REMARK    2  A    between atoms: O_2  and  C_3
REMARK    3  A    between atoms: C_5  and  C_10
REMARK    4  A    between atoms: C_8  and  O_9
REMARK    5  A    between atoms: C_11  and  C_12
REMARK    6  A    between atoms: N_18  and  C_25
REMARK    7  A    between atoms: C_25  and  C_26
REMARK                            x       y       z     vdW  Elec       q    Type
REMARK                         _______ _______ _______ _____ _____    ______ ____
ROOT
ATOM      1  C   UNL     1       0.002  -0.004   0.002  0.00  0.00    -0.043 C 
ATOM      2  C   UNL     1       1.416  -0.425  -0.446  0.00  0.00    -0.007 C 
ATOM      3  C   UNL     1       2.305   0.741   0.019  0.00  0.00    +0.003 C 
ATOM      4  C   UNL     1       3.358   1.079  -1.050  0.00  0.00    +0.110 C 
ATOM      5  N   UNL     1       2.772   2.131  -1.887  0.00  0.00    -0.298 N 
ATOM      6  C   UNL     1       1.691   2.677  -1.304  0.00  0.00    +0.206 C 
ATOM      7  O   UNL     1       1.060   3.611  -1.754  0.00  0.00    -0.277 OA
ATOM      8  C   UNL     1       1.369   1.966  -0.001  0.00  0.00    +0.018 C 
ATOM      9  C   UNL     1      -0.667   1.965   1.244  0.00  0.00    -0.077 C 
ATOM     10  C   UNL     1       0.121   3.246   1.619  0.00  0.00    -0.019 C 
ATOM     11  C   UNL     1       1.572   2.850   1.232  0.00  0.00    -0.004 C 
ATOM     12  N   UNL     1      -0.009   1.476   0.018  0.00  0.00    +0.394 N 
ATOM     13  H   UNL     1      -0.514   1.824  -0.805  0.00  0.00    -0.079 HD
ENDROOT
BRANCH   1  15
ATOM     14  C   UNL     1      -1.330  -1.313   1.595  0.00  0.00    +0.002 C 
ATOM     15  C   UNL     1      -0.280  -0.531   1.385  0.00  0.00    -0.041 C 
BRANCH  14  18
ATOM     16  C   UNL     1      -2.967  -3.135   4.445  0.00  0.00    +0.162 A 
ATOM     17  C   UNL     1      -2.715  -2.649   3.175  0.00  0.00    +0.057 A 
ATOM     18  C   UNL     1      -1.607  -1.830   2.951  0.00  0.00    -0.022 A 
ATOM     19  C   UNL     1      -0.764  -1.497   4.013  0.00  0.00    +0.012 A 
ATOM     20  C   UNL     1      -1.024  -1.980   5.278  0.00  0.00    +0.050 A 
ATOM     21  C   UNL     1      -2.122  -2.798   5.500  0.00  0.00    +0.158 A 
BRANCH  16  23
ATOM     22  C   UNL     1      -4.865  -4.243   3.538  0.00  0.00    +0.277 C 
ATOM     23  O   UNL     1      -4.042  -3.938   4.665  0.00  0.00    -0.491 OA
ENDBRANCH  16  23
BRANCH  21  24
ATOM     24  O   UNL     1      -2.374  -3.272   6.749  0.00  0.00    -0.503 OA
ATOM     25  H   UNL     1      -2.943  -2.697   7.280  0.00  0.00    +0.292 HD
ENDBRANCH  21  24
ENDBRANCH  14  18
ENDBRANCH   1  15
BRANCH   5  26
ATOM     26  C   UNL     1       3.297   2.534  -3.194  0.00  0.00    +0.142 C 
BRANCH  26  27
ATOM     27  C   UNL     1       2.648   1.707  -4.274  0.00  0.00    -0.029 A 
ATOM     28  C   UNL     1       1.478   2.141  -4.868  0.00  0.00    +0.005 A 
ATOM     29  C   UNL     1       0.882   1.383  -5.858  0.00  0.00    +0.002 A 
ATOM     30  C   UNL     1       1.456   0.190  -6.255  0.00  0.00    +0.020 A 
ATOM     31  C   UNL     1       2.627  -0.245  -5.661  0.00  0.00    +0.041 A 
ATOM     32  C   UNL     1       3.226   0.516  -4.673  0.00  0.00    +0.025 A 
ATOM     33 CL   UNL     1       3.349  -1.744  -6.159  0.00  0.00    -0.084 Cl
ENDBRANCH  26  27
ENDBRANCH   5  26
TORSDOF 6
