REMARK  Name = ZINC01864604
REMARK  7 active torsions:
REMARK  status: ('A' for Active; 'I' for Inactive)
REMARK    1  A    between atoms: C_1  and  O_2
REMARK    2  A    between atoms: O_2  and  C_3
REMARK    3  A    between atoms: C_6  and  N_10
REMARK    4  A    between atoms: C_11  and  C_13
REMARK    5  A    between atoms: C_13  and  S_14
REMARK    6  A    between atoms: S_14  and  C_15
REMARK    7  A    between atoms: N_28  and  C_29
REMARK                            x       y       z     vdW  Elec       q    Type
REMARK                         _______ _______ _______ _____ _____    ______ ____
ROOT
ATOM      1  C   UNL     1       3.329  -6.981   7.077  0.00  0.00    +0.178 A 
ATOM      2  N   UNL     1       3.829  -6.150   7.968  0.00  0.00    -0.215 NA
ATOM      3  C   UNL     1       4.693  -6.574   8.883  0.00  0.00    +0.117 A 
ATOM      4  C   UNL     1       5.114  -7.912   8.951  0.00  0.00    +0.076 A 
ATOM      5  C   UNL     1       6.070  -8.228  10.014  0.00  0.00    -0.023 A 
ATOM      6  C   UNL     1       6.450  -7.214  10.817  0.00  0.00    -0.004 A 
ATOM      7  S   UNL     1       5.571  -5.797  10.216  0.00  0.00    -0.073 S 
ATOM      8  C   UNL     1       7.408  -7.277  11.967  0.00  0.00    +0.043 C 
ATOM      9  C   UNL     1       7.622  -8.751  12.340  0.00  0.00    +0.005 C 
ATOM     10  C   UNL     1       7.898  -9.546  11.060  0.00  0.00    +0.005 C 
ATOM     11  C   UNL     1       6.624  -9.636  10.219  0.00  0.00    +0.037 C 
ATOM     12  C   UNL     1       4.554  -8.793   7.973  0.00  0.00    +0.268 A 
ATOM     13  O   UNL     1       4.861  -9.973   7.955  0.00  0.00    -0.267 OA
ATOM     14  N   UNL     1       3.680  -8.302   7.074  0.00  0.00    -0.255 N 
ENDROOT
BRANCH  14  15
ATOM     15  C   UNL     1       3.124  -9.160   6.116  0.00  0.00    +0.052 A 
ATOM     16  C   UNL     1       2.008  -9.923   6.430  0.00  0.00    +0.027 A 
ATOM     17  C   UNL     1       1.462 -10.768   5.484  0.00  0.00    +0.017 A 
ATOM     18  C   UNL     1       2.027 -10.855   4.224  0.00  0.00    +0.018 A 
ATOM     19  C   UNL     1       3.140 -10.096   3.908  0.00  0.00    +0.017 A 
ATOM     20  C   UNL     1       3.686  -9.244   4.849  0.00  0.00    +0.027 A 
ATOM     21 BR   UNL     1       1.277 -12.013   2.931  0.00  0.00    -0.050 Br
ENDBRANCH  14  15
BRANCH   1  22
ATOM     22  S   UNL     1       2.185  -6.384   5.877  0.00  0.00    -0.078 S 
BRANCH  22  23
ATOM     23  C   UNL     1       2.028  -4.618   6.261  0.00  0.00    +0.173 C 
BRANCH  23  25
ATOM     24  N   UNL     1       0.790  -2.662   5.390  0.00  0.00    -0.285 N 
ATOM     25  C   UNL     1       1.065  -3.978   5.295  0.00  0.00    +0.227 C 
ATOM     26  O   UNL     1       0.536  -4.647   4.432  0.00  0.00    -0.275 OA
ATOM     27  H   UNL     1       1.271  -2.111   6.027  0.00  0.00    +0.155 HD
BRANCH  24  31
ATOM     28  C   UNL     1      -2.129  -0.959   2.946  0.00  0.00    +0.138 A 
ATOM     29  C   UNL     1      -2.222  -2.293   3.311  0.00  0.00    +0.049 A 
ATOM     30  C   UNL     1      -1.256  -2.858   4.120  0.00  0.00    +0.027 A 
ATOM     31  C   UNL     1      -0.190  -2.089   4.568  0.00  0.00    +0.035 A 
ATOM     32  C   UNL     1      -0.096  -0.753   4.202  0.00  0.00    +0.047 A 
ATOM     33  C   UNL     1      -1.061  -0.191   3.389  0.00  0.00    +0.084 A 
ATOM     34 CL   UNL     1      -0.940   1.478   2.926  0.00  0.00    -0.080 Cl
BRANCH  28  36
ATOM     35  C   UNL     1      -4.152  -1.252   1.730  0.00  0.00    +0.277 C 
ATOM     36  O   UNL     1      -3.081  -0.404   2.149  0.00  0.00    -0.494 OA
ENDBRANCH  28  36
ENDBRANCH  24  31
ENDBRANCH  23  25
ENDBRANCH  22  23
ENDBRANCH   1  22
TORSDOF 6
