REMARK  Name = ZINC12494453
REMARK  3 active torsions:
REMARK  status: ('A' for Active; 'I' for Inactive)
REMARK    1  A    between atoms: C_1  and  S_2
REMARK    2  A    between atoms: S_2  and  C_5
REMARK    3  A    between atoms: C_20  and  C_22
REMARK                            x       y       z     vdW  Elec       q    Type
REMARK                         _______ _______ _______ _____ _____    ______ ____
ROOT
ATOM      1  C   UNL     1      -6.303   2.349   4.707  0.00  0.00    +0.114 A 
ATOM      2  C   UNL     1      -7.521   2.818   5.128  0.00  0.00    +0.029 A 
ATOM      3  C   UNL     1      -8.305   3.627   4.320  0.00  0.00    +0.003 A 
ATOM      4  C   UNL     1      -7.848   3.972   3.060  0.00  0.00    +0.017 A 
ATOM      5  C   UNL     1      -6.630   3.508   2.631  0.00  0.00    +0.043 A 
ATOM      6  C   UNL     1      -5.805   2.681   3.427  0.00  0.00    +0.105 A 
ATOM      7  N   UNL     1      -4.638   2.301   2.862  0.00  0.00    -0.223 NA
ATOM      8  C   UNL     1      -4.281   2.681   1.656  0.00  0.00    +0.162 A 
ATOM      9  S   UNL     1      -5.671   3.683   1.145  0.00  0.00    -0.052 S 
ATOM     10  N   UNL     1      -3.130   2.379   0.959  0.00  0.00    -0.307 N 
ATOM     11  C   UNL     1      -2.939   0.925   0.862  0.00  0.00    +0.126 C 
ATOM     12  C   UNL     1      -1.569   0.634   0.239  0.00  0.00    +0.127 C 
ATOM     13  N   UNL     1      -1.465   1.365  -1.032  0.00  0.00    -0.294 N 
ATOM     14  C   UNL     1      -1.774   2.803  -1.036  0.00  0.00    +0.127 C 
ATOM     15  C   UNL     1      -3.137   3.010  -0.368  0.00  0.00    +0.126 C 
ATOM     16  C   UNL     1      -1.095   0.734  -2.164  0.00  0.00    +0.254 C 
ATOM     17  O   UNL     1      -1.105   1.330  -3.224  0.00  0.00    -0.270 OA
ENDROOT
BRANCH  16  18
ATOM     18  C   UNL     1      -0.678  -0.678  -2.118  0.00  0.00    +0.122 A 
ATOM     19  C   UNL     1      -0.001  -1.177  -1.018  0.00  0.00    +0.031 A 
ATOM     20  C   UNL     1       0.382  -2.542  -1.016  0.00  0.00    +0.018 A 
ATOM     21  C   UNL     1       1.069  -3.080   0.083  0.00  0.00    +0.011 A 
ATOM     22  C   UNL     1       1.435  -4.395   0.078  0.00  0.00    +0.001 A 
ATOM     23  C   UNL     1       1.131  -5.206  -1.007  0.00  0.00    +0.004 A 
ATOM     24  C   UNL     1       0.457  -4.699  -2.097  0.00  0.00    +0.047 A 
ATOM     25  C   UNL     1       0.073  -3.362  -2.116  0.00  0.00    +0.139 A 
ATOM     26  O   UNL     1      -0.587  -2.867  -3.185  0.00  0.00    -0.422 OA
ATOM     27  C   UNL     1      -0.977  -1.582  -3.234  0.00  0.00    +0.350 A 
ATOM     28  O   UNL     1      -1.575  -1.166  -4.208  0.00  0.00    -0.244 OA
ENDBRANCH  16  18
BRANCH   1  30
ATOM     29  C   UNL     1      -5.271  -0.281   4.934  0.00  0.00    +0.200 C 
ATOM     30  S   UNL     1      -5.348   1.324   5.775  0.00  0.00    -0.004 S 
ATOM     31  O   UNL     1      -4.061   1.926   5.800  0.00  0.00    -0.170 OA
ATOM     32  O   UNL     1      -6.120   1.218   6.963  0.00  0.00    -0.170 OA
ENDBRANCH   1  30
TORSDOF 2
