REMARK  Name = ZINC06995521
REMARK  3 active torsions:
REMARK  status: ('A' for Active; 'I' for Inactive)
REMARK    1  A    between atoms: C_1  and  C_2
REMARK    2  A    between atoms: C_17  and  O_34
REMARK    3  A    between atoms: C_19  and  C_33
REMARK                            x       y       z     vdW  Elec       q    Type
REMARK                         _______ _______ _______ _____ _____    ______ ____
ROOT
ATOM      1  C   UNL     1      -0.019   1.256   0.231  0.00  0.00    +0.016 C 
ATOM      2  C   UNL     1       0.028  -0.268   0.123  0.00  0.00    -0.003 C 
ATOM      3  C   UNL     1      -1.408  -0.808   0.169  0.00  0.00    +0.019 C 
ATOM      4  C   UNL     1      -2.065  -0.429   1.496  0.00  0.00    +0.080 C 
ATOM      5  C   UNL     1      -1.208  -0.899   2.640  0.00  0.00    +0.156 C 
ATOM      6  O   UNL     1      -1.720  -1.102   3.723  0.00  0.00    -0.293 OA
ATOM      7  C   UNL     1       0.175  -1.090   2.479  0.00  0.00    +0.050 C 
ATOM      8  C   UNL     1       0.788  -0.811   1.310  0.00  0.00    -0.035 C 
ATOM      9  C   UNL     1       2.228  -1.036   1.131  0.00  0.00    -0.050 C 
ATOM     10  C   UNL     1       3.145  -0.495   1.931  0.00  0.00    +0.012 C 
ATOM     11  C   UNL     1       2.614  -1.937  -0.022  0.00  0.00    +0.039 C 
ATOM     12  C   UNL     1       1.490  -1.984  -1.048  0.00  0.00    +0.001 C 
ATOM     13  C   UNL     1       0.693  -0.700  -1.173  0.00  0.00    +0.005 C 
ATOM     14  C   UNL     1       1.542   0.364  -1.852  0.00  0.00    +0.036 C 
ATOM     15  C   UNL     1       1.852  -0.110  -3.279  0.00  0.00    +0.124 C 
ATOM     16  C   UNL     1       2.660  -1.408  -3.279  0.00  0.00    +0.031 C 
ATOM     17  C   UNL     1       2.006  -2.471  -2.387  0.00  0.00    +0.004 C 
ATOM     18  C   UNL     1       0.860  -3.078  -3.221  0.00  0.00    +0.007 C 
ATOM     19  C   UNL     1       1.188  -2.760  -4.694  0.00  0.00    +0.041 C 
ATOM     20  C   UNL     1       2.543  -2.047  -4.681  0.00  0.00    +0.136 C 
ATOM     21  C   UNL     1       3.678  -2.993  -5.012  0.00  0.00    +0.228 C 
ATOM     22  C   UNL     1       3.216  -4.275  -5.734  0.00  0.00    +0.230 C 
ATOM     23  O   UNL     1       4.421  -5.083  -5.661  0.00  0.00    -0.349 OA
ATOM     24  C   UNL     1       5.119  -4.652  -4.479  0.00  0.00    +0.326 C 
ATOM     25  O   UNL     1       4.383  -3.550  -3.901  0.00  0.00    -0.318 OA
ATOM     26  O   UNL     1       4.542  -2.231  -5.875  0.00  0.00    -0.318 OA
ATOM     27  C   UNL     1       3.595  -1.444  -6.638  0.00  0.00    +0.327 C 
ATOM     28  O   UNL     1       2.601  -1.016  -5.681  0.00  0.00    -0.341 OA
ATOM     29  C   UNL     1       4.110  -1.092  -2.894  0.00  0.00    +0.017 C 
ENDROOT
BRANCH  15  30
ATOM     30  O   UNL     1       0.627  -0.263  -3.986  0.00  0.00    -0.391 OA
ATOM     31  H   UNL     1       0.108   0.550  -4.055  0.00  0.00    +0.210 HD
ENDBRANCH  15  30
TORSDOF 1
