REMARK  Name = ZINC37985855
REMARK  3 active torsions:
REMARK  status: ('A' for Active; 'I' for Inactive)
REMARK    1  A    between atoms: C_3  and  N_9
REMARK    2  A    between atoms: N_9  and  S_10
REMARK    3  A    between atoms: S_10  and  C_13
REMARK                            x       y       z     vdW  Elec       q    Type
REMARK                         _______ _______ _______ _____ _____    ______ ____
ROOT
ATOM      1  N   UNL     1       3.583   2.128  -0.021  0.00  0.00    -0.094 NA
ENDROOT
BRANCH   1   4
ATOM      2  C   UNL     1      -0.017   1.379   0.010  0.00  0.00    +0.022 A 
ATOM      3  C   UNL     1       1.169   2.088   0.002  0.00  0.00    +0.031 A 
ATOM      4  C   UNL     1       2.381   1.412  -0.013  0.00  0.00    +0.109 A 
ATOM      5  C   UNL     1       2.398   0.021  -0.021  0.00  0.00    +0.149 A 
ATOM      6  C   UNL     1       1.208  -0.683  -0.013  0.00  0.00    +0.060 A 
ATOM      7  C   UNL     1       0.002  -0.004   0.002  0.00  0.00    +0.044 A 
ATOM      8 CL   UNL     1      -1.490  -0.891   0.011  0.00  0.00    -0.083 Cl
ATOM      9  F   UNL     1       3.576  -0.641  -0.036  0.00  0.00    -0.203 F 
ENDBRANCH   1   4
BRANCH   1  10
ATOM     10  S   UNL     1       5.028   1.319  -0.039  0.00  0.00    +0.099 S 
ATOM     11  O   UNL     1       5.126   0.634   1.202  0.00  0.00    -0.148 OA
ATOM     12  O   UNL     1       5.102   0.647  -1.289  0.00  0.00    -0.148 OA
BRANCH  10  13
ATOM     13  C   UNL     1       6.305   2.534  -0.046  0.00  0.00    +0.168 A 
ATOM     14  C   UNL     1       6.947   3.122   0.996  0.00  0.00    +0.149 A 
ATOM     15  N   UNL     1       7.875   4.011   0.701  0.00  0.00    -0.234 NA
ATOM     16  C   UNL     1       8.162   4.309  -0.543  0.00  0.00    +0.169 A 
ATOM     17  S   UNL     1       7.118   3.326  -1.424  0.00  0.00    -0.036 S 
ATOM     18 CL   UNL     1       9.338   5.440  -1.137  0.00  0.00    -0.054 Cl
ENDBRANCH  10  13
ENDBRANCH   1  10
TORSDOF 3
