REMARK  Name = ZINC08997142
REMARK  3 active torsions:
REMARK  status: ('A' for Active; 'I' for Inactive)
REMARK    1  A    between atoms: C_6  and  N_7
REMARK    2  A    between atoms: N_19  and  C_20
REMARK    3  A    between atoms: C_20  and  C_22
REMARK                            x       y       z     vdW  Elec       q    Type
REMARK                         _______ _______ _______ _____ _____    ______ ____
ROOT
ATOM      1  N   UNL     1      -1.200  -0.721   0.010  0.00  0.00    -0.276 N 
ATOM      2  C   UNL     1      -1.196  -2.157  -0.100  0.00  0.00    +0.116 C 
ATOM      3  C   UNL     1      -0.254  -2.852   0.887  0.00  0.00    +0.190 C 
ATOM      4  S   UNL     1      -1.412  -3.482   2.167  0.00  0.00    -0.028 S 
ATOM      5  O   UNL     1      -1.136  -4.856   2.401  0.00  0.00    -0.174 OA
ATOM      6  O   UNL     1      -1.424  -2.576   3.261  0.00  0.00    -0.174 OA
ATOM      7  C   UNL     1      -3.001  -3.341   1.260  0.00  0.00    +0.182 C 
ATOM      8  C   UNL     1      -2.595  -2.794  -0.110  0.00  0.00    +0.097 C 
ATOM      9  S   UNL     1      -3.609  -1.275  -0.391  0.00  0.00    -0.086 S 
ATOM     10  C   UNL     1      -2.399  -0.069   0.129  0.00  0.00    +0.154 C 
ATOM     11  N   UNL     1      -2.615   1.172   0.549  0.00  0.00    -0.157 NA
ENDROOT
BRANCH   1  17
ATOM     12  C   UNL     1       1.201  -0.659  -0.246  0.00  0.00    +0.026 A 
ATOM     13  C   UNL     1       2.386   0.050  -0.254  0.00  0.00    +0.041 A 
ATOM     14  C   UNL     1       2.380   1.413  -0.015  0.00  0.00    +0.142 A 
ATOM     15  C   UNL     1       1.185   2.070   0.233  0.00  0.00    +0.078 A 
ATOM     16  C   UNL     1      -0.003   1.364   0.242  0.00  0.00    +0.046 A 
ATOM     17  C   UNL     1       0.002  -0.004   0.002  0.00  0.00    +0.037 A 
ATOM     18 CL   UNL     1       1.180   3.780   0.532  0.00  0.00    -0.081 Cl
ATOM     19  F   UNL     1       3.541   2.105  -0.024  0.00  0.00    -0.204 F 
ENDBRANCH   1  17
BRANCH  11  20
ATOM     20  C   UNL     1      -3.855   1.650   0.603  0.00  0.00    +0.267 C 
ATOM     21  O   UNL     1      -4.791   0.951   0.266  0.00  0.00    -0.271 OA
BRANCH  20  22
ATOM     22  C   UNL     1      -4.100   3.058   1.080  0.00  0.00    +0.206 C 
ATOM     23  C   UNL     1      -3.702   3.184   2.566  0.00  0.00    +0.043 C 
ATOM     24  C   UNL     1      -4.820   4.104   3.130  0.00  0.00    +0.031 C 
ATOM     25  C   UNL     1      -6.032   3.648   2.279  0.00  0.00    +0.161 C 
ATOM     26  O   UNL     1      -5.494   3.372   0.975  0.00  0.00    -0.367 OA
ENDBRANCH  20  22
ENDBRANCH  11  20
TORSDOF 3
