REMARK  Name = ZINC02798895
REMARK  5 active torsions:
REMARK  status: ('A' for Active; 'I' for Inactive)
REMARK    1  A    between atoms: C_1  and  C_2
REMARK    2  A    between atoms: C_6  and  C_18
REMARK    3  A    between atoms: C_13  and  C_14
REMARK    4  A    between atoms: C_14  and  O_16
REMARK    5  A    between atoms: O_16  and  C_17
REMARK                            x       y       z     vdW  Elec       q    Type
REMARK                         _______ _______ _______ _____ _____    ______ ____
ROOT
ATOM      1  C   UNL     1      -3.729  -2.306   0.025  0.00  0.00    +0.046 C 
ATOM      2  C   UNL     1      -2.347  -2.907   0.009  0.00  0.00    -0.017 A 
ATOM      3  C   UNL     1      -2.188  -4.293  -0.000  0.00  0.00    +0.056 A 
ATOM      4  C   UNL     1      -3.217  -5.357   0.004  0.00  0.00    +0.168 A 
ATOM      5  N   UNL     1      -4.532  -5.337   0.016  0.00  0.00    -0.206 NA
ATOM      6  C   UNL     1      -4.997  -6.593   0.013  0.00  0.00    +0.189 A 
ATOM      7  N   UNL     1      -3.979  -7.434   0.001  0.00  0.00    -0.143 NA
ATOM      8  N   UNL     1      -2.809  -6.661  -0.007  0.00  0.00    -0.201 N 
ATOM      9  C   UNL     1      -1.486  -6.975  -0.022  0.00  0.00    +0.226 A 
ATOM     10  N   UNL     1      -0.562  -6.053  -0.025  0.00  0.00    -0.228 NA
ATOM     11  C   UNL     1      -0.854  -4.760  -0.015  0.00  0.00    +0.114 A 
ATOM     12  S   UNL     1       0.101  -3.264  -0.024  0.00  0.00    -0.062 S 
ATOM     13  C   UNL     1      -1.248  -2.096   0.003  0.00  0.00    +0.102 A 
ENDROOT
BRANCH   6  14
ATOM     14  C   UNL     1      -6.424  -6.978   0.024  0.00  0.00    +0.060 A 
ATOM     15  C   UNL     1      -6.981  -8.229   0.016  0.00  0.00    +0.035 A 
ATOM     16  C   UNL     1      -8.353  -8.343   0.034  0.00  0.00    +0.040 A 
ATOM     17  C   UNL     1      -9.111  -7.215   0.047  0.00  0.00    +0.069 A 
ATOM     18  S   UNL     1      -7.870  -5.931   0.042  0.00  0.00    -0.077 S 
ATOM     19 BR   UNL     1     -10.995  -7.047   0.065  0.00  0.00    -0.041 Br
ATOM     20 BR   UNL     1      -9.173 -10.048   0.031  0.00  0.00    -0.049 Br
ENDBRANCH   6  14
BRANCH  13  21
ATOM     21  C   UNL     1      -1.191  -0.633   0.010  0.00  0.00    +0.346 C 
ATOM     22  O   UNL     1      -2.220   0.016   0.023  0.00  0.00    -0.244 OA
BRANCH  21  23
ATOM     23  O   UNL     1       0.002  -0.004   0.002  0.00  0.00    -0.464 OA
ATOM     24  C   UNL     1      -0.018   1.448   0.010  0.00  0.00    +0.280 C 
ENDBRANCH  21  23
ENDBRANCH  13  21
TORSDOF 3
