REMARK  Name = ZINC15582759
REMARK  4 active torsions:
REMARK  status: ('A' for Active; 'I' for Inactive)
REMARK    1  A    between atoms: C_6  and  S_7
REMARK    2  A    between atoms: S_7  and  N_10
REMARK    3  A    between atoms: C_13  and  C_16
REMARK    4  A    between atoms: N_18  and  C_19
REMARK                            x       y       z     vdW  Elec       q    Type
REMARK                         _______ _______ _______ _____ _____    ______ ____
ROOT
ATOM      1  N   UNL     1       4.378  -1.069  -1.653  0.00  0.00    -0.177 NA
ATOM      2  C   UNL     1       3.940  -2.277  -2.364  0.00  0.00    +0.110 C 
ATOM      3  C   UNL     1       3.199  -1.852  -3.640  0.00  0.00    +0.030 C 
ATOM      4  C   UNL     1       4.102  -0.931  -4.464  0.00  0.00    +0.078 C 
ATOM      5  C   UNL     1       4.426   0.327  -3.654  0.00  0.00    +0.030 C 
ATOM      6  C   UNL     1       5.177  -0.072  -2.379  0.00  0.00    +0.110 C 
ENDROOT
BRANCH   4   7
ATOM      7  C   UNL     1       3.394  -0.540  -5.736  0.00  0.00    +0.220 C 
ATOM      8  O   UNL     1       3.171   0.629  -5.971  0.00  0.00    -0.275 OA
ATOM      9  N   UNL     1       3.009  -1.489  -6.612  0.00  0.00    -0.283 N 
ATOM     10  H   UNL     1       3.244  -2.417  -6.456  0.00  0.00    +0.155 HD
BRANCH   9  11
ATOM     11  C   UNL     1       2.269  -1.135  -7.747  0.00  0.00    +0.069 A 
ATOM     12  C   UNL     1       2.506   0.076  -8.382  0.00  0.00    +0.027 A 
ATOM     13  C   UNL     1       1.778   0.421  -9.504  0.00  0.00    +0.017 A 
ATOM     14  C   UNL     1       0.807  -0.435  -9.991  0.00  0.00    +0.021 A 
ATOM     15  C   UNL     1       0.564  -1.642  -9.359  0.00  0.00    +0.055 A 
ATOM     16  C   UNL     1       1.292  -1.995  -8.238  0.00  0.00    +0.146 A 
ATOM     17  F   UNL     1       1.055  -3.173  -7.620  0.00  0.00    -0.204 F 
ATOM     18 BR   UNL     1      -0.192   0.045 -11.524  0.00  0.00    -0.050 Br
ENDBRANCH   9  11
ENDBRANCH   4   7
BRANCH   1  19
ATOM     19  S   UNL     1       3.985  -0.837  -0.060  0.00  0.00    +0.061 S 
ATOM     20  O   UNL     1       4.962   0.045   0.475  0.00  0.00    -0.153 OA
ATOM     21  O   UNL     1       3.739  -2.125   0.488  0.00  0.00    -0.153 OA
BRANCH  19  27
ATOM     22  C   UNL     1       1.262  -0.677  -0.002  0.00  0.00    +0.032 A 
ATOM     23  C   UNL     1       0.056  -0.002   0.026  0.00  0.00    +0.051 A 
ATOM     24  C   UNL     1       0.036   1.385   0.033  0.00  0.00    +0.162 A 
ATOM     25  C   UNL     1       1.232   2.094   0.014  0.00  0.00    +0.164 A 
ATOM     26  C   UNL     1       2.438   1.410  -0.015  0.00  0.00    +0.078 A 
ATOM     27  C   UNL     1       2.451   0.028  -0.023  0.00  0.00    +0.109 A 
ATOM     28  O   UNL     1       1.235   3.454   0.029  0.00  0.00    -0.485 OA
ATOM     29  C   UNL     1       0.008   4.105  -0.320  0.00  0.00    +0.270 C 
ATOM     30  C   UNL     1      -1.134   3.414   0.439  0.00  0.00    +0.270 C 
ATOM     31  O   UNL     1      -1.159   2.036   0.051  0.00  0.00    -0.485 OA
ENDBRANCH  19  27
ENDBRANCH   1  19
TORSDOF 4
