REMARK  Name = ZINC63856193
REMARK  9 active torsions:
REMARK  status: ('A' for Active; 'I' for Inactive)
REMARK    1  A    between atoms: C_1  and  O_2
REMARK    2  A    between atoms: O_2  and  C_3
REMARK    3  A    between atoms: C_3  and  C_4
REMARK    4  A    between atoms: C_7  and  C_10
REMARK    5  A    between atoms: C_10  and  N_11
REMARK    6  A    between atoms: N_11  and  C_12
REMARK    7  A    between atoms: C_12  and  C_13
REMARK    8  A    between atoms: C_16  and  S_18
REMARK    9  A    between atoms: S_18  and  C_19
REMARK                            x       y       z     vdW  Elec       q    Type
REMARK                         _______ _______ _______ _____ _____    ______ ____
ROOT
ATOM      1  N   UNL     1       4.507  -3.591  -2.742  0.00  0.00    +0.387 N 
ATOM      2  H   UNL     1       4.471  -2.633  -3.054  0.00  0.00    -0.085 HD
ATOM      3  H   UNL     1       4.881  -3.626  -1.805  0.00  0.00    -0.085 HD
ENDROOT
BRANCH   1   4
ATOM      4  C   UNL     1       3.153  -4.161  -2.750  0.00  0.00    -0.030 C 
BRANCH   4   7
ATOM      5  C   UNL     1       0.631  -2.024  -0.988  0.00  0.00    +0.122 C 
ATOM      6  C   UNL     1       1.232  -2.655  -2.226  0.00  0.00    +0.013 C 
ATOM      7  C   UNL     1       2.268  -3.365  -1.827  0.00  0.00    -0.001 C 
ATOM      8  N   UNL     1       2.442  -3.291  -0.459  0.00  0.00    -0.286 N 
ATOM      9  N   UNL     1       1.487  -2.498   0.118  0.00  0.00    -0.234 NA
ATOM     10  H   UNL     1       3.147  -3.744   0.030  0.00  0.00    +0.166 HD
ATOM     11  H   UNL     1       0.948  -3.014   0.797  0.00  0.00    +0.145 HD
BRANCH   5  12
ATOM     12  C   UNL     1       0.681  -0.498  -1.087  0.00  0.00    +0.184 C 
BRANCH  12  14
ATOM     13  C   UNL     1       0.034   1.503   0.062  0.00  0.00    +0.194 C 
ATOM     14  O   UNL     1       0.042   0.074   0.056  0.00  0.00    -0.381 OA
ENDBRANCH  12  14
ENDBRANCH   5  12
ENDBRANCH   4   7
ENDBRANCH   1   4
BRANCH   1  15
ATOM     15  C   UNL     1       5.371  -4.367  -3.642  0.00  0.00    -0.006 C 
BRANCH  15  16
ATOM     16  C   UNL     1       6.760  -3.783  -3.633  0.00  0.00    +0.090 A 
ATOM     17  C   UNL     1       7.756  -4.140  -2.805  0.00  0.00    +0.044 A 
ATOM     18  C   UNL     1       8.876  -3.345  -3.140  0.00  0.00    +0.057 A 
ATOM     19  C   UNL     1       8.494  -2.543  -4.163  0.00  0.00    +0.166 A 
ATOM     20  O   UNL     1       7.212  -2.819  -4.458  0.00  0.00    -0.455 OA
BRANCH  19  21
ATOM     21  S   UNL     1       9.505  -1.347  -4.971  0.00  0.00    -0.052 S 
BRANCH  21  22
ATOM     22  C   UNL     1       8.497  -0.759  -6.290  0.00  0.00    +0.016 A 
ATOM     23  C   UNL     1       7.735   0.392  -6.125  0.00  0.00    +0.016 A 
ATOM     24  C   UNL     1       6.946   0.850  -7.161  0.00  0.00    +0.021 A 
ATOM     25  C   UNL     1       6.913   0.165  -8.364  0.00  0.00    +0.041 A 
ATOM     26  C   UNL     1       7.671  -0.981  -8.531  0.00  0.00    +0.021 A 
ATOM     27  C   UNL     1       8.467  -1.441  -7.501  0.00  0.00    +0.016 A 
ATOM     28 CL   UNL     1       5.919   0.745  -9.664  0.00  0.00    -0.084 Cl
ENDBRANCH  21  22
ENDBRANCH  19  21
ENDBRANCH  15  16
ENDBRANCH   1  15
TORSDOF 8
