REMARK  Name = ZINC63137833
REMARK  6 active torsions:
REMARK  status: ('A' for Active; 'I' for Inactive)
REMARK    1  A    between atoms: C_1  and  O_2
REMARK    2  A    between atoms: O_2  and  C_3
REMARK    3  A    between atoms: C_6  and  O_39
REMARK    4  A    between atoms: C_7  and  C_9
REMARK    5  A    between atoms: N_28  and  C_31
REMARK    6  A    between atoms: O_39  and  C_40
REMARK                            x       y       z     vdW  Elec       q    Type
REMARK                         _______ _______ _______ _____ _____    ______ ____
ROOT
ATOM      1  C   UNL     1       1.387  -4.132   2.207  0.00  0.00    +0.137 C 
ATOM      2  C   UNL     1       2.725  -4.593   1.632  0.00  0.00    +0.131 C 
ATOM      3  C   UNL     1       2.580  -6.093   1.387  0.00  0.00    -0.034 C 
ATOM      4  C   UNL     1       3.491  -6.694   2.139  0.00  0.00    -0.001 A 
ATOM      5  C   UNL     1       3.845  -8.114   2.303  0.00  0.00    +0.010 A 
ATOM      6  C   UNL     1       4.848  -8.384   3.179  0.00  0.00    +0.001 A 
ATOM      7  C   UNL     1       5.526  -7.397   3.901  0.00  0.00    +0.002 A 
ATOM      8  C   UNL     1       5.268  -6.068   3.812  0.00  0.00    +0.026 A 
ATOM      9  C   UNL     1       4.234  -5.659   2.920  0.00  0.00    +0.043 A 
ATOM     10  N   UNL     1       3.792  -4.451   2.633  0.00  0.00    -0.375 N 
ATOM     11  C   UNL     1       1.528  -6.632   0.457  0.00  0.00    +0.065 C 
ATOM     12  C   UNL     1       0.239  -5.876   0.649  0.00  0.00    +0.167 C 
ATOM     13  N   UNL     1       0.260  -4.684   1.469  0.00  0.00    -0.279 N 
ATOM     14  C   UNL     1      -0.945  -4.035   1.594  0.00  0.00    +0.234 C 
ATOM     15  O   UNL     1      -1.043  -2.989   2.200  0.00  0.00    -0.274 OA
ATOM     16  C   UNL     1      -2.144  -4.687   0.939  0.00  0.00    +0.204 C 
ATOM     17  N   UNL     1      -2.107  -6.132   1.231  0.00  0.00    -0.288 N 
ATOM     18  C   UNL     1      -0.907  -6.761   1.070  0.00  0.00    +0.237 C 
ATOM     19  O   UNL     1      -0.771  -7.952   1.250  0.00  0.00    -0.274 OA
ATOM     20  H   UNL     1       4.104  -3.614   3.010  0.00  0.00    +0.160 HD
ENDROOT
BRANCH  17  21
ATOM     21  C   UNL     1      -3.300  -6.858   1.674  0.00  0.00    +0.077 C 
ATOM     22  C   UNL     1      -4.390  -6.748   0.606  0.00  0.00    +0.022 C 
ATOM     23  C   UNL     1      -5.466  -7.804   0.864  0.00  0.00    +0.002 C 
ATOM     24  C   UNL     1      -4.800  -9.139   1.204  0.00  0.00    +0.000 C 
ATOM     25  C   UNL     1      -5.092  -9.499   2.662  0.00  0.00    +0.000 C 
ATOM     26  C   UNL     1      -4.217  -8.644   3.582  0.00  0.00    +0.000 C 
ATOM     27  C   UNL     1      -4.784  -7.225   3.650  0.00  0.00    +0.002 C 
ATOM     28  C   UNL     1      -3.808  -6.253   2.984  0.00  0.00    +0.022 C 
ENDBRANCH  17  21
BRANCH   1  33
ATOM     29  C   UNL     1       1.414  -0.501   3.254  0.00  0.00    +0.121 A 
ATOM     30  C   UNL     1       1.199   0.139   2.042  0.00  0.00    +0.049 A 
ATOM     31  C   UNL     1       1.044  -0.603   0.887  0.00  0.00    +0.049 A 
ATOM     32  C   UNL     1       1.105  -1.988   0.939  0.00  0.00    +0.125 A 
ATOM     33  C   UNL     1       1.321  -2.628   2.151  0.00  0.00    +0.020 A 
ATOM     34  C   UNL     1       1.481  -1.885   3.305  0.00  0.00    +0.054 A 
BRANCH  29  36
ATOM     35  C   UNL     1       1.486   1.650   4.264  0.00  0.00    +0.277 C 
ATOM     36  O   UNL     1       1.566   0.229   4.391  0.00  0.00    -0.495 OA
ENDBRANCH  29  36
BRANCH  32  37
ATOM     37  O   UNL     1       0.953  -2.719  -0.197  0.00  0.00    -0.495 OA
ATOM     38  C   UNL     1       0.733  -1.994  -1.409  0.00  0.00    +0.277 C 
ENDBRANCH  32  37
ENDBRANCH   1  33
TORSDOF 4
