REMARK  Name = ZINC26883538
REMARK  11 active torsions:
REMARK  status: ('A' for Active; 'I' for Inactive)
REMARK    1  A    between atoms: C_1  and  C_2
REMARK    2  A    between atoms: C_2  and  C_3
REMARK    3  A    between atoms: C_2  and  C_4
REMARK    4  A    between atoms: C_2  and  N_5
REMARK    5  A    between atoms: C_6  and  C_8
REMARK    6  A    between atoms: C_8  and  N_9
REMARK    7  A    between atoms: N_9  and  C_10
REMARK    8  A    between atoms: N_9  and  C_11
REMARK    9  A    between atoms: C_11  and  C_12
REMARK   10  A    between atoms: N_14  and  C_15
REMARK   11  A    between atoms: C_16  and  C_22
REMARK                            x       y       z     vdW  Elec       q    Type
REMARK                         _______ _______ _______ _____ _____    ______ ____
ROOT
ATOM      1  C   UNL     1       6.717  -1.079  -4.205  0.00  0.00    +0.201 C 
ATOM      2  O   UNL     1       7.674  -1.478  -3.577  0.00  0.00    -0.278 OA
ATOM      3  N   UNL     1       6.860  -0.064  -5.080  0.00  0.00    -0.285 N 
ATOM      4  H   UNL     1       6.112   0.207  -5.636  0.00  0.00    +0.155 HD
ENDROOT
BRANCH   3   5
ATOM      5  C   UNL     1       8.088   0.599  -5.188  0.00  0.00    +0.064 A 
ATOM      6  C   UNL     1       8.987   0.242  -6.184  0.00  0.00    +0.077 A 
ATOM      7  C   UNL     1      10.197   0.899  -6.288  0.00  0.00    +0.014 A 
ATOM      8  C   UNL     1      10.516   1.911  -5.401  0.00  0.00    +0.002 A 
ATOM      9  C   UNL     1       9.624   2.269  -4.407  0.00  0.00    +0.022 A 
ATOM     10  C   UNL     1       8.408   1.620  -4.301  0.00  0.00    +0.063 A 
ATOM     11 CL   UNL     1       7.285   2.075  -3.058  0.00  0.00    -0.082 Cl
BRANCH   6  12
ATOM     12  C   UNL     1       8.642  -0.861  -7.151  0.00  0.00    +0.419 C 
ATOM     13  F   UNL     1       9.695  -1.036  -8.055  0.00  0.00    -0.166 F 
ATOM     14  F   UNL     1       8.430  -2.050  -6.446  0.00  0.00    -0.166 F 
ATOM     15  F   UNL     1       7.479  -0.520  -7.851  0.00  0.00    -0.166 F 
ENDBRANCH   6  12
ENDBRANCH   3   5
BRANCH   1  16
ATOM     16  C   UNL     1       5.367  -1.718  -4.008  0.00  0.00    +0.019 C 
BRANCH  16  17
ATOM     17  N   UNL     1       5.474  -2.791  -3.010  0.00  0.00    +0.389 N 
ATOM     18  C   UNL     1       6.338  -3.859  -3.531  0.00  0.00    -0.095 C 
ATOM     19  H   UNL     1       5.872  -2.421  -2.160  0.00  0.00    -0.081 HD
BRANCH  17  20
ATOM     20  C   UNL     1       4.138  -3.334  -2.729  0.00  0.00    +0.019 C 
BRANCH  20  22
ATOM     21  N   UNL     1       3.122  -4.982  -1.189  0.00  0.00    -0.312 N 
ATOM     22  C   UNL     1       4.232  -4.349  -1.619  0.00  0.00    +0.197 C 
ATOM     23  O   UNL     1       5.305  -4.595  -1.111  0.00  0.00    -0.278 OA
ATOM     24  H   UNL     1       2.264  -4.785  -1.596  0.00  0.00    +0.149 HD
BRANCH  21  26
ATOM     25  C   UNL     1       3.765  -5.296   1.149  0.00  0.00    +0.031 C 
ATOM     26  C   UNL     1       3.213  -5.968  -0.110  0.00  0.00    +0.026 C 
ATOM     27  C   UNL     1       4.147  -7.104  -0.533  0.00  0.00    +0.031 C 
ATOM     28  C   UNL     1       1.822  -6.534   0.183  0.00  0.00    +0.031 C 
ENDBRANCH  21  26
ENDBRANCH  20  22
ENDBRANCH  17  20
ENDBRANCH  16  17
ENDBRANCH   1  16
TORSDOF 7
