REMARK  Name = ZINC39012307
REMARK  8 active torsions:
REMARK  status: ('A' for Active; 'I' for Inactive)
REMARK    1  A    between atoms: C_1  and  C_2
REMARK    2  A    between atoms: C_7  and  N_8
REMARK    3  A    between atoms: C_9  and  C_11
REMARK    4  A    between atoms: C_11  and  S_12
REMARK    5  A    between atoms: S_12  and  C_13
REMARK    6  A    between atoms: C_17  and  C_21
REMARK    7  A    between atoms: N_19  and  N_20
REMARK    8  A    between atoms: C_24  and  C_27
REMARK                            x       y       z     vdW  Elec       q    Type
REMARK                         _______ _______ _______ _____ _____    ______ ____
ROOT
ATOM      1  C   UNL     1      -0.389  -0.086   7.729  0.00  0.00    +0.214 C 
ATOM      2  N   UNL     1       0.774   0.827   7.808  0.00  0.00    -0.228 NA
ATOM      3  N   UNL     1       0.301   2.079   7.198  0.00  0.00    -0.234 NA
ATOM      4  C   UNL     1      -1.107   2.170   7.667  0.00  0.00    +0.185 C 
ATOM      5  N   UNL     1      -1.591   0.770   7.641  0.00  0.00    -0.197 NA
ATOM      6  H   UNL     1       1.562   0.453   7.302  0.00  0.00    +0.143 HD
ATOM      7  H   UNL     1       0.842   2.867   7.523  0.00  0.00    +0.143 HD
ENDROOT
BRANCH   4   8
ATOM      8  C   UNL     1      -1.931   3.043   6.718  0.00  0.00    +0.187 C 
ATOM      9  C   UNL     1      -1.342   4.439   6.625  0.00  0.00    +0.034 C 
ATOM     10  C   UNL     1      -2.324   5.236   7.088  0.00  0.00    +0.091 C 
ATOM     11  N   UNL     1      -3.408   4.496   7.440  0.00  0.00    -0.154 NA
ATOM     12  N   UNL     1      -3.277   3.279   7.266  0.00  0.00    -0.176 NA
BRANCH  10  13
ATOM     13  C   UNL     1      -2.235   6.712   7.199  0.00  0.00    +0.002 A 
ATOM     14  C   UNL     1      -1.074   7.374   6.804  0.00  0.00    +0.013 A 
ATOM     15  C   UNL     1      -0.995   8.747   6.909  0.00  0.00    +0.039 A 
ATOM     16  C   UNL     1      -2.068   9.469   7.407  0.00  0.00    +0.123 A 
ATOM     17  C   UNL     1      -3.224   8.815   7.801  0.00  0.00    +0.039 A 
ATOM     18  C   UNL     1      -3.314   7.442   7.694  0.00  0.00    +0.013 A 
ATOM     19  F   UNL     1      -1.987  10.813   7.508  0.00  0.00    -0.205 F 
ENDBRANCH  10  13
ENDBRANCH   4   8
BRANCH   5  20
ATOM     20  N   UNL     1      -2.498   0.510   8.747  0.00  0.00    -0.264 NA
ATOM     21  H   UNL     1      -2.800  -0.453   8.749  0.00  0.00    +0.137 HD
ATOM     22  H   UNL     1      -2.073   0.758   9.628  0.00  0.00    +0.137 HD
ENDBRANCH   5  20
BRANCH   1  23
ATOM     23  S   UNL     1      -0.260  -1.131   6.253  0.00  0.00    -0.115 S 
BRANCH  23  24
ATOM     24  C   UNL     1      -0.169   0.054   4.882  0.00  0.00    +0.168 C 
BRANCH  24  26
ATOM     25  N   UNL     1       0.025  -0.014   2.417  0.00  0.00    -0.285 N 
ATOM     26  C   UNL     1      -0.057  -0.693   3.578  0.00  0.00    +0.227 C 
ATOM     27  O   UNL     1      -0.040  -1.906   3.574  0.00  0.00    -0.275 OA
ATOM     28  H   UNL     1       0.077   0.955   2.425  0.00  0.00    +0.155 HD
BRANCH  25  35
ATOM     29  C   UNL     1      -1.265   1.183   0.181  0.00  0.00    +0.046 C 
ATOM     30  C   UNL     1      -0.584  -0.158   0.084  0.00  0.00    -0.028 A 
ATOM     31  C   UNL     1      -0.569  -0.841  -1.116  0.00  0.00    +0.025 A 
ATOM     32  C   UNL     1       0.056  -2.072  -1.206  0.00  0.00    +0.041 A 
ATOM     33  C   UNL     1       0.668  -2.623  -0.093  0.00  0.00    +0.022 A 
ATOM     34  C   UNL     1       0.656  -1.944   1.109  0.00  0.00    +0.025 A 
ATOM     35  C   UNL     1       0.034  -0.706   1.201  0.00  0.00    +0.036 A 
ATOM     36 CL   UNL     1       0.072  -2.928  -2.716  0.00  0.00    -0.084 Cl
ENDBRANCH  25  35
ENDBRANCH  24  26
ENDBRANCH  23  24
ENDBRANCH   1  23
TORSDOF 7
