REMARK  Name = ZINC35788369
REMARK  9 active torsions:
REMARK  status: ('A' for Active; 'I' for Inactive)
REMARK    1  A    between atoms: C_1  and  C_2
REMARK    2  A    between atoms: C_5  and  C_38
REMARK    3  A    between atoms: C_6  and  C_8
REMARK    4  A    between atoms: C_11  and  C_14
REMARK    5  A    between atoms: C_19  and  O_20
REMARK    6  A    between atoms: O_20  and  C_21
REMARK    7  A    between atoms: C_22  and  C_24
REMARK    8  A    between atoms: C_24  and  N_25
REMARK    9  A    between atoms: N_28  and  C_31
REMARK                            x       y       z     vdW  Elec       q    Type
REMARK                         _______ _______ _______ _____ _____    ______ ____
ROOT
ATOM      1  C   UNL     1       0.515  -2.651   2.511  0.00  0.00    +0.069 C 
ATOM      2  N   UNL     1       0.637  -3.920   2.696  0.00  0.00    -0.181 NA
ATOM      3  N   UNL     1       0.874  -4.282   4.021  0.00  0.00    -0.187 N 
ATOM      4  C   UNL     1       0.915  -3.064   4.846  0.00  0.00    +0.140 C 
ATOM      5  C   UNL     1       0.677  -1.930   3.830  0.00  0.00    +0.087 C 
ATOM      6  C   UNL     1       1.038  -5.541   4.472  0.00  0.00    +0.219 C 
ATOM      7  O   UNL     1       1.239  -5.741   5.651  0.00  0.00    -0.276 OA
ENDROOT
BRANCH   1  13
ATOM      8  C   UNL     1       0.013   1.496  -0.214  0.00  0.00    +0.044 C 
ATOM      9  C   UNL     1       0.018  -0.007  -0.105  0.00  0.00    -0.050 A 
ATOM     10  C   UNL     1      -0.216  -0.781  -1.228  0.00  0.00    +0.003 A 
ATOM     11  C   UNL     1      -0.213  -2.161  -1.138  0.00  0.00    +0.004 A 
ATOM     12  C   UNL     1       0.023  -2.776   0.074  0.00  0.00    -0.042 A 
ATOM     13  C   UNL     1       0.261  -2.001   1.212  0.00  0.00    +0.001 A 
ATOM     14  C   UNL     1       0.262  -0.608   1.112  0.00  0.00    +0.013 A 
ATOM     15  C   UNL     1       0.025  -4.280   0.171  0.00  0.00    +0.044 C 
ENDBRANCH   1  13
BRANCH   4  16
ATOM     16  C   UNL     1      -0.174  -3.092   5.887  0.00  0.00    +0.017 A 
ATOM     17  C   UNL     1      -1.250  -3.947   5.740  0.00  0.00    +0.009 A 
ATOM     18  C   UNL     1      -2.250  -3.973   6.694  0.00  0.00    +0.001 A 
ATOM     19  C   UNL     1      -2.176  -3.144   7.799  0.00  0.00    +0.004 A 
ATOM     20  C   UNL     1      -1.102  -2.289   7.951  0.00  0.00    +0.046 A 
ATOM     21  C   UNL     1      -0.095  -2.265   6.998  0.00  0.00    +0.125 A 
BRANCH  21  22
ATOM     22  O   UNL     1       0.965  -1.428   7.148  0.00  0.00    -0.495 OA
ATOM     23  C   UNL     1       0.981  -0.604   8.316  0.00  0.00    +0.277 C 
ENDBRANCH  21  22
ENDBRANCH   4  16
BRANCH   6  24
ATOM     24  C   UNL     1       0.970  -6.700   3.511  0.00  0.00    +0.021 C 
BRANCH  24  25
ATOM     25  N   UNL     1       1.178  -7.956   4.245  0.00  0.00    +0.387 N 
ATOM     26  C   UNL     1       2.537  -7.977   4.800  0.00  0.00    -0.059 C 
ATOM     27  C   UNL     1       2.717  -9.233   5.660  0.00  0.00    +0.086 C 
ATOM     28  N   UNL     1       2.376 -10.409   4.845  0.00  0.00    -0.331 N 
ATOM     29  C   UNL     1       1.097 -10.401   4.117  0.00  0.00    +0.086 C 
ATOM     30  C   UNL     1       0.994  -9.091   3.331  0.00  0.00    -0.059 C 
ATOM     31  H   UNL     1       0.509  -8.020   4.997  0.00  0.00    -0.081 HD
BRANCH  28  32
ATOM     32  C   UNL     1       3.243 -11.503   4.763  0.00  0.00    +0.065 A 
ATOM     33  C   UNL     1       3.129 -12.550   5.668  0.00  0.00    +0.026 A 
ATOM     34  C   UNL     1       3.986 -13.630   5.584  0.00  0.00    +0.002 A 
ATOM     35  C   UNL     1       4.959 -13.670   4.602  0.00  0.00    +0.003 A 
ATOM     36  C   UNL     1       5.077 -12.629   3.699  0.00  0.00    +0.040 A 
ATOM     37  C   UNL     1       4.218 -11.548   3.773  0.00  0.00    +0.144 A 
ATOM     38  F   UNL     1       4.330 -10.533   2.887  0.00  0.00    -0.204 F 
ENDBRANCH  28  32
ENDBRANCH  24  25
ENDBRANCH   6  24
TORSDOF 6
