REMARK  Name = ZINC29564397
REMARK  10 active torsions:
REMARK  status: ('A' for Active; 'I' for Inactive)
REMARK    1  A    between atoms: C_10  and  C_11
REMARK    2  A    between atoms: C_11  and  C_13
REMARK    3  A    between atoms: C_11  and  N_17
REMARK    4  A    between atoms: C_13  and  C_14
REMARK    5  A    between atoms: N_20  and  N_21
REMARK    6  A    between atoms: C_22  and  C_24
REMARK    7  A    between atoms: C_24  and  C_25
REMARK    8  A    between atoms: C_25  and  C_26
REMARK    9  A    between atoms: C_26  and  C_27
REMARK   10  A    between atoms: C_27  and  N_28
REMARK                            x       y       z     vdW  Elec       q    Type
REMARK                         _______ _______ _______ _____ _____    ______ ____
ROOT
ATOM      1  N   UNL     1       2.597  14.670   0.172  0.00  0.00    -0.291 N 
ATOM      2  C   UNL     1       3.777  14.022   0.114  0.00  0.00    +0.316 C 
ATOM      3  O   UNL     1       4.809  14.649  -0.024  0.00  0.00    -0.251 OA
ATOM      4  N   UNL     1       3.812  12.678   0.209  0.00  0.00    -0.218 N 
ATOM      5  H   UNL     1       1.657  14.100   0.214  0.00  0.00    +0.151 HD
ATOM      6  H   UNL     1       4.776  12.148   0.162  0.00  0.00    +0.174 HD
ENDROOT
BRANCH   4   7
ATOM      7  N   UNL     1       2.623  11.955   0.368  0.00  0.00    -0.233 N 
ATOM      8  C   UNL     1       2.659  10.611   0.464  0.00  0.00    +0.229 C 
ATOM      9  O   UNL     1       3.720  10.027   0.412  0.00  0.00    -0.274 OA
ATOM     10  H   UNL     1       1.660  12.484   0.416  0.00  0.00    +0.173 HD
BRANCH   8  11
ATOM     11  C   UNL     1       1.379   9.834   0.635  0.00  0.00    +0.097 C 
BRANCH  11  12
ATOM     12  C   UNL     1       1.697   8.339   0.716  0.00  0.00    +0.011 C 
BRANCH  12  13
ATOM     13  C   UNL     1       0.398   7.550   0.890  0.00  0.00    +0.019 C 
BRANCH  13  14
ATOM     14  C   UNL     1       0.716   6.056   0.971  0.00  0.00    +0.103 C 
BRANCH  14  15
ATOM     15  N   UNL     1      -0.528   5.300   1.137  0.00  0.00    -0.331 N 
ATOM     16  C   UNL     1      -0.491   3.914   1.236  0.00  0.00    +0.096 A 
ATOM     17  C   UNL     1       0.731   3.250   1.175  0.00  0.00    +0.041 A 
ATOM     18  C   UNL     1       0.753   1.871   1.274  0.00  0.00    +0.005 A 
ATOM     19  C   UNL     1      -0.452   1.198   1.431  0.00  0.00    +0.018 A 
ATOM     20  C   UNL     1      -1.628   1.920   1.477  0.00  0.00    +0.084 A 
ATOM     21  N   UNL     1      -1.619   3.236   1.385  0.00  0.00    -0.350 N 
ATOM     22  H   UNL     1      -1.491   5.829   1.184  0.00  0.00    +0.147 HD
ATOM     23  H   UNL     1      -2.579   3.771   1.436  0.00  0.00    +0.166 HD
ENDBRANCH  14  15
ENDBRANCH  13  14
ENDBRANCH  12  13
ENDBRANCH  11  12
ENDBRANCH   8  11
ENDBRANCH   4   7
BRANCH   1  24
ATOM     24  C   UNL     1       2.566  16.135   0.178  0.00  0.00    +0.116 C 
BRANCH  24  34
ATOM     25  C   UNL     1       4.463  20.432   2.211  0.00  0.00    +0.001 A 
ATOM     26  C   UNL     1       4.222  19.985   0.913  0.00  0.00    +0.001 A 
ATOM     27  C   UNL     1       3.692  18.753   0.684  0.00  0.00    +0.009 A 
ATOM     28  C   UNL     1       3.382  17.916   1.770  0.00  0.00    -0.013 A 
ATOM     29  C   UNL     1       3.628  18.371   3.090  0.00  0.00    -0.018 A 
ATOM     30  C   UNL     1       4.176  19.650   3.287  0.00  0.00    +0.008 A 
ATOM     31  C   UNL     1       3.319  17.534   4.176  0.00  0.00    +0.008 A 
ATOM     32  C   UNL     1       2.789  16.302   3.947  0.00  0.00    +0.001 A 
ATOM     33  C   UNL     1       2.543  15.856   2.650  0.00  0.00    +0.006 A 
ATOM     34  C   UNL     1       2.834  16.637   1.573  0.00  0.00    -0.019 A 
ENDBRANCH  24  34
BRANCH  24  35
ATOM     35  C   UNL     1       1.188  16.617  -0.281  0.00  0.00    +0.152 C 
BRANCH  35  36
ATOM     36  C   UNL     1       0.978  16.236  -1.724  0.00  0.00    +0.358 C 
ATOM     37  O   UNL     1       1.804  15.568  -2.299  0.00  0.00    -0.246 OA
ATOM     38  O   UNL     1      -0.128  16.639  -2.370  0.00  0.00    -0.246 OA
ENDBRANCH  35  36
ENDBRANCH  24  35
ENDBRANCH   1  24
TORSDOF 10
