REMARK  Name = ZINC08439719
REMARK  8 active torsions:
REMARK  status: ('A' for Active; 'I' for Inactive)
REMARK    1  A    between atoms: C_1  and  C_2
REMARK    2  A    between atoms: C_2  and  O_3
REMARK    3  A    between atoms: O_3  and  C_4
REMARK    4  A    between atoms: C_6  and  C_13
REMARK    5  A    between atoms: C_8  and  N_10
REMARK    6  A    between atoms: C_16  and  C_27
REMARK    7  A    between atoms: C_22  and  N_26
REMARK    8  A    between atoms: C_23  and  C_24
REMARK                            x       y       z     vdW  Elec       q    Type
REMARK                         _______ _______ _______ _____ _____    ______ ____
ROOT
ATOM      1  C   UNL     1      -1.484   4.141  -0.167  0.00  0.00    +0.102 C 
ATOM      2  C   UNL     1      -0.605   2.925  -0.031  0.00  0.00    +0.054 A 
ATOM      3  C   UNL     1       0.779   2.849   0.147  0.00  0.00    +0.100 A 
ATOM      4  N   UNL     1       1.111   1.574   0.213  0.00  0.00    -0.171 NA
ATOM      5  N   UNL     1      -0.056   0.806   0.079  0.00  0.00    -0.246 N 
ATOM      6  H   UNL     1      -0.108  -0.193   0.095  0.00  0.00    +0.192 HD
ATOM      7  C   UNL     1      -1.096   1.652  -0.074  0.00  0.00    +0.223 A 
ATOM      8  O   UNL     1      -2.416   1.381  -0.228  0.00  0.00    -0.423 OA
ATOM      9  C   UNL     1      -3.286   2.400  -0.079  0.00  0.00    +0.200 C 
ATOM     10  C   UNL     1      -2.921   3.701  -0.040  0.00  0.00    +0.098 C 
ENDROOT
BRANCH   1  13
ATOM     11  C   UNL     1      -0.557   6.651  -2.834  0.00  0.00    +0.170 A 
ATOM     12  C   UNL     1      -0.760   6.064  -1.596  0.00  0.00    +0.054 A 
ATOM     13  C   UNL     1      -1.264   4.779  -1.515  0.00  0.00    -0.029 A 
ATOM     14  C   UNL     1      -1.562   4.076  -2.667  0.00  0.00    +0.041 A 
ATOM     15  C   UNL     1      -1.367   4.659  -3.906  0.00  0.00    +0.177 A 
ATOM     16  C   UNL     1      -0.862   5.946  -3.994  0.00  0.00    +0.250 A 
ATOM     17  O   UNL     1      -0.665   6.519  -5.212  0.00  0.00    -0.282 OA
BRANCH  15  18
ATOM     18  N   UNL     1      -1.692   3.905  -5.138  0.00  0.00    +0.060 N 
ATOM     19  O   UNL     1      -2.136   2.774  -5.060  0.00  0.00    -0.126 OA
ATOM     20  O   UNL     1      -1.517   4.417  -6.229  0.00  0.00    -0.126 OA
ENDBRANCH  15  18
BRANCH  11  21
ATOM     21  O   UNL     1      -0.061   7.915  -2.916  0.00  0.00    -0.488 OA
BRANCH  21  23
ATOM     22  C   UNL     1       0.974   9.894  -1.992  0.00  0.00    +0.048 C 
ATOM     23  C   UNL     1       0.337   8.536  -1.691  0.00  0.00    +0.226 C 
ENDBRANCH  21  23
ENDBRANCH  11  21
ENDBRANCH   1  13
BRANCH   3  24
ATOM     24  C   UNL     1       1.712   4.000   0.244  0.00  0.00    +0.003 A 
ATOM     25  C   UNL     1       2.939   3.963  -0.415  0.00  0.00    +0.010 A 
ATOM     26  C   UNL     1       3.800   5.038  -0.325  0.00  0.00    +0.001 A 
ATOM     27  C   UNL     1       3.450   6.146   0.425  0.00  0.00    +0.000 A 
ATOM     28  C   UNL     1       2.236   6.186   1.085  0.00  0.00    +0.001 A 
ATOM     29  C   UNL     1       1.365   5.119   0.998  0.00  0.00    +0.010 A 
ENDBRANCH   3  24
BRANCH   9  30
ATOM     30  N   UNL     1      -4.620   2.099   0.041  0.00  0.00    -0.328 N 
ATOM     31  H   UNL     1      -5.270   2.811   0.150  0.00  0.00    +0.145 HD
ATOM     32  H   UNL     1      -4.912   1.174   0.017  0.00  0.00    +0.145 HD
ENDBRANCH   9  30
BRANCH  10  33
ATOM     33  C   UNL     1      -3.936   4.697   0.128  0.00  0.00    +0.101 C 
ATOM     34  N   UNL     1      -4.741   5.487   0.261  0.00  0.00    -0.191 NA
ENDBRANCH  10  33
TORSDOF 7
