REMARK  Name = ZINC39695792
REMARK  9 active torsions:
REMARK  status: ('A' for Active; 'I' for Inactive)
REMARK    1  A    between atoms: C_1  and  C_2
REMARK    2  A    between atoms: C_9  and  C_11
REMARK    3  A    between atoms: C_11  and  C_13
REMARK    4  A    between atoms: C_11  and  N_14
REMARK    5  A    between atoms: C_15  and  C_17
REMARK    6  A    between atoms: C_28  and  C_30
REMARK    7  A    between atoms: C_34  and  N_36
REMARK    8  A    between atoms: N_36  and  C_37
REMARK    9  A    between atoms: N_36  and  C_38
REMARK                            x       y       z     vdW  Elec       q    Type
REMARK                         _______ _______ _______ _____ _____    ______ ____
ROOT
ATOM      1  C   UNL     1       1.289  -8.874   1.339  0.00  0.00    +0.100 C 
ATOM      2  C   UNL     1       0.449  -9.561   0.239  0.00  0.00    +0.121 C 
ATOM      3  N   UNL     1       0.979 -10.944   0.172  0.00  0.00    -0.296 N 
ATOM      4  C   UNL     1       1.234 -11.310   1.586  0.00  0.00    +0.115 C 
ATOM      5  C   UNL     1       1.802 -10.025   2.221  0.00  0.00    -0.004 C 
ATOM      6  C   UNL     1       1.283  -9.869   3.648  0.00  0.00    -0.010 C 
ATOM      7  C   UNL     1       1.854 -10.992   4.519  0.00  0.00    -0.082 C 
ATOM      8  N   UNL     1       3.320 -10.932   4.500  0.00  0.00    +0.379 N 
ATOM      9  C   UNL     1       3.814 -11.175   3.140  0.00  0.00    -0.082 C 
ATOM     10  C   UNL     1       3.327 -10.060   2.210  0.00  0.00    -0.010 C 
ATOM     11  C   UNL     1       1.183 -11.697  -0.926  0.00  0.00    +0.247 C 
ATOM     12  O   UNL     1       1.047 -11.210  -2.032  0.00  0.00    -0.270 OA
ATOM     13  H   UNL     1       3.622 -10.019   4.808  0.00  0.00    -0.086 HD
ATOM     14  H   UNL     1       3.692 -11.633   5.123  0.00  0.00    -0.086 HD
ENDROOT
BRANCH  11  15
ATOM     15  C   UNL     1       1.572 -13.117  -0.787  0.00  0.00    +0.039 A 
ATOM     16  C   UNL     1       1.328 -13.796   0.408  0.00  0.00    +0.013 A 
ATOM     17  C   UNL     1       1.692 -15.121   0.536  0.00  0.00    +0.003 A 
ATOM     18  C   UNL     1       2.300 -15.780  -0.516  0.00  0.00    +0.023 A 
ATOM     19  C   UNL     1       2.547 -15.114  -1.710  0.00  0.00    +0.030 A 
ATOM     20  C   UNL     1       2.179 -13.784  -1.851  0.00  0.00    +0.036 A 
BRANCH  19  21
ATOM     21  N   UNL     1       3.161 -15.784  -2.771  0.00  0.00    -0.336 N 
ATOM     22  C   UNL     1       3.672 -17.144  -2.580  0.00  0.00    +0.129 C 
ATOM     23  C   UNL     1       3.294 -15.128  -4.074  0.00  0.00    +0.129 C 
ENDBRANCH  19  21
ENDBRANCH  11  15
BRANCH   1  25
ATOM     24  N   UNL     1       0.997  -6.923   2.832  0.00  0.00    -0.305 N 
ATOM     25  C   UNL     1       0.429  -7.937   2.147  0.00  0.00    +0.219 C 
ATOM     26  O   UNL     1      -0.773  -8.094   2.182  0.00  0.00    -0.275 OA
ATOM     27  H   UNL     1       1.958  -6.798   2.804  0.00  0.00    +0.149 HD
BRANCH  24  28
ATOM     28  C   UNL     1       0.161  -6.012   3.617  0.00  0.00    +0.136 C 
ATOM     29  C   UNL     1      -0.378  -4.904   2.710  0.00  0.00    +0.036 C 
BRANCH  28  38
ATOM     30  C   UNL     1       3.059  -2.846   9.697  0.00  0.00    +0.044 C 
ATOM     31  C   UNL     1       2.922  -3.491   8.342  0.00  0.00    -0.048 A 
ATOM     32  C   UNL     1       4.053  -3.715   7.568  0.00  0.00    +0.005 A 
ATOM     33  C   UNL     1       3.950  -4.298   6.337  0.00  0.00    +0.030 A 
ATOM     34  C   UNL     1       2.696  -4.675   5.847  0.00  0.00    +0.089 A 
ATOM     35  C   UNL     1       1.552  -4.449   6.630  0.00  0.00    +0.067 A 
ATOM     36  C   UNL     1       1.676  -3.859   7.881  0.00  0.00    +0.031 A 
ATOM     37  N   UNL     1       0.485  -4.919   5.891  0.00  0.00    -0.340 N 
ATOM     38  C   UNL     1       0.985  -5.401   4.721  0.00  0.00    +0.128 A 
ATOM     39  N   UNL     1       2.278  -5.259   4.695  0.00  0.00    -0.231 NA
ATOM     40  H   UNL     1      -0.448  -4.907   6.156  0.00  0.00    +0.167 HD
ENDBRANCH  28  38
ENDBRANCH  24  28
ENDBRANCH   1  25
TORSDOF 5
