REMARK  Name = ZINC04277128
REMARK  19 active torsions:
REMARK  status: ('A' for Active; 'I' for Inactive)
REMARK    1  A    between atoms: C_1  and  C_2
REMARK    2  A    between atoms: C_2  and  O_3
REMARK    3  A    between atoms: O_3  and  C_4
REMARK    4  A    between atoms: C_4  and  C_6
REMARK    5  A    between atoms: C_6  and  C_8
REMARK    6  A    between atoms: C_6  and  O_12
REMARK    7  A    between atoms: O_12  and  P_13
REMARK    8  A    between atoms: P_13  and  O_15
REMARK    9  A    between atoms: P_13  and  O_21
REMARK   10  A    between atoms: O_15  and  C_16
REMARK   11  A    between atoms: C_16  and  C_17
REMARK   12  A    between atoms: C_17  and  C_18
REMARK   13  A    between atoms: C_18  and  C_19
REMARK   14  A    between atoms: C_18  and  C_20
REMARK   15  A    between atoms: O_21  and  C_22
REMARK   16  A    between atoms: C_22  and  C_23
REMARK   17  A    between atoms: C_23  and  C_24
REMARK   18  A    between atoms: C_24  and  C_25
REMARK   19  A    between atoms: C_24  and  C_26
REMARK                            x       y       z     vdW  Elec       q    Type
REMARK                         _______ _______ _______ _____ _____    ______ ____
ROOT
ATOM      1  P   UNL     1      -3.513   0.931  -1.146  0.00  0.00    +0.479 P 
ATOM      2  O   UNL     1      -4.145   2.260  -1.300  0.00  0.00    -0.227 OA
ENDROOT
BRANCH   1   3
ATOM      3  O   UNL     1      -2.403   0.997   0.019  0.00  0.00    -0.263 OA
BRANCH   3   4
ATOM      4  C   UNL     1      -1.329   1.940   0.019  0.00  0.00    +0.341 C 
BRANCH   4   5
ATOM      5  C   UNL     1      -1.417   2.811   1.273  0.00  0.00    +0.427 C 
ATOM      6  F   UNL     1      -0.366   3.735   1.273  0.00  0.00    -0.167 F 
ATOM      7  F   UNL     1      -2.638   3.494   1.283  0.00  0.00    -0.167 F 
ATOM      8  F   UNL     1      -1.326   2.002   2.411  0.00  0.00    -0.167 F 
ENDBRANCH   4   5
BRANCH   4   9
ATOM      9  C   UNL     1      -0.014   1.204   0.009  0.00  0.00    +0.346 C 
ATOM     10  O   UNL     1       0.002  -0.004   0.002  0.00  0.00    -0.248 OA
BRANCH   9  11
ATOM     11  O   UNL     1       1.139   1.891   0.001  0.00  0.00    -0.463 OA
BRANCH  11  13
ATOM     12  C   UNL     1       3.568   2.065  -0.021  0.00  0.00    +0.048 C 
ATOM     13  C   UNL     1       2.367   1.117  -0.015  0.00  0.00    +0.229 C 
ENDBRANCH  11  13
ENDBRANCH   9  11
ENDBRANCH   4   9
ENDBRANCH   3   4
ENDBRANCH   1   3
BRANCH   1  14
ATOM     14  O   UNL     1      -2.812   0.506  -2.531  0.00  0.00    -0.287 OA
BRANCH  14  15
ATOM     15  C   UNL     1      -2.115  -0.729  -2.704  0.00  0.00    +0.172 C 
BRANCH  15  16
ATOM     16  C   UNL     1      -1.575  -0.814  -4.133  0.00  0.00    +0.031 C 
BRANCH  16  17
ATOM     17  C   UNL     1      -0.828  -2.137  -4.318  0.00  0.00    -0.015 C 
ATOM     18  C   UNL     1      -1.813  -3.301  -4.188  0.00  0.00    +0.007 C 
ATOM     19  C   UNL     1      -0.182  -2.168  -5.705  0.00  0.00    +0.007 C 
ENDBRANCH  16  17
ENDBRANCH  15  16
ENDBRANCH  14  15
ENDBRANCH   1  14
BRANCH   1  20
ATOM     20  O   UNL     1      -4.636  -0.155  -0.757  0.00  0.00    -0.287 OA
BRANCH  20  21
ATOM     21  C   UNL     1      -5.812  -0.373  -1.538  0.00  0.00    +0.172 C 
BRANCH  21  22
ATOM     22  C   UNL     1      -6.660  -1.468  -0.889  0.00  0.00    +0.031 C 
BRANCH  22  23
ATOM     23  C   UNL     1      -7.920  -1.701  -1.726  0.00  0.00    -0.015 C 
ATOM     24  C   UNL     1      -7.526  -2.253  -3.097  0.00  0.00    +0.007 C 
ATOM     25  C   UNL     1      -8.827  -2.706  -1.013  0.00  0.00    +0.007 C 
ENDBRANCH  22  23
ENDBRANCH  21  22
ENDBRANCH  20  21
ENDBRANCH   1  20
TORSDOF 14
