REMARK  Name = ZINC39636155
REMARK  6 active torsions:
REMARK  status: ('A' for Active; 'I' for Inactive)
REMARK    1  A    between atoms: C_1  and  C_2
REMARK    2  A    between atoms: C_5  and  C_8
REMARK    3  A    between atoms: C_8  and  C_9
REMARK    4  A    between atoms: C_13  and  C_22
REMARK    5  A    between atoms: N_24  and  C_25
REMARK    6  A    between atoms: C_31  and  C_33
REMARK                            x       y       z     vdW  Elec       q    Type
REMARK                         _______ _______ _______ _____ _____    ______ ____
ROOT
ATOM      1  C   UNL     1       1.148  -4.806   0.100  0.00  0.00    +0.220 C 
ATOM      2  O   UNL     1       1.980  -3.925   0.141  0.00  0.00    -0.275 OA
ATOM      3  N   UNL     1       1.535  -6.096   0.045  0.00  0.00    -0.300 N 
ATOM      4  C   UNL     1       0.674  -7.301  -0.017  0.00  0.00    +0.121 C 
ATOM      5  C   UNL     1       1.397  -8.247  -1.002  0.00  0.00    +0.100 C 
ATOM      6  C   UNL     1       2.869  -7.803  -0.964  0.00  0.00    -0.004 C 
ATOM      7  C   UNL     1       2.918  -6.630   0.025  0.00  0.00    +0.115 C 
ATOM      8  C   UNL     1       3.317  -7.338  -2.346  0.00  0.00    -0.010 C 
ATOM      9  C   UNL     1       4.799  -6.956  -2.296  0.00  0.00    -0.082 C 
ATOM     10  N   UNL     1       5.590  -8.115  -1.867  0.00  0.00    +0.379 N 
ATOM     11  C   UNL     1       5.218  -8.498  -0.500  0.00  0.00    -0.082 C 
ATOM     12  C   UNL     1       3.754  -8.946  -0.474  0.00  0.00    -0.010 C 
ATOM     13  H   UNL     1       5.417  -8.889  -2.491  0.00  0.00    -0.086 HD
ATOM     14  H   UNL     1       6.571  -7.879  -1.894  0.00  0.00    -0.086 HD
ENDROOT
BRANCH   5  15
ATOM     15  C   UNL     1       0.834  -8.088  -2.391  0.00  0.00    +0.218 C 
ATOM     16  O   UNL     1       0.396  -7.015  -2.748  0.00  0.00    -0.275 OA
ATOM     17  N   UNL     1       0.818  -9.138  -3.236  0.00  0.00    -0.312 N 
ATOM     18  H   UNL     1       1.169  -9.996  -2.950  0.00  0.00    +0.149 HD
BRANCH  17  19
ATOM     19  C   UNL     1       0.271  -8.984  -4.586  0.00  0.00    +0.076 C 
ATOM     20  C   UNL     1      -1.246  -9.179  -4.547  0.00  0.00    +0.022 C 
ATOM     21  C   UNL     1      -1.566 -10.581  -4.024  0.00  0.00    +0.002 C 
ATOM     22  C   UNL     1      -0.941 -11.626  -4.950  0.00  0.00    +0.000 C 
ATOM     23  C   UNL     1       0.576 -11.430  -4.989  0.00  0.00    +0.005 C 
ATOM     24  C   UNL     1       0.896 -10.029  -5.512  0.00  0.00    +0.006 C 
ATOM     25  C   UNL     1       2.413  -9.833  -5.551  0.00  0.00    +0.009 C 
ENDBRANCH  17  19
ENDBRANCH   5  15
BRANCH   1  26
ATOM     26  C   UNL     1      -0.319  -4.460   0.111  0.00  0.00    +0.131 C 
BRANCH  26  31
ATOM     27  C   UNL     1      -0.942   1.280   0.359  0.00  0.00    +0.044 C 
ATOM     28  C   UNL     1      -0.779  -0.217   0.294  0.00  0.00    -0.050 A 
ATOM     29  C   UNL     1      -0.700  -0.851  -0.931  0.00  0.00    +0.003 A 
ATOM     30  C   UNL     1      -0.551  -2.224  -0.991  0.00  0.00    +0.004 A 
ATOM     31  C   UNL     1      -0.480  -2.963   0.175  0.00  0.00    -0.039 A 
ATOM     32  C   UNL     1      -0.559  -2.329   1.401  0.00  0.00    +0.004 A 
ATOM     33  C   UNL     1      -0.704  -0.955   1.461  0.00  0.00    +0.003 A 
ENDBRANCH  26  31
ENDBRANCH   1  26
TORSDOF 4
