REMARK  Name = ZINC45626337
REMARK  5 active torsions:
REMARK  status: ('A' for Active; 'I' for Inactive)
REMARK    1  A    between atoms: C_1  and  C_2
REMARK    2  A    between atoms: C_7  and  N_12
REMARK    3  A    between atoms: C_9  and  C_11
REMARK    4  A    between atoms: C_13  and  C_17
REMARK    5  A    between atoms: C_19  and  N_24
REMARK                            x       y       z     vdW  Elec       q    Type
REMARK                         _______ _______ _______ _____ _____    ______ ____
ROOT
ATOM      1  N   UNL     1       1.493  -2.499   2.419  0.00  0.00    -0.222 N 
ATOM      2  C   UNL     1       2.536  -3.365   2.458  0.00  0.00    +0.183 A 
ATOM      3  N   UNL     1       2.829  -3.559   3.727  0.00  0.00    -0.108 NA
ATOM      4  N   UNL     1       2.043  -2.876   4.479  0.00  0.00    -0.023 NA
ATOM      5  N   UNL     1       1.209  -2.203   3.763  0.00  0.00    -0.043 NA
ENDROOT
BRANCH   1  11
ATOM      6  C   UNL     1       0.674   1.559  -0.285  0.00  0.00    +0.008 C 
ATOM      7  C   UNL     1       0.389   0.062  -0.148  0.00  0.00    -0.009 C 
ATOM      8  C   UNL     1      -1.119  -0.159  -0.011  0.00  0.00    +0.004 C 
ATOM      9  C   UNL     1      -1.405  -1.656   0.126  0.00  0.00    +0.002 C 
ATOM     10  C   UNL     1      -0.695  -2.200   1.367  0.00  0.00    +0.027 C 
ATOM     11  C   UNL     1       0.813  -1.979   1.230  0.00  0.00    +0.114 C 
ATOM     12  C   UNL     1       1.099  -0.482   1.093  0.00  0.00    +0.013 C 
ATOM     13  C   UNL     1       0.587   0.251   2.335  0.00  0.00    +0.010 C 
ENDBRANCH   1  11
BRANCH   2  14
ATOM     14  C   UNL     1       3.216  -3.977   1.294  0.00  0.00    +0.036 A 
ATOM     15  C   UNL     1       3.621  -3.181   0.223  0.00  0.00    +0.035 A 
ATOM     16  C   UNL     1       4.258  -3.761  -0.863  0.00  0.00    +0.025 A 
ATOM     17  C   UNL     1       4.491  -5.132  -0.882  0.00  0.00    +0.024 A 
ATOM     18  C   UNL     1       4.090  -5.920   0.179  0.00  0.00    +0.018 A 
ATOM     19  C   UNL     1       3.460  -5.351   1.269  0.00  0.00    +0.029 A 
ATOM     20 BR   UNL     1       2.921  -6.434   2.722  0.00  0.00    -0.050 Br
BRANCH  16  21
ATOM     21  N   UNL     1       4.665  -2.968  -1.939  0.00  0.00    -0.358 N 
ATOM     22  H   UNL     1       4.502  -2.012  -1.926  0.00  0.00    +0.142 HD
ATOM     23  H   UNL     1       5.111  -3.374  -2.699  0.00  0.00    +0.142 HD
ENDBRANCH  16  21
ENDBRANCH   2  14
TORSDOF 3
