REMARK  Name = ZINC33749382
REMARK  7 active torsions:
REMARK  status: ('A' for Active; 'I' for Inactive)
REMARK    1  A    between atoms: C_1  and  C_2
REMARK    2  A    between atoms: C_6  and  O_27
REMARK    3  A    between atoms: C_14  and  O_23
REMARK    4  A    between atoms: C_14  and  O_25
REMARK    5  A    between atoms: C_17  and  C_22
REMARK    6  A    between atoms: O_23  and  C_24
REMARK    7  A    between atoms: O_25  and  C_26
REMARK                            x       y       z     vdW  Elec       q    Type
REMARK                         _______ _______ _______ _____ _____    ______ ____
ROOT
ATOM      1  C   UNL     1      -3.766  -0.129  -0.209  0.00  0.00    +0.014 C 
ATOM      2  C   UNL     1      -2.813   0.888  -0.832  0.00  0.00    -0.003 C 
ATOM      3  C   UNL     1      -1.844   0.100  -1.735  0.00  0.00    +0.009 C 
ATOM      4  C   UNL     1      -0.798  -0.473  -0.742  0.00  0.00    +0.003 C 
ATOM      5  C   UNL     1      -1.036   0.252   0.614  0.00  0.00    +0.035 C 
ATOM      6  C   UNL     1      -1.820   1.500   0.177  0.00  0.00    +0.075 C 
ATOM      7  C   UNL     1      -2.481   2.322   1.242  0.00  0.00    +0.025 C 
ATOM      8  C   UNL     1      -3.192   1.524   2.322  0.00  0.00    +0.007 C 
ATOM      9  C   UNL     1      -3.617   2.506   3.426  0.00  0.00    +0.004 C 
ATOM     10  C   UNL     1      -4.652   3.468   2.839  0.00  0.00    +0.000 C 
ATOM     11  C   UNL     1      -5.921   2.692   2.498  0.00  0.00    +0.069 C 
ATOM     12  C   UNL     1      -6.994   3.667   2.012  0.00  0.00    +0.170 C 
ATOM     13  C   UNL     1      -6.494   4.351   0.740  0.00  0.00    +0.065 C 
ATOM     14  C   UNL     1      -5.188   5.086   0.986  0.00  0.00    +0.012 C 
ATOM     15  C   UNL     1      -4.106   4.229   1.645  0.00  0.00    -0.026 C 
ATOM     16  C   UNL     1      -3.402   3.365   0.611  0.00  0.00    +0.001 C 
ATOM     17  C   UNL     1      -4.348   2.785  -0.424  0.00  0.00    +0.005 C 
ATOM     18  C   UNL     1      -3.588   1.996  -1.504  0.00  0.00    +0.010 C 
ATOM     19  C   UNL     1      -3.052   5.234   2.187  0.00  0.00    +0.012 C 
ENDROOT
BRANCH  12  20
ATOM     20  O   UNL     1      -8.195   2.947   1.726  0.00  0.00    -0.352 OA
ATOM     21  C   UNL     1      -8.772   2.303   2.864  0.00  0.00    +0.197 C 
ENDBRANCH  12  20
BRANCH  12  22
ATOM     22  O   UNL     1      -7.253   4.645   3.019  0.00  0.00    -0.352 OA
ATOM     23  C   UNL     1      -8.323   5.537   2.702  0.00  0.00    +0.197 C 
ENDBRANCH  12  22
BRANCH   6  24
ATOM     24  O   UNL     1      -0.897   2.353  -0.545  0.00  0.00    -0.388 OA
ATOM     25  H   UNL     1      -0.103   2.888  -0.003  0.00  0.00    +0.210 HD
ENDBRANCH   6  24
TORSDOF 3
