REMARK  Name = ZINC20476986
REMARK  6 active torsions:
REMARK  status: ('A' for Active; 'I' for Inactive)
REMARK    1  A    between atoms: C_1  and  C_2
REMARK    2  A    between atoms: C_2  and  C_31
REMARK    3  A    between atoms: N_11  and  C_23
REMARK    4  A    between atoms: N_14  and  C_15
REMARK    5  A    between atoms: C_15  and  C_16
REMARK    6  A    between atoms: C_23  and  C_24
REMARK                            x       y       z     vdW  Elec       q    Type
REMARK                         _______ _______ _______ _____ _____    ______ ____
ROOT
ATOM      1  C   UNL     1      -3.895  -1.639  -5.573  0.00  0.00    +0.041 C 
ATOM      2  C   UNL     1      -4.976  -0.729  -4.986  0.00  0.00    +0.068 C 
ATOM      3  C   UNL     1      -4.341   0.593  -4.543  0.00  0.00    +0.071 C 
ATOM      4  C   UNL     1      -3.468   0.312  -3.323  0.00  0.00    -0.020 A 
ATOM      5  C   UNL     1      -3.644  -0.834  -2.626  0.00  0.00    +0.021 A 
ATOM      6  S   UNL     1      -2.449  -0.758  -1.323  0.00  0.00    -0.073 S 
ATOM      7  C   UNL     1      -1.719   0.809  -1.727  0.00  0.00    +0.095 A 
ATOM      8  C   UNL     1      -2.429   1.222  -2.851  0.00  0.00    +0.047 A 
ATOM      9  C   UNL     1      -2.022   2.536  -3.417  0.00  0.00    +0.111 A 
ATOM     10  N   UNL     1      -2.619   3.018  -4.475  0.00  0.00    -0.344 N 
ATOM     11  N   UNL     1      -1.002   3.238  -2.805  0.00  0.00    -0.274 N 
ATOM     12  C   UNL     1      -0.378   2.757  -1.717  0.00  0.00    +0.332 A 
ATOM     13  O   UNL     1       0.516   3.405  -1.208  0.00  0.00    -0.246 OA
ATOM     14  N   UNL     1      -0.721   1.571  -1.179  0.00  0.00    -0.283 N 
ATOM     15  C   UNL     1      -4.644  -1.907  -2.924  0.00  0.00    +0.203 C 
ATOM     16  O   UNL     1      -5.588  -1.380  -3.869  0.00  0.00    -0.368 OA
ATOM     17  C   UNL     1      -6.035  -0.448  -6.053  0.00  0.00    +0.041 C 
ATOM     18  H   UNL     1      -2.311   3.991  -4.886  0.00  0.00    +0.144 HD
ATOM     19  H   UNL     1      -3.430   2.451  -4.955  0.00  0.00    +0.144 HD
ENDROOT
BRANCH  14  20
ATOM     20  C   UNL     1      -0.013   1.086   0.008  0.00  0.00    +0.162 C 
BRANCH  20  21
ATOM     21  C   UNL     1      -0.718   1.572   1.248  0.00  0.00    -0.028 A 
ATOM     22  C   UNL     1      -0.360   2.779   1.819  0.00  0.00    +0.006 A 
ATOM     23  C   UNL     1      -1.010   3.227   2.953  0.00  0.00    +0.015 A 
ATOM     24  C   UNL     1      -2.012   2.463   3.523  0.00  0.00    +0.018 A 
ATOM     25  C   UNL     1      -2.366   1.253   2.955  0.00  0.00    +0.015 A 
ATOM     26  C   UNL     1      -1.719   0.808   1.818  0.00  0.00    +0.006 A 
ATOM     27 BR   UNL     1      -2.897   3.073   5.079  0.00  0.00    -0.050 Br
ENDBRANCH  20  21
ENDBRANCH  14  20
BRANCH  11  28
ATOM     28  C   UNL     1      -0.593   4.533  -3.353  0.00  0.00    +0.202 C 
BRANCH  28  29
ATOM     29  C   UNL     1       0.496   4.324  -4.374  0.00  0.00    +0.125 A 
ATOM     30  C   UNL     1       0.311   4.116  -5.690  0.00  0.00    +0.046 A 
ATOM     31  C   UNL     1       1.594   3.975  -6.267  0.00  0.00    +0.041 A 
ATOM     32  C   UNL     1       2.486   4.098  -5.268  0.00  0.00    +0.195 A 
ATOM     33  O   UNL     1       1.815   4.309  -4.124  0.00  0.00    -0.466 OA
ENDBRANCH  28  29
ENDBRANCH  11  28
TORSDOF 4
