REMARK  Name = ZINC09407677
REMARK  1 active torsions:
REMARK  status: ('A' for Active; 'I' for Inactive)
REMARK    1  A    between atoms: C_15  and  C_17
REMARK                            x       y       z     vdW  Elec       q    Type
REMARK                         _______ _______ _______ _____ _____    ______ ____
ROOT
ATOM      1  C   UNL     1       1.014   3.234   1.510  0.00  0.00    +0.021 A 
ATOM      2  C   UNL     1      -0.179   3.889   1.285  0.00  0.00    +0.012 A 
ATOM      3  C   UNL     1      -1.234   3.223   0.662  0.00  0.00    +0.014 A 
ATOM      4  C   UNL     1      -1.054   1.904   0.229  0.00  0.00    +0.098 A 
ATOM      5  C   UNL     1       0.135   1.254   0.473  0.00  0.00    +0.047 A 
ATOM      6  C   UNL     1       1.170   1.917   1.112  0.00  0.00    +0.043 A 
ATOM      7 CL   UNL     1       2.668   1.093   1.415  0.00  0.00    -0.083 Cl
ATOM      8  S   UNL     1      -2.353   1.091  -0.641  0.00  0.00    +0.002 S 
ATOM      9  O   UNL     1      -2.235  -0.277  -0.276  0.00  0.00    -0.169 OA
ATOM     10  O   UNL     1      -2.186   1.496  -1.993  0.00  0.00    -0.169 OA
ATOM     11  C   UNL     1      -3.885   1.787   0.034  0.00  0.00    +0.208 C 
ATOM     12  C   UNL     1      -3.740   3.305   0.121  0.00  0.00    -0.011 A 
ATOM     13  C   UNL     1      -2.517   3.888   0.428  0.00  0.00    +0.027 A 
ATOM     14  S   UNL     1      -2.883   5.623   0.506  0.00  0.00    -0.083 S 
ATOM     15  C   UNL     1      -4.616   5.528   0.084  0.00  0.00    +0.075 A 
ATOM     16  C   UNL     1      -4.802   4.165  -0.069  0.00  0.00    +0.026 A 
ENDROOT
BRANCH  15  17
ATOM     17  C   UNL     1      -5.589   6.613  -0.063  0.00  0.00    +0.253 C 
ATOM     18  O   UNL     1      -6.779   6.383   0.047  0.00  0.00    -0.269 OA
ATOM     19  N   UNL     1      -5.166   7.867  -0.320  0.00  0.00    -0.297 N 
ATOM     20  C   UNL     1      -6.116   8.988  -0.336  0.00  0.00    +0.113 C 
ATOM     21  C   UNL     1      -5.984   9.734  -1.663  0.00  0.00    +0.084 C 
ATOM     22  C   UNL     1      -4.523  10.138  -1.874  0.00  0.00    +0.173 C 
ATOM     23  C   UNL     1      -3.640   8.890  -1.926  0.00  0.00    +0.084 C 
ATOM     24  C   UNL     1      -3.749   8.137  -0.596  0.00  0.00    +0.113 C 
ATOM     25  O   UNL     1      -4.398  10.868  -3.100  0.00  0.00    -0.346 OA
ATOM     26  C   UNL     1      -3.873  12.171  -2.772  0.00  0.00    +0.191 C 
ATOM     27  C   UNL     1      -3.203  11.941  -1.394  0.00  0.00    +0.191 C 
ATOM     28  O   UNL     1      -4.098  10.978  -0.788  0.00  0.00    -0.346 OA
ENDBRANCH  15  17
TORSDOF 1
