REMARK  Name = ZINC39974114
REMARK  8 active torsions:
REMARK  status: ('A' for Active; 'I' for Inactive)
REMARK    1  A    between atoms: C_1  and  C_2
REMARK    2  A    between atoms: C_5  and  N_8
REMARK    3  A    between atoms: N_8  and  C_9
REMARK    4  A    between atoms: C_9  and  N_11
REMARK    5  A    between atoms: N_11  and  C_12
REMARK    6  A    between atoms: C_15  and  S_18
REMARK    7  A    between atoms: S_18  and  N_21
REMARK    8  A    between atoms: N_21  and  C_22
REMARK                            x       y       z     vdW  Elec       q    Type
REMARK                         _______ _______ _______ _____ _____    ______ ____
ROOT
ATOM      1  C   UNL     1       3.553  -6.699   1.208  0.00  0.00    +0.033 A 
ATOM      2  C   UNL     1       3.759  -6.617   2.579  0.00  0.00    +0.025 A 
ATOM      3  C   UNL     1       4.810  -7.298   3.160  0.00  0.00    +0.031 A 
ATOM      4  C   UNL     1       5.658  -8.061   2.378  0.00  0.00    +0.111 A 
ATOM      5  C   UNL     1       5.456  -8.146   1.013  0.00  0.00    +0.031 A 
ATOM      6  C   UNL     1       4.403  -7.471   0.426  0.00  0.00    +0.025 A 
ENDROOT
BRANCH   4   7
ATOM      7  S   UNL     1       6.999  -8.928   3.124  0.00  0.00    +0.093 S 
ATOM      8  O   UNL     1       7.968  -9.130   2.105  0.00  0.00    -0.148 OA
ATOM      9  O   UNL     1       7.297  -8.249   4.336  0.00  0.00    -0.148 OA
BRANCH   7  10
ATOM     10  N   UNL     1       6.438 -10.427   3.547  0.00  0.00    -0.070 NA
BRANCH  10  11
ATOM     11  C   UNL     1       7.285 -11.336   4.161  0.00  0.00    +0.201 A 
ATOM     12  N   UNL     1       8.550 -11.183   4.488  0.00  0.00    -0.231 NA
ATOM     13  C   UNL     1       9.226 -12.156   5.074  0.00  0.00    +0.120 A 
ATOM     14  C   UNL     1       8.558 -13.308   5.321  0.00  0.00    +0.068 A 
ATOM     15  S   UNL     1       6.943 -12.902   4.677  0.00  0.00    -0.058 S 
ENDBRANCH  10  11
ENDBRANCH   7  10
ENDBRANCH   4   7
BRANCH   1  16
ATOM     16  N   UNL     1       2.489  -6.011   0.616  0.00  0.00    -0.297 N 
ATOM     17  H   UNL     1       1.924  -6.457  -0.035  0.00  0.00    +0.154 HD
BRANCH  16  18
ATOM     18  C   UNL     1       2.248  -4.727   0.949  0.00  0.00    +0.135 C 
ATOM     19  S   UNL     1       3.175  -3.973   2.174  0.00  0.00    -0.019 S 
BRANCH  18  20
ATOM     20  N   UNL     1       1.277  -4.038   0.317  0.00  0.00    -0.323 N 
ATOM     21  H   UNL     1       0.752  -4.466  -0.378  0.00  0.00    +0.148 HD
BRANCH  20  26
ATOM     22  C   UNL     1      -1.121   1.041   1.447  0.00  0.00    +0.007 C 
ATOM     23  C   UNL     1      -0.848  -0.416   1.069  0.00  0.00    -0.014 C 
ATOM     24  C   UNL     1       0.102  -0.462  -0.130  0.00  0.00    +0.005 C 
ATOM     25  C   UNL     1       0.375  -1.920  -0.508  0.00  0.00    +0.022 C 
ATOM     26  C   UNL     1       1.015  -2.643   0.679  0.00  0.00    +0.072 C 
ATOM     27  C   UNL     1       0.066  -2.596   1.877  0.00  0.00    +0.022 C 
ATOM     28  C   UNL     1      -0.208  -1.139   2.255  0.00  0.00    +0.005 C 
ENDBRANCH  20  26
ENDBRANCH  18  20
ENDBRANCH  16  18
ENDBRANCH   1  16
TORSDOF 7
