REMARK  Name = ZINC30582469
REMARK  7 active torsions:
REMARK  status: ('A' for Active; 'I' for Inactive)
REMARK    1  A    between atoms: C_1  and  C_2
REMARK    2  A    between atoms: C_3  and  C_25
REMARK    3  A    between atoms: C_8  and  C_10
REMARK    4  A    between atoms: N_12  and  C_19
REMARK    5  A    between atoms: C_13  and  C_16
REMARK    6  A    between atoms: C_28  and  O_31
REMARK    7  A    between atoms: O_31  and  C_32
REMARK                            x       y       z     vdW  Elec       q    Type
REMARK                         _______ _______ _______ _____ _____    ______ ____
ROOT
ATOM      1  C   UNL     1      -0.415   4.046   1.516  0.00  0.00    +0.054 C 
ATOM      2  C   UNL     1      -1.436   3.292   0.704  0.00  0.00    +0.016 A 
ATOM      3  C   UNL     1      -1.310   2.115   0.020  0.00  0.00    +0.083 A 
ATOM      4  N   UNL     1      -2.353   1.632  -0.638  0.00  0.00    -0.224 NA
ATOM      5  C   UNL     1      -3.515   2.260  -0.638  0.00  0.00    +0.165 A 
ATOM      6  S   UNL     1      -3.147   3.689   0.369  0.00  0.00    -0.057 S 
ATOM      7  N   UNL     1      -4.704   1.906  -1.261  0.00  0.00    -0.260 N 
ATOM      8  C   UNL     1      -5.789   2.697  -1.140  0.00  0.00    +0.265 C 
ATOM      9  O   UNL     1      -5.725   3.722  -0.486  0.00  0.00    -0.268 OA
ATOM     10  H   UNL     1      -4.762   0.980  -1.852  0.00  0.00    +0.157 HD
ENDROOT
BRANCH   3  11
ATOM     11  C   UNL     1      -0.017   1.390   0.010  0.00  0.00    +0.001 A 
ATOM     12  C   UNL     1       1.183   2.100   0.002  0.00  0.00    +0.013 A 
ATOM     13  C   UNL     1       2.384   1.422  -0.013  0.00  0.00    +0.046 A 
ATOM     14  C   UNL     1       2.399   0.034  -0.020  0.00  0.00    +0.127 A 
ATOM     15  C   UNL     1       1.207  -0.676  -0.013  0.00  0.00    +0.046 A 
ATOM     16  C   UNL     1       0.002  -0.004   0.002  0.00  0.00    +0.013 A 
BRANCH  14  17
ATOM     17  O   UNL     1       3.584  -0.630  -0.035  0.00  0.00    -0.434 OA
BRANCH  17  18
ATOM     18  C   UNL     1       4.773   0.163  -0.041  0.00  0.00    +0.541 C 
ATOM     19  F   UNL     1       4.785   0.976  -1.179  0.00  0.00    -0.166 F 
ATOM     20  F   UNL     1       4.806   0.964   1.105  0.00  0.00    -0.166 F 
ENDBRANCH  17  18
ENDBRANCH  14  17
ENDBRANCH   3  11
BRANCH   8  21
ATOM     21  C   UNL     1      -7.042   2.325  -1.796  0.00  0.00    +0.123 C 
ATOM     22  N   UNL     1      -7.222   1.266  -2.518  0.00  0.00    -0.178 NA
ATOM     23  N   UNL     1      -8.512   1.141  -3.028  0.00  0.00    -0.212 N 
ATOM     24  C   UNL     1      -9.313   2.293  -2.587  0.00  0.00    +0.189 C 
ATOM     25  C   UNL     1      -8.326   3.120  -1.740  0.00  0.00    +0.096 C 
BRANCH  23  26
ATOM     26  C   UNL     1      -8.970   0.094  -3.831  0.00  0.00    +0.052 A 
ATOM     27  C   UNL     1     -10.285   0.083  -4.279  0.00  0.00    +0.025 A 
ATOM     28  C   UNL     1     -10.733  -0.951  -5.077  0.00  0.00    +0.002 A 
ATOM     29  C   UNL     1      -9.876  -1.980  -5.422  0.00  0.00    +0.000 A 
ATOM     30  C   UNL     1      -8.568  -1.976  -4.974  0.00  0.00    +0.002 A 
ATOM     31  C   UNL     1      -8.112  -0.942  -4.180  0.00  0.00    +0.025 A 
ENDBRANCH  23  26
BRANCH  24  32
ATOM     32  C   UNL     1     -10.482   1.842  -1.749  0.00  0.00    +0.233 C 
ATOM     33  O   UNL     1     -10.511   0.712  -1.310  0.00  0.00    -0.274 OA
ATOM     34  N   UNL     1     -11.493   2.693  -1.488  0.00  0.00    -0.328 N 
ATOM     35  H   UNL     1     -12.346   2.364  -0.876  0.00  0.00    +0.145 HD
ATOM     36  H   UNL     1     -11.466   3.718  -1.887  0.00  0.00    +0.145 HD
ENDBRANCH  24  32
ENDBRANCH   8  21
TORSDOF 6
