REMARK  Name = ZINC63142311
REMARK  5 active torsions:
REMARK  status: ('A' for Active; 'I' for Inactive)
REMARK    1  A    between atoms: C_1  and  O_2
REMARK    2  A    between atoms: O_2  and  C_3
REMARK    3  A    between atoms: C_8  and  C_9
REMARK    4  A    between atoms: N_28  and  C_31
REMARK    5  A    between atoms: C_31  and  C_32
REMARK                            x       y       z     vdW  Elec       q    Type
REMARK                         _______ _______ _______ _____ _____    ______ ____
ROOT
ATOM      1  C   UNL     1       0.018  -2.829  -0.013  0.00  0.00    +0.137 C 
ATOM      2  C   UNL     1       0.508  -2.955  -1.455  0.00  0.00    +0.131 C 
ATOM      3  C   UNL     1       1.565  -4.057  -1.441  0.00  0.00    -0.034 C 
ATOM      4  C   UNL     1       2.701  -3.503  -1.841  0.00  0.00    -0.001 A 
ATOM      5  C   UNL     1       4.045  -4.066  -2.053  0.00  0.00    +0.010 A 
ATOM      6  C   UNL     1       5.001  -3.195  -2.472  0.00  0.00    +0.001 A 
ATOM      7  C   UNL     1       4.757  -1.837  -2.700  0.00  0.00    +0.002 A 
ATOM      8  C   UNL     1       3.553  -1.235  -2.533  0.00  0.00    +0.026 A 
ATOM      9  C   UNL     1       2.467  -2.049  -2.095  0.00  0.00    +0.043 A 
ATOM     10  N   UNL     1       1.208  -1.732  -1.869  0.00  0.00    -0.375 N 
ATOM     11  C   UNL     1       1.228  -5.455  -1.000  0.00  0.00    +0.065 C 
ATOM     12  C   UNL     1       0.322  -5.407   0.203  0.00  0.00    +0.167 C 
ATOM     13  N   UNL     1      -0.236  -4.129   0.590  0.00  0.00    -0.279 N 
ATOM     14  C   UNL     1      -1.063  -4.157   1.687  0.00  0.00    +0.234 C 
ATOM     15  O   UNL     1      -1.643  -3.163   2.070  0.00  0.00    -0.274 OA
ATOM     16  C   UNL     1      -1.215  -5.486   2.396  0.00  0.00    +0.204 C 
ATOM     17  N   UNL     1       0.118  -6.103   2.523  0.00  0.00    -0.287 N 
ATOM     18  C   UNL     1       0.910  -6.090   1.412  0.00  0.00    +0.237 C 
ATOM     19  O   UNL     1       2.011  -6.599   1.395  0.00  0.00    -0.274 OA
ATOM     20  H   UNL     1       0.807  -0.853  -1.955  0.00  0.00    +0.160 HD
ENDROOT
BRANCH   1  26
ATOM     21  C   UNL     1      -2.444  -2.595  -0.427  0.00  0.00    +0.125 A 
ATOM     22  C   UNL     1      -3.616  -1.853  -0.407  0.00  0.00    +0.046 A 
ATOM     23  C   UNL     1      -3.595  -0.545   0.038  0.00  0.00    +0.004 A 
ATOM     24  C   UNL     1      -2.409   0.024   0.462  0.00  0.00    +0.001 A 
ATOM     25  C   UNL     1      -1.240  -0.713   0.442  0.00  0.00    +0.009 A 
ATOM     26  C   UNL     1      -1.255  -2.023   0.003  0.00  0.00    +0.017 A 
BRANCH  21  28
ATOM     27  C   UNL     1      -3.720  -4.405  -1.292  0.00  0.00    +0.277 C 
ATOM     28  O   UNL     1      -2.461  -3.882  -0.864  0.00  0.00    -0.495 OA
ENDBRANCH  21  28
ENDBRANCH   1  26
BRANCH  17  29
ATOM     29  C   UNL     1       0.573  -6.698   3.783  0.00  0.00    +0.143 C 
BRANCH  29  30
ATOM     30  C   UNL     1       0.187  -8.155   3.818  0.00  0.00    -0.026 A 
ATOM     31  C   UNL     1      -1.035  -8.532   4.342  0.00  0.00    +0.009 A 
ATOM     32  C   UNL     1      -1.393  -9.867   4.376  0.00  0.00    +0.050 A 
ATOM     33  C   UNL     1      -0.527 -10.830   3.885  0.00  0.00    +0.166 A 
ATOM     34  C   UNL     1       0.704 -10.450   3.357  0.00  0.00    +0.167 A 
ATOM     35  C   UNL     1       1.054  -9.110   3.321  0.00  0.00    +0.054 A 
ATOM     36  O   UNL     1       1.366 -11.570   2.945  0.00  0.00    -0.453 OA
ATOM     37  C   UNL     1       0.705 -12.670   3.597  0.00  0.00    +0.466 C 
ATOM     38  O   UNL     1      -0.636 -12.188   3.804  0.00  0.00    -0.453 OA
ENDBRANCH  29  30
ENDBRANCH  17  29
TORSDOF 4
