REMARK  Name = ZINC60621641
REMARK  2 active torsions:
REMARK  status: ('A' for Active; 'I' for Inactive)
REMARK    1  A    between atoms: C_3  and  N_9
REMARK    2  A    between atoms: C_10  and  C_12
REMARK                            x       y       z     vdW  Elec       q    Type
REMARK                         _______ _______ _______ _____ _____    ______ ____
ROOT
ATOM      1  N   UNL     1       3.584   2.128  -0.021  0.00  0.00    -0.279 N 
ATOM      2  C   UNL     1       3.567   3.473  -0.116  0.00  0.00    +0.255 C 
ATOM      3  O   UNL     1       2.506   4.071  -0.103  0.00  0.00    -0.269 OA
ATOM      4  H   UNL     1       4.429   1.658   0.049  0.00  0.00    +0.155 HD
ENDROOT
BRANCH   2   5
ATOM      5  C   UNL     1       4.784   4.190  -0.231  0.00  0.00    +0.078 A 
ATOM      6  C   UNL     1       4.978   5.556  -0.333  0.00  0.00    +0.049 A 
ATOM      7  C   UNL     1       6.268   6.051  -0.436  0.00  0.00    +0.082 A 
ATOM      8  C   UNL     1       7.305   5.112  -0.430  0.00  0.00    +0.128 A 
ATOM      9  S   UNL     1       6.454   3.561  -0.273  0.00  0.00    -0.063 S 
ATOM     10  N   UNL     1       8.467   5.741  -0.537  0.00  0.00    -0.214 NA
ATOM     11  C   UNL     1       8.254   7.028  -0.612  0.00  0.00    +0.179 A 
ATOM     12  N   UNL     1       6.917   7.310  -0.556  0.00  0.00    -0.293 N 
ATOM     13  C   UNL     1       6.551   8.636  -0.626  0.00  0.00    +0.101 A 
ATOM     14  C   UNL     1       7.473   9.591  -0.741  0.00  0.00    +0.067 A 
ATOM     15  S   UNL     1       8.986   8.643  -0.760  0.00  0.00    -0.058 S 
ENDBRANCH   2   5
BRANCH   1  18
ATOM     16  C   UNL     1       0.065   1.243  -0.621  0.00  0.00    +0.017 A 
ATOM     17  C   UNL     1       1.250   1.953  -0.618  0.00  0.00    +0.027 A 
ATOM     18  C   UNL     1       2.381   1.411  -0.024  0.00  0.00    +0.069 A 
ATOM     19  C   UNL     1       2.318   0.154   0.568  0.00  0.00    +0.146 A 
ATOM     20  C   UNL     1       1.129  -0.551   0.562  0.00  0.00    +0.055 A 
ATOM     21  C   UNL     1       0.004  -0.007  -0.032  0.00  0.00    +0.021 A 
ATOM     22 BR   UNL     1      -1.621  -0.974  -0.037  0.00  0.00    -0.050 Br
ATOM     23  F   UNL     1       3.417  -0.377   1.147  0.00  0.00    -0.204 F 
ENDBRANCH   1  18
TORSDOF 2
