REMARK  Name = ZINC19832477
REMARK  6 active torsions:
REMARK  status: ('A' for Active; 'I' for Inactive)
REMARK    1  A    between atoms: C_1  and  C_2
REMARK    2  A    between atoms: C_5  and  C_26
REMARK    3  A    between atoms: C_6  and  C_8
REMARK    4  A    between atoms: C_10  and  C_17
REMARK    5  A    between atoms: C_11  and  C_15
REMARK    6  A    between atoms: C_12  and  N_14
REMARK                            x       y       z     vdW  Elec       q    Type
REMARK                         _______ _______ _______ _____ _____    ______ ____
ROOT
ATOM      1  C   UNL     1      -0.494   4.180   0.303  0.00  0.00    +0.074 A 
ATOM      2  C   UNL     1       0.661   3.434   0.515  0.00  0.00    +0.038 A 
ATOM      3  C   UNL     1       0.565   2.049   0.640  0.00  0.00    +0.005 A 
ATOM      4  C   UNL     1      -0.714   1.458   0.546  0.00  0.00    +0.099 A 
ATOM      5  C   UNL     1      -1.829   2.285   0.325  0.00  0.00    +0.135 A 
ATOM      6  N   UNL     1      -1.684   3.595   0.219  0.00  0.00    -0.231 NA
ENDROOT
BRANCH   3   7
ATOM      7  C   UNL     1       1.771   1.220   0.867  0.00  0.00    -0.013 A 
ATOM      8  C   UNL     1       2.890   1.377   0.049  0.00  0.00    +0.012 A 
ATOM      9  C   UNL     1       4.013   0.605   0.261  0.00  0.00    +0.050 A 
ATOM     10  C   UNL     1       4.034  -0.329   1.287  0.00  0.00    +0.166 A 
ATOM     11  C   UNL     1       2.918  -0.490   2.107  0.00  0.00    +0.167 A 
ATOM     12  C   UNL     1       1.792   0.286   1.902  0.00  0.00    +0.058 A 
ATOM     13  O   UNL     1       3.190  -1.461   3.028  0.00  0.00    -0.453 OA
ATOM     14  C   UNL     1       4.327  -2.176   2.508  0.00  0.00    +0.466 C 
ATOM     15  O   UNL     1       5.003  -1.199   1.695  0.00  0.00    -0.453 OA
ENDBRANCH   3   7
BRANCH   1  21
ATOM     16  C   UNL     1       1.238   8.562   1.954  0.00  0.00    +0.044 C 
ATOM     17  C   UNL     1       0.435   7.762   0.960  0.00  0.00    -0.050 A 
ATOM     18  C   UNL     1      -0.213   8.405  -0.080  0.00  0.00    +0.003 A 
ATOM     19  C   UNL     1      -0.951   7.678  -0.996  0.00  0.00    +0.004 A 
ATOM     20  C   UNL     1      -1.046   6.306  -0.877  0.00  0.00    -0.041 A 
ATOM     21  C   UNL     1      -0.396   5.653   0.169  0.00  0.00    +0.004 A 
ATOM     22  C   UNL     1       0.342   6.392   1.093  0.00  0.00    +0.013 A 
ATOM     23  C   UNL     1      -1.851   5.515  -1.876  0.00  0.00    +0.044 C 
ENDBRANCH   1  21
BRANCH   5  24
ATOM     24  N   UNL     1      -3.090   1.724   0.224  0.00  0.00    -0.342 N 
ATOM     25  H   UNL     1      -3.966   2.367   0.051  0.00  0.00    +0.144 HD
ATOM     26  H   UNL     1      -3.217   0.635   0.316  0.00  0.00    +0.144 HD
ENDBRANCH   5  24
BRANCH   4  27
ATOM     27  C   UNL     1      -0.872   0.040   0.668  0.00  0.00    +0.103 C 
ATOM     28  N   UNL     1      -0.998  -1.085   0.764  0.00  0.00    -0.191 NA
ENDBRANCH   4  27
TORSDOF 4
