REMARK  Name = ZINC20799075
REMARK  4 active torsions:
REMARK  status: ('A' for Active; 'I' for Inactive)
REMARK    1  A    between atoms: C_4  and  N_7
REMARK    2  A    between atoms: C_13  and  C_18
REMARK    3  A    between atoms: C_18  and  C_19
REMARK    4  A    between atoms: N_21  and  C_22
REMARK                            x       y       z     vdW  Elec       q    Type
REMARK                         _______ _______ _______ _____ _____    ______ ____
ROOT
ATOM      1  N   UNL     1       3.668  -0.644  -0.124  0.00  0.00    -0.326 N 
ATOM      2  C   UNL     1       3.672  -2.018  -0.213  0.00  0.00    +0.201 C 
ATOM      3  N   UNL     1       2.547  -2.670  -0.285  0.00  0.00    -0.268 NA
ATOM      4  N   UNL     1       4.869  -2.704  -0.226  0.00  0.00    -0.295 N 
ATOM      5  C   UNL     1       4.873  -4.085  -0.315  0.00  0.00    +0.230 C 
ATOM      6  N   UNL     1       5.961  -4.803  -0.328  0.00  0.00    -0.236 NA
ATOM      7  C   UNL     1       5.529  -6.208  -0.432  0.00  0.00    +0.208 C 
ATOM      8  C   UNL     1       4.017  -6.106  -0.472  0.00  0.00    +0.274 C 
ATOM      9  O   UNL     1       3.135  -7.117  -0.564  0.00  0.00    -0.268 OA
ATOM     10  N   UNL     1       3.751  -4.832  -0.392  0.00  0.00    -0.176 NA
ATOM     11  H   UNL     1       2.829  -0.168  -0.026  0.00  0.00    +0.169 HD
ATOM     12  H   UNL     1       1.709  -2.185  -0.349  0.00  0.00    +0.190 HD
ATOM     13  H   UNL     1       5.707  -2.219  -0.173  0.00  0.00    +0.172 HD
ENDROOT
BRANCH   1  17
ATOM     14  C   UNL     1       7.256   1.465  -0.279  0.00  0.00    +0.000 A 
ATOM     15  C   UNL     1       7.059   0.377  -1.110  0.00  0.00    +0.002 A 
ATOM     16  C   UNL     1       5.871  -0.325  -1.061  0.00  0.00    +0.026 A 
ATOM     17  C   UNL     1       4.873   0.064  -0.176  0.00  0.00    +0.042 A 
ATOM     18  C   UNL     1       5.074   1.157   0.656  0.00  0.00    +0.026 A 
ATOM     19  C   UNL     1       6.265   1.854   0.603  0.00  0.00    +0.002 A 
ENDBRANCH   1  17
BRANCH   7  20
ATOM     20  C   UNL     1       5.987  -7.006   0.790  0.00  0.00    +0.132 C 
BRANCH  20  21
ATOM     21  C   UNL     1       7.492  -7.097   0.796  0.00  0.00    +0.220 C 
ATOM     22  O   UNL     1       8.134  -6.575  -0.091  0.00  0.00    -0.275 OA
ATOM     23  N   UNL     1       8.123  -7.758   1.786  0.00  0.00    -0.285 N 
ATOM     24  H   UNL     1       7.615  -8.121   2.528  0.00  0.00    +0.155 HD
BRANCH  23  25
ATOM     25  C   UNL     1       9.513  -7.920   1.743  0.00  0.00    +0.035 A 
ATOM     26  C   UNL     1      10.091  -9.093   2.213  0.00  0.00    +0.025 A 
ATOM     27  C   UNL     1      11.462  -9.252   2.170  0.00  0.00    +0.023 A 
ATOM     28  C   UNL     1      12.261  -8.244   1.659  0.00  0.00    +0.059 A 
ATOM     29  C   UNL     1      11.688  -7.073   1.191  0.00  0.00    +0.061 A 
ATOM     30  C   UNL     1      10.316  -6.912   1.227  0.00  0.00    +0.044 A 
ATOM     31 CL   UNL     1      12.693  -5.810   0.553  0.00  0.00    -0.082 Cl
ATOM     32 CL   UNL     1      13.984  -8.447   1.607  0.00  0.00    -0.082 Cl
ENDBRANCH  23  25
ENDBRANCH  20  21
ENDBRANCH   7  20
TORSDOF 4
