REMARK  Name = ZINC60385609
REMARK  4 active torsions:
REMARK  status: ('A' for Active; 'I' for Inactive)
REMARK    1  A    between atoms: C_4  and  C_7
REMARK    2  A    between atoms: C_7  and  C_9
REMARK    3  A    between atoms: C_7  and  S_16
REMARK    4  A    between atoms: S_16  and  C_17
REMARK                            x       y       z     vdW  Elec       q    Type
REMARK                         _______ _______ _______ _____ _____    ______ ____
ROOT
ATOM      1  C   UNL     1       3.711  -0.707  -0.038  0.00  0.00    +0.113 C 
ENDROOT
BRANCH   1   2
ATOM      2  C   UNL     1       3.740  -1.658  -1.207  0.00  0.00    -0.030 A 
ATOM      3  C   UNL     1       2.732  -2.591  -1.362  0.00  0.00    +0.006 A 
ATOM      4  C   UNL     1       2.757  -3.464  -2.434  0.00  0.00    +0.020 A 
ATOM      5  C   UNL     1       3.792  -3.402  -3.351  0.00  0.00    +0.041 A 
ATOM      6  C   UNL     1       4.800  -2.467  -3.195  0.00  0.00    +0.020 A 
ATOM      7  C   UNL     1       4.770  -1.592  -2.126  0.00  0.00    +0.006 A 
ATOM      8 CL   UNL     1       3.824  -4.497  -4.698  0.00  0.00    -0.084 Cl
ENDBRANCH   1   2
BRANCH   1  12
ATOM      9  C   UNL     1       0.456   2.020  -0.496  0.00  0.00    +0.000 A 
ATOM     10  C   UNL     1       0.207   0.683  -0.248  0.00  0.00    +0.000 A 
ATOM     11  C   UNL     1       1.261  -0.200  -0.100  0.00  0.00    +0.005 A 
ATOM     12  C   UNL     1       2.563   0.255  -0.200  0.00  0.00    -0.030 A 
ATOM     13  C   UNL     1       2.811   1.592  -0.449  0.00  0.00    +0.005 A 
ATOM     14  C   UNL     1       1.757   2.475  -0.596  0.00  0.00    +0.000 A 
ENDBRANCH   1  12
BRANCH   1  15
ATOM     15  S   UNL     1       3.501  -1.646   1.500  0.00  0.00    -0.084 S 
BRANCH  15  16
ATOM     16  C   UNL     1       4.974  -2.604   1.620  0.00  0.00    +0.159 A 
ATOM     17  N   UNL     1       6.025  -2.660   0.811  0.00  0.00    -0.135 NA
ATOM     18  N   UNL     1       7.009  -3.411   1.051  0.00  0.00    -0.149 NA
ATOM     19  C   UNL     1       7.058  -4.186   2.115  0.00  0.00    +0.182 A 
ATOM     20  S   UNL     1       5.489  -3.776   2.873  0.00  0.00    -0.048 S 
ENDBRANCH  15  16
ENDBRANCH   1  15
TORSDOF 4
