REMARK  Name = ZINC01117264
REMARK  5 active torsions:
REMARK  status: ('A' for Active; 'I' for Inactive)
REMARK    1  A    between atoms: C_4  and  C_7
REMARK    2  A    between atoms: C_12  and  C_20
REMARK    3  A    between atoms: C_14  and  C_18
REMARK    4  A    between atoms: C_15  and  N_17
REMARK    5  A    between atoms: C_21  and  N_27
REMARK                            x       y       z     vdW  Elec       q    Type
REMARK                         _______ _______ _______ _____ _____    ______ ____
ROOT
ATOM      1  C   UNL     1      -3.329   3.315  -0.187  0.00  0.00    +0.034 C 
ATOM      2  C   UNL     1      -4.119   3.205  -1.492  0.00  0.00    +0.083 C 
ATOM      3  C   UNL     1      -5.301   4.145  -1.452  0.00  0.00    +0.115 C 
ATOM      4  C   UNL     1      -5.910   4.431  -0.287  0.00  0.00    +0.046 C 
ATOM      5  C   UNL     1      -7.106   5.352  -0.251  0.00  0.00    +0.105 C 
ATOM      6  C   UNL     1      -7.704   5.475  -1.625  0.00  0.00    +0.098 C 
ATOM      7  C   UNL     1      -6.983   5.131  -2.720  0.00  0.00    +0.198 C 
ATOM      8  O   UNL     1      -5.724   4.678  -2.613  0.00  0.00    -0.445 OA
ATOM      9  C   UNL     1      -5.458   3.884   0.929  0.00  0.00    +0.164 C 
ATOM     10  O   UNL     1      -6.044   4.153   1.959  0.00  0.00    -0.292 OA
ATOM     11  C   UNL     1      -4.264   2.970   0.977  0.00  0.00    +0.088 C 
ENDROOT
BRANCH   5  12
ATOM     12  C   UNL     1      -6.675   6.713   0.230  0.00  0.00    +0.014 A 
ATOM     13  C   UNL     1      -7.122   7.190   1.448  0.00  0.00    +0.132 A 
ATOM     14  C   UNL     1      -6.726   8.438   1.889  0.00  0.00    +0.033 A 
ATOM     15  C   UNL     1      -5.883   9.211   1.113  0.00  0.00    +0.004 A 
ATOM     16  C   UNL     1      -5.434   8.736  -0.104  0.00  0.00    +0.020 A 
ATOM     17  C   UNL     1      -5.827   7.484  -0.545  0.00  0.00    +0.047 A 
ATOM     18 CL   UNL     1      -5.258   6.883  -2.071  0.00  0.00    -0.083 Cl
BRANCH  13  19
ATOM     19  N   UNL     1      -8.025   6.363   2.280  0.00  0.00    +0.057 N 
ATOM     20  O   UNL     1      -8.683   6.881   3.164  0.00  0.00    -0.126 OA
ATOM     21  O   UNL     1      -8.110   5.164   2.080  0.00  0.00    -0.126 OA
ENDBRANCH  13  19
ENDBRANCH   5  12
BRANCH   1  25
ATOM     22  C   UNL     1      -0.052   0.576  -0.256  0.00  0.00    +0.000 A 
ATOM     23  C   UNL     1      -1.346   0.108  -0.386  0.00  0.00    +0.000 A 
ATOM     24  C   UNL     1      -2.406   0.995  -0.369  0.00  0.00    +0.004 A 
ATOM     25  C   UNL     1      -2.173   2.349  -0.211  0.00  0.00    -0.043 A 
ATOM     26  C   UNL     1      -0.879   2.816  -0.081  0.00  0.00    +0.004 A 
ATOM     27  C   UNL     1       0.182   1.930  -0.102  0.00  0.00    +0.000 A 
ENDBRANCH   1  25
BRANCH   7  28
ATOM     28  N   UNL     1      -7.552   5.249  -3.963  0.00  0.00    -0.328 N 
ATOM     29  H   UNL     1      -8.462   5.575  -4.052  0.00  0.00    +0.145 HD
ATOM     30  H   UNL     1      -7.045   5.006  -4.754  0.00  0.00    +0.145 HD
ENDBRANCH   7  28
BRANCH   6  31
ATOM     31  C   UNL     1      -9.043   5.958  -1.777  0.00  0.00    +0.101 C 
ATOM     32  N   UNL     1     -10.106   6.342  -1.898  0.00  0.00    -0.191 NA
ENDBRANCH   6  31
TORSDOF 5
