REMARK  Name = ZINC39479782
REMARK  4 active torsions:
REMARK  status: ('A' for Active; 'I' for Inactive)
REMARK    1  A    between atoms: C_1  and  N_2
REMARK    2  A    between atoms: C_6  and  O_11
REMARK    3  A    between atoms: C_8  and  S_9
REMARK    4  A    between atoms: S_9  and  C_10
REMARK                            x       y       z     vdW  Elec       q    Type
REMARK                         _______ _______ _______ _____ _____    ______ ____
ROOT
ATOM      1  C   UNL     1      -0.018   1.461   0.010  0.00  0.00    +0.137 C 
ATOM      2  N   UNL     1       0.002  -0.004   0.002  0.00  0.00    -0.285 N 
ATOM      3  C   UNL     1      -1.248  -0.588   0.005  0.00  0.00    +0.052 A 
ATOM      4  C   UNL     1      -2.256   0.122   0.623  0.00  0.00    -0.015 A 
ATOM      5  C   UNL     1      -3.568   0.030   0.330  0.00  0.00    +0.051 A 
ATOM      6  C   UNL     1      -3.946  -1.086  -0.433  0.00  0.00    +0.118 A 
ATOM      7  C   UNL     1      -2.978  -1.996  -0.837  0.00  0.00    +0.062 A 
ATOM      8  C   UNL     1      -1.621  -1.766  -0.633  0.00  0.00    +0.033 A 
ATOM      9  C   UNL     1      -1.766   0.589   2.032  0.00  0.00    +0.105 C 
ATOM     10  C   UNL     1      -0.374  -0.032   1.995  0.00  0.00    +0.112 C 
ATOM     11  N   UNL     1       0.753   0.585   1.905  0.00  0.00    -0.233 NA
ATOM     12  C   UNL     1       1.751  -0.136   1.323  0.00  0.00    +0.142 A 
ATOM     13  C   UNL     1       1.255  -0.548  -0.013  0.00  0.00    +0.156 A 
ATOM     14  N   UNL     1       2.016  -1.235  -0.776  0.00  0.00    -0.218 NA
ATOM     15  C   UNL     1       3.237  -1.583  -0.380  0.00  0.00    +0.225 A 
ATOM     16  N   UNL     1       3.720  -1.244   0.800  0.00  0.00    -0.222 NA
ATOM     17  C   UNL     1       2.998  -0.523   1.678  0.00  0.00    +0.160 A 
ATOM     18 CL   UNL     1       3.651  -0.089   3.227  0.00  0.00    -0.060 Cl
ATOM     19 CL   UNL     1      -0.300  -1.764   2.084  0.00  0.00    -0.066 Cl
ENDROOT
BRANCH   8  20
ATOM     20  S   UNL     1      -0.412  -2.931  -1.167  0.00  0.00    -0.127 S 
ATOM     21  C   UNL     1      -1.388  -4.261  -1.921  0.00  0.00    +0.090 C 
ENDBRANCH   8  20
BRANCH   6  22
ATOM     22  O   UNL     1      -5.249  -1.275  -0.774  0.00  0.00    -0.507 OA
ATOM     23  H   UNL     1      -5.499  -0.865  -1.613  0.00  0.00    +0.292 HD
ENDBRANCH   6  22
TORSDOF 2
