REMARK  Name = ZINC41039535
REMARK  3 active torsions:
REMARK  status: ('A' for Active; 'I' for Inactive)
REMARK    1  A    between atoms: C_6  and  C_7
REMARK    2  A    between atoms: N_9  and  C_10
REMARK    3  A    between atoms: C_12  and  C_18
REMARK                            x       y       z     vdW  Elec       q    Type
REMARK                         _______ _______ _______ _____ _____    ______ ____
ROOT
ATOM      1  C   UNL     1      -2.378  -2.910   0.101  0.00  0.00    +0.070 A 
ATOM      2  C   UNL     1      -3.621  -2.303   0.105  0.00  0.00    +0.042 A 
ATOM      3  C   UNL     1      -4.775  -3.084   0.203  0.00  0.00    +0.074 A 
ATOM      4  C   UNL     1      -4.666  -4.476   0.296  0.00  0.00    +0.138 A 
ATOM      5  C   UNL     1      -3.419  -5.072   0.291  0.00  0.00    +0.079 A 
ATOM      6  C   UNL     1      -2.278  -4.296   0.188  0.00  0.00    +0.147 A 
ATOM      7  F   UNL     1      -1.062  -4.886   0.178  0.00  0.00    -0.203 F 
ATOM      8  F   UNL     1      -5.779  -5.237   0.391  0.00  0.00    -0.205 F 
ENDROOT
BRANCH   3   9
ATOM      9  C   UNL     1      -6.105  -2.444   0.208  0.00  0.00    +0.244 C 
ATOM     10  O   UNL     1      -7.108  -3.126   0.293  0.00  0.00    -0.270 OA
ATOM     11  N   UNL     1      -6.207  -1.103   0.118  0.00  0.00    -0.325 N 
ATOM     12  H   UNL     1      -5.407  -0.559   0.050  0.00  0.00    +0.145 HD
ATOM     13  H   UNL     1      -7.081  -0.682   0.122  0.00  0.00    +0.145 HD
ENDBRANCH   3   9
BRANCH   1  16
ATOM     14  C   UNL     1      -1.174  -0.913   0.582  0.00  0.00    +0.249 C 
ATOM     15  O   UNL     1      -2.165  -0.460   1.120  0.00  0.00    -0.270 OA
ATOM     16  N   UNL     1      -1.219  -2.129   0.003  0.00  0.00    -0.279 N 
ATOM     17  H   UNL     1      -0.448  -2.464  -0.482  0.00  0.00    +0.155 HD
BRANCH  14  23
ATOM     18  C   UNL     1       0.151   1.134   1.160  0.00  0.00    +0.033 A 
ATOM     19  C   UNL     1       1.342   1.831   1.122  0.00  0.00    +0.114 A 
ATOM     20  N   UNL     1       2.407   1.321   0.534  0.00  0.00    -0.228 NA
ATOM     21  C   UNL     1       2.387   0.133  -0.040  0.00  0.00    +0.214 A 
ATOM     22  C   UNL     1       1.234  -0.633  -0.048  0.00  0.00    +0.072 A 
ATOM     23  C   UNL     1       0.083  -0.130   0.565  0.00  0.00    +0.043 A 
ATOM     24  F   UNL     1       3.507  -0.342  -0.628  0.00  0.00    -0.184 F 
ENDBRANCH  14  23
ENDBRANCH   1  16
TORSDOF 3
