REMARK  Name = ZINC54968332
REMARK  7 active torsions:
REMARK  status: ('A' for Active; 'I' for Inactive)
REMARK    1  A    between atoms: C_1  and  C_2
REMARK    2  A    between atoms: C_2  and  C_3
REMARK    3  A    between atoms: C_4  and  C_18
REMARK    4  A    between atoms: C_11  and  C_14
REMARK    5  A    between atoms: C_14  and  C_15
REMARK    6  A    between atoms: C_14  and  C_16
REMARK    7  A    between atoms: C_14  and  C_17
REMARK                            x       y       z     vdW  Elec       q    Type
REMARK                         _______ _______ _______ _____ _____    ______ ____
ROOT
ATOM      1  C   UNL     1       0.731  -0.503   1.223  0.00  0.00    +0.064 A 
ATOM      2  C   UNL     1       2.105  -0.724   1.218  0.00  0.00    +0.125 A 
ATOM      3  S   UNL     1       2.352  -1.288   2.895  0.00  0.00    -0.045 S 
ATOM      4  C   UNL     1       0.754  -1.191   3.412  0.00  0.00    +0.162 A 
ATOM      5  N   UNL     1       0.108  -0.747   2.346  0.00  0.00    -0.229 NA
ATOM      6  N   UNL     1       0.240  -1.495   4.653  0.00  0.00    -0.310 N 
ATOM      7  C   UNL     1      -1.197  -1.354   4.924  0.00  0.00    +0.107 C 
ATOM      8  C   UNL     1      -1.381  -0.474   6.164  0.00  0.00    +0.023 C 
ATOM      9  C   UNL     1      -0.578  -1.063   7.326  0.00  0.00    -0.003 C 
ATOM     10  C   UNL     1       0.909  -1.081   6.963  0.00  0.00    +0.023 C 
ATOM     11  C   UNL     1       1.118  -1.973   5.730  0.00  0.00    +0.107 C 
ENDROOT
BRANCH   9  12
ATOM     12  C   UNL     1      -0.787  -0.206   8.576  0.00  0.00    -0.035 C 
ATOM     13  C   UNL     1      -2.273  -0.189   8.940  0.00  0.00    +0.011 C 
ATOM     14  C   UNL     1       0.016  -0.794   9.738  0.00  0.00    +0.011 C 
ATOM     15  C   UNL     1      -0.313   1.222   8.300  0.00  0.00    +0.011 C 
ENDBRANCH   9  12
BRANCH   2  16
ATOM     16  C   UNL     1       3.043  -0.551   0.177  0.00  0.00    +0.395 C 
ATOM     17  O   UNL     1       2.674  -0.149  -0.921  0.00  0.00    -0.240 OA
ATOM     18  O   UNL     1       4.227  -0.803   0.370  0.00  0.00    -0.240 OA
ENDBRANCH   2  16
BRANCH   1  20
ATOM     19  C   UNL     1      -0.019   1.526   0.010  0.00  0.00    +0.010 C 
ATOM     20  C   UNL     1       0.002  -0.004   0.002  0.00  0.00    +0.053 C 
ENDBRANCH   1  20
TORSDOF 3
