REMARK  Name = ZINC06750138
REMARK  4 active torsions:
REMARK  status: ('A' for Active; 'I' for Inactive)
REMARK    1  A    between atoms: C_1  and  C_2
REMARK    2  A    between atoms: N_11  and  C_12
REMARK    3  A    between atoms: C_13  and  C_29
REMARK    4  A    between atoms: C_24  and  C_28
REMARK                            x       y       z     vdW  Elec       q    Type
REMARK                         _______ _______ _______ _____ _____    ______ ____
ROOT
ATOM      1  C   UNL     1       4.844   5.376  -0.324  0.00  0.00    +0.079 A 
ATOM      2  C   UNL     1       5.921   6.182  -0.439  0.00  0.00    -0.007 A 
ATOM      3  C   UNL     1       5.721   7.617  -0.528  0.00  0.00    +0.077 A 
ATOM      4  C   UNL     1       4.380   8.035  -0.483  0.00  0.00    +0.117 A 
ATOM      5  S   UNL     1       3.474   6.517  -0.335  0.00  0.00    -0.053 S 
ATOM      6  N   UNL     1       4.040   9.319  -0.552  0.00  0.00    -0.226 NA
ATOM      7  C   UNL     1       4.947  10.249  -0.657  0.00  0.00    +0.114 A 
ATOM      8  N   UNL     1       6.276   9.937  -0.708  0.00  0.00    -0.296 N 
ATOM      9  C   UNL     1       6.694   8.662  -0.653  0.00  0.00    +0.263 A 
ATOM     10  O   UNL     1       7.883   8.398  -0.709  0.00  0.00    -0.267 OA
ATOM     11  C   UNL     1       7.243  11.038  -0.822  0.00  0.00    +0.127 C 
ATOM     12  C   UNL     1       7.338  11.760   0.519  0.00  0.00    +0.025 C 
ATOM     13  C   UNL     1       6.322  12.886   0.612  0.00  0.00    -0.012 C 
ATOM     14  C   UNL     1       4.894  12.372   0.609  0.00  0.00    +0.011 C 
ATOM     15  C   UNL     1       4.552  11.705  -0.723  0.00  0.00    +0.075 C 
ATOM     16  C   UNL     1       6.566  13.669   1.903  0.00  0.00    +0.007 C 
ATOM     17  C   UNL     1       7.311   5.600  -0.476  0.00  0.00    +0.047 C 
ENDROOT
BRANCH   1  28
ATOM     18  C   UNL     1      -1.382  -0.612   0.005  0.00  0.00    +0.045 C 
ATOM     19  C   UNL     1      -0.030   0.054  -0.003  0.00  0.00    -0.032 A 
ATOM     20  C   UNL     1       1.129  -0.710  -0.018  0.00  0.00    +0.008 A 
ATOM     21  C   UNL     1       2.349  -0.059  -0.025  0.00  0.00    +0.044 A 
ATOM     22  C   UNL     1       2.374   1.332  -0.015  0.00  0.00    +0.126 A 
ATOM     23  N   UNL     1       1.247   2.025  -0.001  0.00  0.00    -0.240 NA
ATOM     24  C   UNL     1       0.069   1.432   0.005  0.00  0.00    +0.116 A 
ATOM     25  N   UNL     1       3.597   2.001  -0.021  0.00  0.00    -0.254 N 
ATOM     26  C   UNL     1       3.629   3.345  -0.116  0.00  0.00    +0.310 C 
ATOM     27  O   UNL     1       2.592   3.980  -0.103  0.00  0.00    -0.252 OA
ATOM     28  N   UNL     1       4.810   3.984  -0.226  0.00  0.00    -0.263 N 
ATOM     29  H   UNL     1       4.424   1.499   0.042  0.00  0.00    +0.158 HD
ATOM     30  H   UNL     1       5.637   3.477  -0.236  0.00  0.00    +0.157 HD
ENDBRANCH   1  28
TORSDOF 1
