REMARK  Name = ZINC13216638
REMARK  9 active torsions:
REMARK  status: ('A' for Active; 'I' for Inactive)
REMARK    1  A    between atoms: C_1  and  C_2
REMARK    2  A    between atoms: C_5  and  C_35
REMARK    3  A    between atoms: C_6  and  S_8
REMARK    4  A    between atoms: S_8  and  C_9
REMARK    5  A    between atoms: C_9  and  C_20
REMARK    6  A    between atoms: C_10  and  C_11
REMARK    7  A    between atoms: C_14  and  C_17
REMARK    8  A    between atoms: C_26  and  C_34
REMARK    9  A    between atoms: C_27  and  C_31
REMARK                            x       y       z     vdW  Elec       q    Type
REMARK                         _______ _______ _______ _____ _____    ______ ____
ROOT
ATOM      1  C   UNL     1      -0.218  -1.625   3.849  0.00  0.00    +0.056 C 
ATOM      2  C   UNL     1       0.110  -0.389   3.392  0.00  0.00    +0.026 C 
ENDROOT
BRANCH   1   3
ATOM      3  C   UNL     1      -0.549  -1.820   5.269  0.00  0.00    +0.149 A 
ATOM      4  N   UNL     1      -0.718  -3.091   5.747  0.00  0.00    -0.306 N 
ATOM      5  H   UNL     1      -0.617  -3.843   5.143  0.00  0.00    +0.170 HD
ATOM      6  C   UNL     1      -1.020  -3.315   7.040  0.00  0.00    +0.260 A 
ATOM      7  O   UNL     1      -1.168  -4.450   7.458  0.00  0.00    -0.267 OA
ATOM      8  C   UNL     1      -1.169  -2.149   7.942  0.00  0.00    +0.076 A 
ATOM      9  C   UNL     1      -1.474  -2.128   9.302  0.00  0.00    -0.015 A 
ATOM     10  C   UNL     1      -1.565  -0.921   9.960  0.00  0.00    +0.106 A 
ATOM     11  S   UNL     1      -1.218   0.259   8.667  0.00  0.00    -0.062 S 
ATOM     12  C   UNL     1      -0.971  -0.886   7.333  0.00  0.00    +0.117 A 
ATOM     13  N   UNL     1      -0.670  -0.767   6.051  0.00  0.00    -0.221 NA
ATOM     14  C   UNL     1      -1.704  -3.417  10.048  0.00  0.00    +0.046 C 
BRANCH  10  15
ATOM     15  C   UNL     1      -1.862  -0.677  11.325  0.00  0.00    +0.393 C 
ATOM     16  O   UNL     1      -2.078  -1.615  12.083  0.00  0.00    -0.240 OA
ATOM     17  O   UNL     1      -1.902   0.473  11.747  0.00  0.00    -0.240 OA
ENDBRANCH  10  15
ENDBRANCH   1   3
BRANCH   2  18
ATOM     18  C   UNL     1       0.438   0.680   4.340  0.00  0.00    -0.024 A 
ATOM     19  C   UNL     1       1.292   0.421   5.421  0.00  0.00    +0.009 A 
ATOM     20  C   UNL     1       1.598   1.417   6.303  0.00  0.00    +0.016 A 
ATOM     21  C   UNL     1       1.058   2.698   6.127  0.00  0.00    +0.063 A 
ATOM     22  C   UNL     1       0.205   2.957   5.048  0.00  0.00    +0.016 A 
ATOM     23  C   UNL     1      -0.097   1.964   4.162  0.00  0.00    +0.009 A 
BRANCH  21  24
ATOM     24  C   UNL     1       1.388   3.771   7.079  0.00  0.00    +0.387 C 
ATOM     25  O   UNL     1       2.134   3.545   8.022  0.00  0.00    -0.241 OA
ATOM     26  O   UNL     1       0.917   4.890   6.926  0.00  0.00    -0.241 OA
ENDBRANCH  21  24
ENDBRANCH   2  18
BRANCH   1  27
ATOM     27  S   UNL     1      -0.247  -2.995   2.742  0.00  0.00    -0.086 S 
BRANCH  27  33
ATOM     28  C   UNL     1      -5.203  -2.503   4.349  0.00  0.00    +0.044 C 
ATOM     29  C   UNL     1      -4.198  -3.200   3.468  0.00  0.00    -0.049 A 
ATOM     30  C   UNL     1      -4.608  -4.213   2.620  0.00  0.00    +0.004 A 
ATOM     31  C   UNL     1      -3.690  -4.855   1.810  0.00  0.00    +0.005 A 
ATOM     32  C   UNL     1      -2.360  -4.487   1.844  0.00  0.00    -0.037 A 
ATOM     33  C   UNL     1      -1.944  -3.469   2.694  0.00  0.00    +0.016 A 
ATOM     34  C   UNL     1      -2.871  -2.822   3.504  0.00  0.00    +0.018 A 
ATOM     35  C   UNL     1      -1.359  -5.188   0.961  0.00  0.00    +0.045 C 
ENDBRANCH  27  33
ENDBRANCH   1  27
TORSDOF 6
