REMARK  Name = ZINC66159614
REMARK  4 active torsions:
REMARK  status: ('A' for Active; 'I' for Inactive)
REMARK    1  A    between atoms: C_1  and  C_2
REMARK    2  A    between atoms: C_7  and  C_10
REMARK    3  A    between atoms: C_14  and  N_17
REMARK    4  A    between atoms: C_23  and  N_26
REMARK                            x       y       z     vdW  Elec       q    Type
REMARK                         _______ _______ _______ _____ _____    ______ ____
ROOT
ATOM      1  C   UNL     1       0.988  -1.899   2.915  0.00  0.00    +0.039 C 
ATOM      2  C   UNL     1      -0.369  -1.748   2.225  0.00  0.00    +0.133 C 
ATOM      3  C   UNL     1      -0.236  -2.124   0.745  0.00  0.00    +0.137 C 
ATOM      4  N   UNL     1      -1.500  -1.793   0.067  0.00  0.00    -0.312 N 
ATOM      5  C   UNL     1      -2.055  -0.444   0.260  0.00  0.00    +0.137 C 
ATOM      6  C   UNL     1      -2.099  -0.149   1.763  0.00  0.00    +0.133 C 
ATOM      7  O   UNL     1      -0.809  -0.392   2.329  0.00  0.00    -0.371 OA
ATOM      8  C   UNL     1      -2.490   1.313   1.986  0.00  0.00    +0.039 C 
ATOM      9  C   UNL     1      -2.150  -2.728  -0.734  0.00  0.00    +0.099 A 
ATOM     10  C   UNL     1      -1.546  -3.956  -0.986  0.00  0.00    +0.043 A 
ATOM     11  C   UNL     1      -2.201  -4.877  -1.782  0.00  0.00    +0.028 A 
ATOM     12  C   UNL     1      -3.447  -4.537  -2.305  0.00  0.00    +0.051 A 
ATOM     13  C   UNL     1      -3.987  -3.294  -2.011  0.00  0.00    +0.107 A 
ATOM     14  N   UNL     1      -3.337  -2.441  -1.242  0.00  0.00    -0.348 N 
ATOM     15  H   UNL     1      -3.739  -1.579  -1.049  0.00  0.00    +0.167 HD
ENDROOT
BRANCH  12  16
ATOM     16  N   UNL     1      -4.147  -5.440  -3.118  0.00  0.00    -0.268 N 
ATOM     17  C   UNL     1      -4.060  -6.764  -2.883  0.00  0.00    +0.306 C 
ATOM     18  O   UNL     1      -3.459  -7.171  -1.908  0.00  0.00    -0.252 OA
ATOM     19  N   UNL     1      -4.640  -7.638  -3.730  0.00  0.00    -0.287 N 
ATOM     20  C   UNL     1      -5.388  -7.285  -4.945  0.00  0.00    +0.108 C 
ATOM     21  C   UNL     1      -5.840  -8.606  -5.605  0.00  0.00    +0.005 C 
ATOM     22  C   UNL     1      -4.838  -9.642  -5.030  0.00  0.00    -0.049 C 
ATOM     23  C   UNL     1      -4.623  -9.106  -3.595  0.00  0.00    +0.094 C 
ATOM     24  H   UNL     1      -4.693  -5.112  -3.849  0.00  0.00    +0.156 HD
BRANCH  22  25
ATOM     25  N   UNL     1      -5.426 -10.988  -5.010  0.00  0.00    +0.383 N 
ATOM     26  C   UNL     1      -5.712 -11.442  -6.395  0.00  0.00    -0.078 C 
ATOM     27  C   UNL     1      -5.768 -12.984  -6.258  0.00  0.00    -0.020 C 
ATOM     28  C   UNL     1      -4.655 -13.280  -5.226  0.00  0.00    -0.020 C 
ATOM     29  C   UNL     1      -4.457 -11.960  -4.459  0.00  0.00    -0.078 C 
ATOM     30  H   UNL     1      -6.272 -10.991  -4.460  0.00  0.00    -0.081 HD
ENDBRANCH  22  25
ENDBRANCH  12  16
TORSDOF 2
