REMARK  Name = ZINC06462105
REMARK  15 active torsions:
REMARK  status: ('A' for Active; 'I' for Inactive)
REMARK    1  A    between atoms: C_1  and  C_2
REMARK    2  A    between atoms: C_2  and  C_3
REMARK    3  A    between atoms: C_3  and  C_4
REMARK    4  A    between atoms: C_3  and  C_5
REMARK    5  A    between atoms: C_3  and  N_6
REMARK    6  A    between atoms: C_7  and  C_9
REMARK    7  A    between atoms: C_9  and  C_11
REMARK    8  A    between atoms: C_9  and  N_20
REMARK    9  A    between atoms: C_14  and  O_17
REMARK   10  A    between atoms: O_17  and  C_18
REMARK   11  A    between atoms: C_18  and  C_19
REMARK   12  A    between atoms: N_20  and  C_21
REMARK   13  A    between atoms: C_28  and  C_30
REMARK   14  A    between atoms: C_31  and  N_38
REMARK   15  A    between atoms: C_32  and  C_35
REMARK                            x       y       z     vdW  Elec       q    Type
REMARK                         _______ _______ _______ _____ _____    ______ ____
ROOT
ATOM      1  N   UNL     1       0.179  -0.199  -0.239  0.00  0.00    -0.251 N 
ATOM      2  C   UNL     1       0.163   1.118   0.050  0.00  0.00    +0.262 C 
ATOM      3  O   UNL     1       0.939   1.571   0.871  0.00  0.00    -0.269 OA
ENDROOT
BRANCH   1   4
ATOM      4  C   UNL     1      -0.759  -0.731  -1.129  0.00  0.00    +0.040 A 
ATOM      5  C   UNL     1      -2.102  -0.783  -0.776  0.00  0.00    +0.024 A 
ATOM      6  C   UNL     1      -3.027  -1.305  -1.658  0.00  0.00    +0.005 A 
ATOM      7  C   UNL     1      -2.618  -1.785  -2.889  0.00  0.00    +0.038 A 
ATOM      8  C   UNL     1      -1.280  -1.740  -3.243  0.00  0.00    +0.125 A 
ATOM      9  C   UNL     1      -0.349  -1.213  -2.365  0.00  0.00    +0.062 A 
ATOM     10  F   UNL     1      -0.883  -2.210  -4.445  0.00  0.00    -0.205 F 
ENDBRANCH   1   4
BRANCH   2  11
ATOM     11  C   UNL     1      -0.783   2.005  -0.630  0.00  0.00    +0.116 A 
ATOM     12  C   UNL     1      -1.043   3.358  -0.409  0.00  0.00    +0.076 A 
ATOM     13  C   UNL     1      -2.020   3.862  -1.267  0.00  0.00    +0.155 A 
ATOM     14  N   UNL     1      -2.580   3.060  -2.145  0.00  0.00    -0.203 NA
ATOM     15  S   UNL     1      -1.918   1.643  -1.954  0.00  0.00    +0.019 S 
BRANCH  13  16
ATOM     16  C   UNL     1      -2.425   5.278  -1.186  0.00  0.00    +0.262 C 
ATOM     17  O   UNL     1      -1.903   6.014  -0.371  0.00  0.00    -0.269 OA
ATOM     18  N   UNL     1      -3.374   5.755  -2.015  0.00  0.00    -0.324 N 
ATOM     19  H   UNL     1      -3.791   5.168  -2.665  0.00  0.00    +0.145 HD
ATOM     20  H   UNL     1      -3.640   6.687  -1.962  0.00  0.00    +0.145 HD
ENDBRANCH  13  16
BRANCH  12  21
ATOM     21  N   UNL     1      -0.397   4.120   0.556  0.00  0.00    -0.355 N 
ATOM     22  H   UNL     1       0.277   3.714   1.124  0.00  0.00    +0.142 HD
ATOM     23  H   UNL     1      -0.620   5.058   0.663  0.00  0.00    +0.142 HD
ENDBRANCH  12  21
ENDBRANCH   2  11
BRANCH   1  24
ATOM     24  C   UNL     1       1.179  -1.072   0.380  0.00  0.00    +0.197 C 
BRANCH  24  25
ATOM     25  C   UNL     1       1.097  -2.445  -0.235  0.00  0.00    -0.018 A 
ATOM     26  C   UNL     1      -0.110  -3.120  -0.257  0.00  0.00    +0.009 A 
ATOM     27  C   UNL     1      -0.189  -4.377  -0.826  0.00  0.00    +0.046 A 
ATOM     28  C   UNL     1       0.945  -4.966  -1.364  0.00  0.00    +0.121 A 
ATOM     29  C   UNL     1       2.156  -4.289  -1.335  0.00  0.00    +0.046 A 
ATOM     30  C   UNL     1       2.229  -3.030  -0.771  0.00  0.00    +0.009 A 
BRANCH  28  31
ATOM     31  O   UNL     1       0.871  -6.205  -1.918  0.00  0.00    -0.492 OA
BRANCH  31  32
ATOM     32  C   UNL     1      -0.408  -6.842  -1.912  0.00  0.00    +0.225 C 
ATOM     33  C   UNL     1      -0.295  -8.218  -2.573  0.00  0.00    +0.048 C 
ENDBRANCH  31  32
ENDBRANCH  28  31
ENDBRANCH  24  25
BRANCH  24  35
ATOM     34  N   UNL     1       1.714  -1.922   2.640  0.00  0.00    -0.308 N 
ATOM     35  C   UNL     1       0.915  -1.168   1.861  0.00  0.00    +0.239 C 
ATOM     36  O   UNL     1      -0.017  -0.566   2.351  0.00  0.00    -0.273 OA
ATOM     37  H   UNL     1       2.460  -2.404   2.249  0.00  0.00    +0.149 HD
BRANCH  34  38
ATOM     38  C   UNL     1       1.458  -2.016   4.080  0.00  0.00    +0.029 C 
ATOM     39  C   UNL     1       1.541  -0.622   4.704  0.00  0.00    +0.031 C 
ATOM     40  C   UNL     1       0.061  -2.595   4.312  0.00  0.00    +0.031 C 
BRANCH  38  42
ATOM     41  C   UNL     1       2.234  -3.025   6.229  0.00  0.00    +0.006 C 
ATOM     42  C   UNL     1       2.502  -2.928   4.726  0.00  0.00    +0.022 C 
ENDBRANCH  38  42
ENDBRANCH  34  38
ENDBRANCH  24  35
ENDBRANCH   1  24
TORSDOF 11
