REMARK  Name = ZINC06041522
REMARK  10 active torsions:
REMARK  status: ('A' for Active; 'I' for Inactive)
REMARK    1  A    between atoms: C_3  and  O_36
REMARK    2  A    between atoms: C_6  and  C_7
REMARK    3  A    between atoms: C_14  and  O_35
REMARK    4  A    between atoms: C_16  and  O_34
REMARK    5  A    between atoms: C_17  and  C_18
REMARK    6  A    between atoms: C_20  and  O_33
REMARK    7  A    between atoms: C_22  and  O_32
REMARK    8  A    between atoms: C_24  and  O_31
REMARK    9  A    between atoms: C_26  and  C_29
REMARK   10  A    between atoms: C_29  and  O_30
REMARK                            x       y       z     vdW  Elec       q    Type
REMARK                         _______ _______ _______ _____ _____    ______ ____
ROOT
ATOM      1  C   UNL     1      -3.373   6.921   1.053  0.00  0.00    +0.064 A 
ATOM      2  C   UNL     1      -3.175   5.581   0.957  0.00  0.00    +0.208 A 
ATOM      3  O   UNL     1      -1.976   5.018   1.128  0.00  0.00    -0.461 OA
ATOM      4  C   UNL     1      -0.860   5.723   1.403  0.00  0.00    +0.151 A 
ATOM      5  C   UNL     1      -0.920   7.122   1.536  0.00  0.00    +0.106 A 
ATOM      6  C   UNL     1      -2.220   7.787   1.357  0.00  0.00    +0.204 A 
ATOM      7  O   UNL     1      -2.337   8.996   1.455  0.00  0.00    -0.286 OA
ATOM      8  C   UNL     1       0.238   7.855   1.829  0.00  0.00    +0.135 A 
ATOM      9  C   UNL     1       1.440   7.192   1.990  0.00  0.00    +0.092 A 
ATOM     10  C   UNL     1       1.497   5.809   1.864  0.00  0.00    +0.130 A 
ATOM     11  C   UNL     1       0.356   5.077   1.574  0.00  0.00    +0.068 A 
ENDROOT
BRANCH   1  17
ATOM     12  C   UNL     1      -5.245   8.390   1.795  0.00  0.00    +0.012 A 
ATOM     13  C   UNL     1      -6.499   8.933   1.606  0.00  0.00    +0.046 A 
ATOM     14  C   UNL     1      -7.245   8.587   0.488  0.00  0.00    +0.117 A 
ATOM     15  C   UNL     1      -6.731   7.697  -0.445  0.00  0.00    +0.046 A 
ATOM     16  C   UNL     1      -5.476   7.156  -0.265  0.00  0.00    +0.012 A 
ATOM     17  C   UNL     1      -4.723   7.502   0.856  0.00  0.00    -0.011 A 
BRANCH  14  18
ATOM     18  O   UNL     1      -8.483   9.119   0.308  0.00  0.00    -0.507 OA
ATOM     19  H   UNL     1      -9.196   8.598   0.702  0.00  0.00    +0.292 HD
ENDBRANCH  14  18
ENDBRANCH   1  17
BRANCH  11  20
ATOM     20  C   UNL     1       0.438   3.578   1.440  0.00  0.00    +0.187 C 
ATOM     21  C   UNL     1       1.091   3.220   0.101  0.00  0.00    +0.179 C 
ATOM     22  C   UNL     1       1.225   1.697   0.001  0.00  0.00    +0.177 C 
ATOM     23  C   UNL     1       2.032   1.185   1.198  0.00  0.00    +0.176 C 
ATOM     24  C   UNL     1       1.342   1.622   2.493  0.00  0.00    +0.175 C 
ATOM     25  O   UNL     1       1.221   3.046   2.510  0.00  0.00    -0.361 OA
BRANCH  23  26
ATOM     26  O   UNL     1       2.103  -0.241   1.151  0.00  0.00    -0.386 OA
ATOM     27  H   UNL     1       2.525  -0.588   0.353  0.00  0.00    +0.210 HD
ENDBRANCH  23  26
BRANCH  22  28
ATOM     28  O   UNL     1      -0.074   1.102   0.009  0.00  0.00    -0.386 OA
ATOM     29  H   UNL     1      -0.064   0.137  -0.049  0.00  0.00    +0.210 HD
ENDBRANCH  22  28
BRANCH  21  30
ATOM     30  O   UNL     1       2.386   3.819   0.027  0.00  0.00    -0.386 OA
ATOM     31  H   UNL     1       2.862   3.628  -0.793  0.00  0.00    +0.210 HD
ENDBRANCH  21  30
BRANCH  24  32
ATOM     32  C   UNL     1      -0.050   0.992   2.567  0.00  0.00    +0.190 C 
BRANCH  32  33
ATOM     33  O   UNL     1      -0.634   1.273   3.841  0.00  0.00    -0.392 OA
ATOM     34  H   UNL     1      -1.519   0.903   3.958  0.00  0.00    +0.210 HD
ENDBRANCH  32  33
ENDBRANCH  24  32
ENDBRANCH  11  20
BRANCH  10  35
ATOM     35  O   UNL     1       2.683   5.168   2.024  0.00  0.00    -0.506 OA
ATOM     36  H   UNL     1       3.190   5.068   1.207  0.00  0.00    +0.292 HD
ENDBRANCH  10  35
BRANCH   8  37
ATOM     37  O   UNL     1       0.179   9.205   1.952  0.00  0.00    -0.506 OA
ATOM     38  H   UNL     1       0.325   9.682   1.124  0.00  0.00    +0.292 HD
ENDBRANCH   8  37
TORSDOF 10
