REMARK  Name = ZINC04325858
REMARK  3 active torsions:
REMARK  status: ('A' for Active; 'I' for Inactive)
REMARK    1  A    between atoms: C_1  and  C_2
REMARK    2  A    between atoms: C_5  and  C_24
REMARK    3  A    between atoms: C_6  and  C_8
REMARK                            x       y       z     vdW  Elec       q    Type
REMARK                         _______ _______ _______ _____ _____    ______ ____
ROOT
ATOM      1  C   UNL     1      -0.823  -2.302   0.493  0.00  0.00    +0.250 C 
ATOM      2  O   UNL     1       0.308  -2.747   0.501  0.00  0.00    -0.270 OA
ATOM      3  N   UNL     1      -1.032  -0.988   0.712  0.00  0.00    -0.261 N 
ATOM      4  C   UNL     1       0.043  -0.146   0.946  0.00  0.00    +0.166 A 
ATOM      5  N   UNL     1       0.042   1.146   1.177  0.00  0.00    -0.224 NA
ATOM      6  C   UNL     1       1.177   1.847   1.390  0.00  0.00    +0.084 A 
ATOM      7  C   UNL     1       1.311   3.231   1.647  0.00  0.00    +0.078 A 
ATOM      8  C   UNL     1       2.550   3.800   1.843  0.00  0.00    +0.164 A 
ATOM      9  C   UNL     1       3.708   3.025   1.797  0.00  0.00    +0.163 A 
ATOM     10  C   UNL     1       3.610   1.665   1.546  0.00  0.00    +0.066 A 
ATOM     11  C   UNL     1       2.375   1.099   1.349  0.00  0.00    +0.044 A 
ATOM     12  S   UNL     1       1.784  -0.542   1.010  0.00  0.00    -0.052 S 
ATOM     13  O   UNL     1       4.934   3.580   1.998  0.00  0.00    -0.485 OA
ATOM     14  C   UNL     1       5.022   5.004   1.879  0.00  0.00    +0.270 C 
ATOM     15  C   UNL     1       3.850   5.622   2.653  0.00  0.00    +0.270 C 
ATOM     16  O   UNL     1       2.630   5.141   2.081  0.00  0.00    -0.485 OA
ATOM     17  H   UNL     1      -1.934  -0.633   0.706  0.00  0.00    +0.157 HD
ENDROOT
BRANCH   1  23
ATOM     18  C   UNL     1      -5.751  -3.048   0.256  0.00  0.00    +0.044 C 
ATOM     19  C   UNL     1      -4.341  -3.564   0.129  0.00  0.00    -0.050 A 
ATOM     20  C   UNL     1      -4.118  -4.884  -0.224  0.00  0.00    +0.003 A 
ATOM     21  C   UNL     1      -2.827  -5.366  -0.342  0.00  0.00    +0.004 A 
ATOM     22  C   UNL     1      -1.752  -4.531  -0.117  0.00  0.00    -0.038 A 
ATOM     23  C   UNL     1      -1.970  -3.200   0.244  0.00  0.00    +0.040 A 
ATOM     24  C   UNL     1      -3.276  -2.720   0.363  0.00  0.00    +0.016 A 
ATOM     25  C   UNL     1      -0.346  -5.056  -0.253  0.00  0.00    +0.044 C 
ENDBRANCH   1  23
TORSDOF 1
