REMARK  Name = ZINC01069574
REMARK  7 active torsions:
REMARK  status: ('A' for Active; 'I' for Inactive)
REMARK    1  A    between atoms: C_1  and  N_2
REMARK    2  A    between atoms: N_2  and  C_3
REMARK    3  A    between atoms: C_3  and  C_4
REMARK    4  A    between atoms: C_7  and  N_10
REMARK    5  A    between atoms: C_15  and  C_17
REMARK    6  A    between atoms: C_22  and  C_35
REMARK    7  A    between atoms: C_25  and  C_28
REMARK                            x       y       z     vdW  Elec       q    Type
REMARK                         _______ _______ _______ _____ _____    ______ ____
ROOT
ATOM      1  C   UNL     1      -0.124   0.068  -2.441  0.00  0.00    +0.149 A 
ATOM      2  C   UNL     1      -0.333  -0.492  -3.721  0.00  0.00    +0.078 A 
ATOM      3  C   UNL     1      -0.279   0.511  -4.619  0.00  0.00    +0.119 A 
ATOM      4  N   UNL     1      -0.046   1.675  -3.942  0.00  0.00    -0.238 N 
ATOM      5  N   UNL     1       0.042   1.371  -2.584  0.00  0.00    -0.164 NA
ATOM      6  C   UNL     1       0.071   2.984  -4.592  0.00  0.00    +0.215 C 
ATOM      7  C   UNL     1      -0.569   2.906  -5.983  0.00  0.00    +0.063 C 
ATOM      8  C   UNL     1      -0.027   1.688  -6.740  0.00  0.00    +0.104 C 
ATOM      9  N   UNL     1      -0.421   0.468  -6.009  0.00  0.00    -0.322 N 
ATOM     10  H   UNL     1      -0.759  -0.318  -6.466  0.00  0.00    +0.148 HD
ENDROOT
BRANCH   8  11
ATOM     11  C   UNL     1       1.476   1.771  -6.821  0.00  0.00    -0.027 A 
ATOM     12  C   UNL     1       2.248   1.390  -5.740  0.00  0.00    +0.007 A 
ATOM     13  C   UNL     1       3.626   1.465  -5.814  0.00  0.00    +0.020 A 
ATOM     14  C   UNL     1       4.233   1.921  -6.971  0.00  0.00    +0.041 A 
ATOM     15  C   UNL     1       3.459   2.302  -8.053  0.00  0.00    +0.020 A 
ATOM     16  C   UNL     1       2.081   2.221  -7.979  0.00  0.00    +0.007 A 
ATOM     17 CL   UNL     1       5.963   2.017  -7.065  0.00  0.00    -0.084 Cl
ENDBRANCH   8  11
BRANCH   1  20
ATOM     18  C   UNL     1      -0.064   1.461   0.012  0.00  0.00    +0.132 C 
ATOM     19  N   UNL     1      -0.017  -0.003   0.003  0.00  0.00    -0.295 N 
ATOM     20  C   UNL     1      -0.102  -0.673  -1.163  0.00  0.00    +0.267 C 
ATOM     21  O   UNL     1      -0.160  -1.887  -1.164  0.00  0.00    -0.268 OA
BRANCH  19  22
ATOM     22  C   UNL     1       0.122  -0.739   1.262  0.00  0.00    +0.142 C 
BRANCH  22  23
ATOM     23  C   UNL     1      -1.245  -1.037   1.823  0.00  0.00    -0.030 A 
ATOM     24  C   UNL     1      -1.852  -0.136   2.678  0.00  0.00    +0.007 A 
ATOM     25  C   UNL     1      -3.104  -0.407   3.194  0.00  0.00    +0.028 A 
ATOM     26  C   UNL     1      -3.754  -1.585   2.853  0.00  0.00    +0.065 A 
ATOM     27  C   UNL     1      -3.142  -2.488   1.993  0.00  0.00    +0.028 A 
ATOM     28  C   UNL     1      -1.892  -2.209   1.477  0.00  0.00    +0.007 A 
BRANCH  26  29
ATOM     29  N   UNL     1      -5.025  -1.863   3.375  0.00  0.00    -0.240 N 
ATOM     30  C   UNL     1      -5.761  -2.970   3.129  0.00  0.00    +0.114 A 
ATOM     31  C   UNL     1      -6.920  -2.855   3.819  0.00  0.00    +0.041 A 
ATOM     32  C   UNL     1      -6.891  -1.638   4.510  0.00  0.00    +0.135 A 
ATOM     33  N   UNL     1      -5.754  -1.046   4.248  0.00  0.00    -0.175 NA
ENDBRANCH  26  29
ENDBRANCH  22  23
ENDBRANCH  19  22
ENDBRANCH   1  20
BRANCH   6  34
ATOM     34  C   UNL     1      -0.650   4.039  -3.752  0.00  0.00    +0.412 C 
ATOM     35  F   UNL     1      -0.071   4.098  -2.479  0.00  0.00    -0.168 F 
ATOM     36  F   UNL     1      -0.537   5.287  -4.373  0.00  0.00    -0.168 F 
ATOM     37  F   UNL     1      -2.002   3.698  -3.634  0.00  0.00    -0.168 F 
ENDBRANCH   6  34
TORSDOF 6
