REMARK  Name = ZINC06184024
REMARK  4 active torsions:
REMARK  status: ('A' for Active; 'I' for Inactive)
REMARK    1  A    between atoms: C_6  and  S_7
REMARK    2  A    between atoms: S_7  and  N_10
REMARK    3  A    between atoms: N_16  and  C_19
REMARK    4  A    between atoms: C_22  and  C_24
REMARK                            x       y       z     vdW  Elec       q    Type
REMARK                         _______ _______ _______ _____ _____    ______ ____
ROOT
ATOM      1  N   UNL     1       1.133   3.007   0.010  0.00  0.00    -0.169 N 
ATOM      2  C   UNL     1       1.149   1.659   0.000  0.00  0.00    +0.322 C 
ATOM      3  O   UNL     1       0.108   1.038   0.097  0.00  0.00    -0.251 OA
ATOM      4  N   UNL     1       2.319   1.000  -0.116  0.00  0.00    -0.281 N 
ATOM      5  C   UNL     1       2.351  -0.466  -0.232  0.00  0.00    +0.128 C 
ATOM      6  C   UNL     1       3.210  -0.834  -1.452  0.00  0.00    +0.125 C 
ATOM      7  N   UNL     1       4.526  -0.192  -1.329  0.00  0.00    -0.313 N 
ATOM      8  C   UNL     1       4.408   1.272  -1.343  0.00  0.00    +0.125 C 
ATOM      9  C   UNL     1       3.597   1.727  -0.125  0.00  0.00    +0.128 C 
ATOM     10  H   UNL     1       1.967   3.502   0.008  0.00  0.00    +0.178 HD
ENDROOT
BRANCH   7  11
ATOM     11  C   UNL     1       5.390  -0.632  -2.327  0.00  0.00    +0.118 A 
ATOM     12  C   UNL     1       6.479  -1.432  -1.993  0.00  0.00    +0.079 A 
ATOM     13  C   UNL     1       7.327  -1.867  -2.996  0.00  0.00    +0.037 A 
ATOM     14  C   UNL     1       7.063  -1.476  -4.303  0.00  0.00    +0.072 A 
ATOM     15  C   UNL     1       5.968  -0.677  -4.561  0.00  0.00    +0.096 A 
ATOM     16 CL   UNL     1       6.766  -1.884  -0.341  0.00  0.00    -0.080 Cl
ATOM     17  N   UNL     1       5.110  -0.236  -3.602  0.00  0.00    -0.348 N 
ATOM     18  H   UNL     1       4.303   0.359  -3.824  0.00  0.00    +0.167 HD
BRANCH  14  19
ATOM     19  C   UNL     1       7.962  -1.921  -5.427  0.00  0.00    +0.419 C 
ATOM     20  F   UNL     1       7.489  -1.401  -6.636  0.00  0.00    -0.166 F 
ATOM     21  F   UNL     1       9.261  -1.456  -5.196  0.00  0.00    -0.166 F 
ATOM     22  F   UNL     1       7.972  -3.318  -5.491  0.00  0.00    -0.166 F 
ENDBRANCH  14  19
ENDBRANCH   7  11
BRANCH   1  23
ATOM     23  S   UNL     1      -0.311   3.818   0.033  0.00  0.00    +0.076 S 
ATOM     24  O   UNL     1       0.002   5.203   0.072  0.00  0.00    -0.150 OA
ATOM     25  O   UNL     1      -1.113   3.247  -0.992  0.00  0.00    -0.150 OA
BRANCH  23  31
ATOM     26  C   UNL     1      -1.948   2.349   1.647  0.00  0.00    +0.032 A 
ATOM     27  C   UNL     1      -2.564   2.043   2.847  0.00  0.00    +0.043 A 
ATOM     28  C   UNL     1      -2.338   2.833   3.961  0.00  0.00    +0.159 A 
ATOM     29  C   UNL     1      -1.490   3.927   3.873  0.00  0.00    +0.160 A 
ATOM     30  C   UNL     1      -0.872   4.226   2.672  0.00  0.00    +0.070 A 
ATOM     31  C   UNL     1      -1.099   3.436   1.561  0.00  0.00    +0.112 A 
ATOM     32  F   UNL     1      -1.268   4.699   4.959  0.00  0.00    -0.202 F 
ATOM     33  F   UNL     1      -2.943   2.538   5.132  0.00  0.00    -0.202 F 
ENDBRANCH  23  31
ENDBRANCH   1  23
TORSDOF 4
