REMARK  Name = ZINC59317329
REMARK  5 active torsions:
REMARK  status: ('A' for Active; 'I' for Inactive)
REMARK    1  A    between atoms: C_1  and  C_2
REMARK    2  A    between atoms: C_9  and  N_14
REMARK    3  A    between atoms: C_10  and  C_11
REMARK    4  A    between atoms: C_15  and  C_17
REMARK    5  A    between atoms: N_22  and  C_24
REMARK                            x       y       z     vdW  Elec       q    Type
REMARK                         _______ _______ _______ _____ _____    ______ ____
ROOT
ATOM      1  N   UNL     1       1.930  -5.821   1.705  0.00  0.00    -0.279 N 
ATOM      2  C   UNL     1       2.236  -6.080   2.991  0.00  0.00    +0.223 C 
ATOM      3  O   UNL     1       2.202  -5.190   3.814  0.00  0.00    -0.275 OA
ATOM      4  H   UNL     1       1.958  -6.532   1.046  0.00  0.00    +0.155 HD
ENDROOT
BRANCH   1  12
ATOM      5  C   UNL     1      -0.099   1.515   0.025  0.00  0.00    +0.008 C 
ATOM      6  C   UNL     1      -0.062  -0.015   0.013  0.00  0.00    -0.009 C 
ATOM      7  C   UNL     1       0.672  -0.500  -1.241  0.00  0.00    +0.008 C 
ATOM      8  C   UNL     1       0.501  -2.013  -1.391  0.00  0.00    +0.037 C 
ATOM      9  C   UNL     1       0.900  -2.681  -0.082  0.00  0.00    -0.023 A 
ATOM     10  C   UNL     1       0.970  -1.980   1.070  0.00  0.00    -0.004 A 
ATOM     11  S   UNL     1       1.465  -3.165   2.286  0.00  0.00    -0.077 S 
ATOM     12  C   UNL     1       1.576  -4.536   1.322  0.00  0.00    +0.084 A 
ATOM     13  C   UNL     1       1.233  -4.088   0.056  0.00  0.00    +0.068 A 
ATOM     14  C   UNL     1       0.684  -0.521   1.256  0.00  0.00    +0.046 C 
BRANCH  13  15
ATOM     15  C   UNL     1       1.207  -4.996  -1.094  0.00  0.00    +0.244 C 
ATOM     16  O   UNL     1       2.208  -5.153  -1.769  0.00  0.00    -0.270 OA
ATOM     17  N   UNL     1       0.074  -5.657  -1.405  0.00  0.00    -0.325 N 
ATOM     18  H   UNL     1      -0.724  -5.532  -0.868  0.00  0.00    +0.145 HD
ATOM     19  H   UNL     1       0.057  -6.258  -2.167  0.00  0.00    +0.145 HD
ENDBRANCH  13  15
ENDBRANCH   1  12
BRANCH   2  20
ATOM     20  C   UNL     1       2.622  -7.477   3.407  0.00  0.00    +0.102 C 
ATOM     21  C   UNL     1       1.441  -8.457   3.216  0.00  0.00    +0.110 C 
ATOM     22  C   UNL     1       1.546  -9.399   4.395  0.00  0.00    +0.221 C 
ATOM     23  O   UNL     1       0.990 -10.473   4.477  0.00  0.00    -0.275 OA
ATOM     24  N   UNL     1       2.346  -8.872   5.338  0.00  0.00    -0.271 N 
ATOM     25  C   UNL     1       2.854  -7.555   4.932  0.00  0.00    +0.127 C 
BRANCH  24  26
ATOM     26  C   UNL     1       2.657  -9.499   6.550  0.00  0.00    +0.036 A 
ATOM     27  C   UNL     1       2.040 -10.694   6.893  0.00  0.00    +0.025 A 
ATOM     28  C   UNL     1       2.348 -11.311   8.090  0.00  0.00    +0.022 A 
ATOM     29  C   UNL     1       3.271 -10.737   8.947  0.00  0.00    +0.041 A 
ATOM     30  C   UNL     1       3.887  -9.546   8.608  0.00  0.00    +0.022 A 
ATOM     31  C   UNL     1       3.587  -8.928   7.410  0.00  0.00    +0.025 A 
ATOM     32 CL   UNL     1       3.656 -11.514  10.452  0.00  0.00    -0.084 Cl
ENDBRANCH  24  26
ENDBRANCH   2  20
TORSDOF 4
