REMARK  Name = ZINC64190804
REMARK  4 active torsions:
REMARK  status: ('A' for Active; 'I' for Inactive)
REMARK    1  A    between atoms: C_4  and  C_10
REMARK    2  A    between atoms: N_13  and  S_16
REMARK    3  A    between atoms: S_16  and  C_19
REMARK    4  A    between atoms: C_24  and  N_25
REMARK                            x       y       z     vdW  Elec       q    Type
REMARK                         _______ _______ _______ _____ _____    ______ ____
ROOT
ATOM      1  S   UNL     1       6.172   6.600   1.182  0.00  0.00    +0.063 S 
ATOM      2  O   UNL     1       7.531   6.996   1.062  0.00  0.00    -0.153 OA
ATOM      3  O   UNL     1       5.093   7.490   0.931  0.00  0.00    -0.153 OA
ENDROOT
BRANCH   1   4
ATOM      4  C   UNL     1       5.963   6.007   2.828  0.00  0.00    +0.139 A 
ATOM      5  C   UNL     1       5.417   4.754   3.045  0.00  0.00    +0.080 A 
ATOM      6  C   UNL     1       5.255   4.291   4.340  0.00  0.00    +0.164 A 
ATOM      7  C   UNL     1       5.639   5.082   5.414  0.00  0.00    +0.164 A 
ATOM      8  C   UNL     1       6.184   6.335   5.193  0.00  0.00    +0.084 A 
ATOM      9  C   UNL     1       6.350   6.792   3.897  0.00  0.00    +0.156 A 
ATOM     10  O   UNL     1       5.476   4.616   6.686  0.00  0.00    -0.488 OA
ATOM     11  C   UNL     1       4.126   4.480   7.134  0.00  0.00    +0.232 C 
ATOM     12  C   UNL     1       3.543   3.147   6.691  0.00  0.00    +0.082 C 
ATOM     13  C   UNL     1       3.427   3.040   5.178  0.00  0.00    +0.232 C 
ATOM     14  O   UNL     1       4.719   3.057   4.569  0.00  0.00    -0.488 OA
BRANCH   9  15
ATOM     15  N   UNL     1       6.939   8.128   3.656  0.00  0.00    +0.058 N 
ATOM     16  O   UNL     1       7.397   8.762   4.578  0.00  0.00    -0.126 OA
ATOM     17  O   UNL     1       6.961   8.586   2.537  0.00  0.00    -0.126 OA
ENDBRANCH   9  15
ENDBRANCH   1   4
BRANCH   1  21
ATOM     18  C   UNL     1       5.442   2.626  -0.005  0.00  0.00    -0.043 C 
ATOM     19  C   UNL     1       4.454   3.468  -0.284  0.00  0.00    -0.006 C 
ATOM     20  C   UNL     1       4.639   4.958  -0.364  0.00  0.00    +0.137 C 
ATOM     21  N   UNL     1       5.965   5.308   0.166  0.00  0.00    -0.172 NA
ATOM     22  C   UNL     1       7.102   4.466  -0.242  0.00  0.00    +0.114 C 
ATOM     23  C   UNL     1       6.852   3.049   0.286  0.00  0.00    +0.052 C 
BRANCH  18  27
ATOM     24  C   UNL     1       7.896  -1.017   1.147  0.00  0.00    +0.020 A 
ATOM     25  C   UNL     1       7.337   0.191   0.849  0.00  0.00    +0.013 A 
ATOM     26  C   UNL     1       5.996   0.215   0.402  0.00  0.00    +0.022 A 
ATOM     27  C   UNL     1       5.147   1.249   0.025  0.00  0.00    -0.015 C 
ATOM     28  C   UNL     1       3.839   0.585  -0.345  0.00  0.00    +0.150 C 
ATOM     29  N   UNL     1       4.044  -0.853  -0.144  0.00  0.00    -0.365 N 
ATOM     30  C   UNL     1       5.271  -1.063   0.281  0.00  0.00    +0.135 A 
ATOM     31  N   UNL     1       5.917  -2.204   0.601  0.00  0.00    -0.238 NA
ATOM     32  C   UNL     1       7.159  -2.192   1.012  0.00  0.00    +0.113 A 
ATOM     33  H   UNL     1       3.379  -1.542  -0.300  0.00  0.00    +0.161 HD
ENDBRANCH  18  27
ENDBRANCH   1  21
TORSDOF 4
