REMARK  Name = ZINC40548197
REMARK  6 active torsions:
REMARK  status: ('A' for Active; 'I' for Inactive)
REMARK    1  A    between atoms: C_1  and  O_2
REMARK    2  A    between atoms: O_2  and  C_3
REMARK    3  A    between atoms: C_5  and  C_10
REMARK    4  A    between atoms: C_8  and  O_9
REMARK    5  A    between atoms: C_13  and  C_29
REMARK    6  A    between atoms: N_20  and  C_21
REMARK                            x       y       z     vdW  Elec       q    Type
REMARK                         _______ _______ _______ _____ _____    ______ ____
ROOT
ATOM      1  C   UNL     1       2.462   0.334   4.204  0.00  0.00    +0.142 C 
ATOM      2  C   UNL     1       1.572   0.340   5.417  0.00  0.00    +0.035 A 
ATOM      3  C   UNL     1       0.365   0.656   5.953  0.00  0.00    +0.075 A 
ATOM      4  N   UNL     1       0.407   0.277   7.265  0.00  0.00    -0.276 N 
ATOM      5  N   UNL     1       1.554  -0.238   7.535  0.00  0.00    -0.168 NA
ATOM      6  H   UNL     1      -0.319   0.382   7.899  0.00  0.00    +0.189 HD
ATOM      7  C   UNL     1       2.324  -0.238   6.465  0.00  0.00    +0.153 A 
ATOM      8  C   UNL     1       3.648  -0.598   5.927  0.00  0.00    +0.268 C 
ATOM      9  O   UNL     1       4.540  -1.118   6.569  0.00  0.00    -0.268 OA
ATOM     10  N   UNL     1       3.731  -0.270   4.625  0.00  0.00    -0.280 N 
ENDROOT
BRANCH   3  11
ATOM     11  C   UNL     1      -0.775   1.288   5.253  0.00  0.00    +0.048 A 
ATOM     12  C   UNL     1      -1.204   2.563   5.621  0.00  0.00    +0.033 A 
ATOM     13  C   UNL     1      -2.268   3.148   4.963  0.00  0.00    +0.042 A 
ATOM     14  C   UNL     1      -2.911   2.472   3.940  0.00  0.00    +0.024 A 
ATOM     15  C   UNL     1      -2.494   1.208   3.567  0.00  0.00    +0.053 A 
ATOM     16  C   UNL     1      -1.424   0.611   4.214  0.00  0.00    +0.188 A 
ATOM     17  O   UNL     1      -1.010  -0.629   3.845  0.00  0.00    -0.287 OA
ATOM     18 CL   UNL     1      -2.801   4.735   5.422  0.00  0.00    -0.084 Cl
ENDBRANCH   3  11
BRANCH  10  19
ATOM     19  C   UNL     1       4.899  -0.481   3.766  0.00  0.00    +0.100 C 
ATOM     20  C   UNL     1       6.104   0.280   4.346  0.00  0.00    +0.047 C 
ATOM     21  C   UNL     1       7.384  -0.206   3.608  0.00  0.00    +0.168 C 
ATOM     22  S   UNL     1       7.045  -2.014   3.501  0.00  0.00    -0.029 S 
ATOM     23  O   UNL     1       7.621  -2.660   4.629  0.00  0.00    -0.174 OA
ATOM     24  O   UNL     1       7.370  -2.469   2.195  0.00  0.00    -0.174 OA
ATOM     25  C   UNL     1       5.217  -1.994   3.694  0.00  0.00    +0.188 C 
ENDBRANCH  10  19
BRANCH   1  28
ATOM     26  C   UNL     1       0.626  -0.619   1.042  0.00  0.00    +0.162 A 
ATOM     27  C   UNL     1       1.202   0.137   2.051  0.00  0.00    +0.055 A 
ATOM     28  C   UNL     1       1.836  -0.490   3.108  0.00  0.00    -0.019 A 
ATOM     29  C   UNL     1       1.897  -1.870   3.161  0.00  0.00    +0.009 A 
ATOM     30  C   UNL     1       1.325  -2.630   2.158  0.00  0.00    +0.049 A 
ATOM     31  C   UNL     1       0.683  -2.008   1.099  0.00  0.00    +0.158 A 
BRANCH  26  33
ATOM     32  C   UNL     1      -0.017   1.425   0.010  0.00  0.00    +0.277 C 
ATOM     33  O   UNL     1       0.002  -0.004   0.002  0.00  0.00    -0.491 OA
ENDBRANCH  26  33
BRANCH  31  34
ATOM     34  O   UNL     1       0.115  -2.754   0.114  0.00  0.00    -0.503 OA
ATOM     35  H   UNL     1       0.711  -2.957  -0.620  0.00  0.00    +0.292 HD
ENDBRANCH  31  34
ENDBRANCH   1  28
TORSDOF 5
