REMARK  Name = ZINC09593816
REMARK  8 active torsions:
REMARK  status: ('A' for Active; 'I' for Inactive)
REMARK    1  A    between atoms: C_4  and  O_33
REMARK    2  A    between atoms: C_5  and  N_7
REMARK    3  A    between atoms: C_8  and  C_10
REMARK    4  A    between atoms: C_15  and  C_16
REMARK    5  A    between atoms: C_15  and  N_59
REMARK    6  A    between atoms: N_18  and  C_19
REMARK    7  A    between atoms: C_19  and  C_21
REMARK    8  A    between atoms: C_19  and  C_28
REMARK                            x       y       z     vdW  Elec       q    Type
REMARK                         _______ _______ _______ _____ _____    ______ ____
ROOT
ATOM      1  C   UNL     1       2.411   5.337  -7.345  0.00  0.00    +0.072 C 
ATOM      2  C   UNL     1       3.185   6.531  -6.779  0.00  0.00    -0.006 C 
ATOM      3  C   UNL     1       3.740   6.166  -5.400  0.00  0.00    -0.077 C 
ATOM      4  C   UNL     1       1.904   4.635  -5.003  0.00  0.00    -0.077 C 
ATOM      5  C   UNL     1       1.294   4.954  -6.370  0.00  0.00    -0.006 C 
ATOM      6  N   UNL     1       2.613   5.832  -4.503  0.00  0.00    +0.385 N 
ATOM      7  H   UNL     1       1.959   6.622  -4.482  0.00  0.00    -0.081 HD
ENDROOT
BRANCH   1   9
ATOM      8  N   UNL     1       1.083   4.809  -9.364  0.00  0.00    -0.282 N 
ATOM      9  C   UNL     1       1.812   5.710  -8.676  0.00  0.00    +0.220 C 
ATOM     10  O   UNL     1       1.986   6.822  -9.129  0.00  0.00    -0.275 OA
ATOM     11  H   UNL     1       0.998   3.901  -9.033  0.00  0.00    +0.155 HD
BRANCH   8  16
ATOM     12  C   UNL     1       0.419   6.472 -12.577  0.00  0.00    +0.002 A 
ATOM     13  C   UNL     1      -0.806   5.925 -12.912  0.00  0.00    +0.004 A 
ATOM     14  C   UNL     1      -1.409   5.007 -12.072  0.00  0.00    +0.047 A 
ATOM     15  C   UNL     1      -0.783   4.628 -10.895  0.00  0.00    +0.138 A 
ATOM     16  C   UNL     1       0.448   5.184 -10.555  0.00  0.00    +0.075 A 
ATOM     17  C   UNL     1       1.047   6.104 -11.403  0.00  0.00    +0.027 A 
BRANCH  15  18
ATOM     18  O   UNL     1      -1.372   3.721 -10.071  0.00  0.00    -0.505 OA
ATOM     19  H   UNL     1      -1.956   4.113  -9.407  0.00  0.00    +0.292 HD
ENDBRANCH  15  18
ENDBRANCH   8  16
ENDBRANCH   1   9
BRANCH   6  20
ATOM     20  C   UNL     1       3.114   5.586  -3.135  0.00  0.00    +0.019 C 
BRANCH  20  21
ATOM     21  C   UNL     1       1.937   5.466  -2.202  0.00  0.00    +0.197 C 
ATOM     22  O   UNL     1       0.807   5.556  -2.635  0.00  0.00    -0.278 OA
ATOM     23  N   UNL     1       2.138   5.257  -0.885  0.00  0.00    -0.306 N 
ATOM     24  H   UNL     1       3.041   5.185  -0.539  0.00  0.00    +0.150 HD
BRANCH  23  25
ATOM     25  C   UNL     1       0.994   5.140   0.021  0.00  0.00    +0.140 C 
BRANCH  25  26
ATOM     26  C   UNL     1       1.417   5.523   1.416  0.00  0.00    -0.022 A 
ATOM     27  C   UNL     1       2.648   5.122   1.899  0.00  0.00    +0.008 A 
ATOM     28  C   UNL     1       3.040   5.477   3.176  0.00  0.00    +0.038 A 
ATOM     29  C   UNL     1       2.193   6.225   3.976  0.00  0.00    +0.123 A 
ATOM     30  C   UNL     1       0.957   6.622   3.493  0.00  0.00    +0.038 A 
ATOM     31  C   UNL     1       0.571   6.270   2.214  0.00  0.00    +0.008 A 
ATOM     32  F   UNL     1       2.572   6.567   5.227  0.00  0.00    -0.205 F 
ENDBRANCH  25  26
BRANCH  25  33
ATOM     33  C   UNL     1       0.496   3.718   0.020  0.00  0.00    +0.014 A 
ATOM     34  C   UNL     1      -0.780   3.260   0.039  0.00  0.00    +0.013 A 
ATOM     35  C   UNL     1      -1.003   1.896   0.027  0.00  0.00    +0.008 A 
ATOM     36  C   UNL     1       0.060   1.056   0.008  0.00  0.00    +0.045 A 
ATOM     37  S   UNL     1       1.433   2.198  -0.007  0.00  0.00    -0.099 S 
ENDBRANCH  25  33
ENDBRANCH  23  25
ENDBRANCH  20  21
ENDBRANCH   6  20
TORSDOF 8
