REMARK  Name = ZINC36578988
REMARK  18 active torsions:
REMARK  status: ('A' for Active; 'I' for Inactive)
REMARK    1  A    between atoms: C_1  and  C_2
REMARK    2  A    between atoms: C_2  and  C_3
REMARK    3  A    between atoms: C_3  and  C_4
REMARK    4  A    between atoms: C_4  and  C_5
REMARK    5  A    between atoms: N_7  and  C_8
REMARK    6  A    between atoms: N_7  and  C_11
REMARK    7  A    between atoms: C_8  and  C_9
REMARK    8  A    between atoms: C_9  and  C_10
REMARK    9  A    between atoms: C_11  and  C_13
REMARK   10  A    between atoms: C_11  and  C_23
REMARK   11  A    between atoms: C_16  and  O_21
REMARK   12  A    between atoms: C_17  and  O_19
REMARK   13  A    between atoms: O_19  and  C_20
REMARK   14  A    between atoms: O_21  and  C_22
REMARK   15  A    between atoms: N_25  and  C_26
REMARK   16  A    between atoms: C_26  and  C_27
REMARK   17  A    between atoms: C_27  and  C_28
REMARK   18  A    between atoms: C_28  and  C_29
REMARK                            x       y       z     vdW  Elec       q    Type
REMARK                         _______ _______ _______ _____ _____    ______ ____
ROOT
ATOM      1  C   UNL     1      -2.003  -5.031  -0.069  0.00  0.00    +0.192 C 
ENDROOT
BRANCH   1   2
ATOM      2  C   UNL     1      -1.149  -4.408   1.004  0.00  0.00    -0.015 A 
ATOM      3  C   UNL     1      -1.173  -3.039   1.196  0.00  0.00    +0.010 A 
ATOM      4  C   UNL     1      -0.390  -2.462   2.180  0.00  0.00    +0.050 A 
ATOM      5  C   UNL     1       0.419  -3.256   2.975  0.00  0.00    +0.162 A 
ATOM      6  C   UNL     1       0.443  -4.634   2.782  0.00  0.00    +0.162 A 
ATOM      7  C   UNL     1      -0.347  -5.206   1.798  0.00  0.00    +0.055 A 
BRANCH   6   8
ATOM      8  O   UNL     1       1.236  -5.418   3.561  0.00  0.00    -0.491 OA
ATOM      9  C   UNL     1       1.210  -6.824   3.306  0.00  0.00    +0.277 C 
ENDBRANCH   6   8
BRANCH   5  10
ATOM     10  O   UNL     1       1.190  -2.691   3.943  0.00  0.00    -0.491 OA
ATOM     11  C   UNL     1       1.115  -1.271   4.084  0.00  0.00    +0.277 C 
ENDBRANCH   5  10
ENDBRANCH   1   2
BRANCH   1  12
ATOM     12  C   UNL     1      -1.284  -4.955  -1.391  0.00  0.00    +0.238 C 
ATOM     13  O   UNL     1      -1.172  -3.890  -1.961  0.00  0.00    -0.273 OA
ATOM     14  N   UNL     1      -0.764  -6.071  -1.941  0.00  0.00    -0.313 N 
ATOM     15  H   UNL     1      -0.853  -6.923  -1.485  0.00  0.00    +0.149 HD
BRANCH  14  16
ATOM     16  C   UNL     1      -0.065  -5.997  -3.226  0.00  0.00    +0.104 C 
BRANCH  16  17
ATOM     17  C   UNL     1       0.423  -7.392  -3.622  0.00  0.00    +0.018 C 
BRANCH  17  18
ATOM     18  C   UNL     1       1.154  -7.315  -4.964  0.00  0.00    -0.002 C 
ATOM     19  C   UNL     1       1.642  -8.710  -5.360  0.00  0.00    +0.004 C 
ENDBRANCH  17  18
ENDBRANCH  16  17
ENDBRANCH  14  16
ENDBRANCH   1  12
BRANCH   1  22
ATOM     20  C   UNL     1      -4.124  -4.302   0.883  0.00  0.00    +0.216 C 
ATOM     21  O   UNL     1      -5.212  -3.776   0.777  0.00  0.00    -0.276 OA
ATOM     22  N   UNL     1      -3.274  -4.308  -0.163  0.00  0.00    -0.286 N 
BRANCH  20  23
ATOM     23  C   UNL     1      -3.724  -4.949   2.184  0.00  0.00    +0.096 C 
BRANCH  23  24
ATOM     24  C   UNL     1      -4.835  -4.749   3.216  0.00  0.00    +0.009 C 
BRANCH  24  26
ATOM     25  C   UNL     1      -5.539  -5.206   5.569  0.00  0.00    +0.004 C 
ATOM     26  C   UNL     1      -4.428  -5.406   4.537  0.00  0.00    -0.003 C 
ENDBRANCH  24  26
ENDBRANCH  23  24
ENDBRANCH  20  23
BRANCH  22  27
ATOM     27  C   UNL     1      -3.621  -3.592  -1.393  0.00  0.00    +0.108 C 
BRANCH  27  28
ATOM     28  C   UNL     1      -3.197  -2.127  -1.267  0.00  0.00    +0.016 C 
ATOM     29  C   UNL     1      -3.629  -1.362  -2.520  0.00  0.00    +0.005 C 
ENDBRANCH  27  28
ENDBRANCH  22  27
ENDBRANCH   1  22
TORSDOF 13
