REMARK  Name = ZINC24779361
REMARK  9 active torsions:
REMARK  status: ('A' for Active; 'I' for Inactive)
REMARK    1  A    between atoms: C_1  and  C_2
REMARK    2  A    between atoms: C_5  and  N_9
REMARK    3  A    between atoms: C_13  and  S_14
REMARK    4  A    between atoms: S_14  and  C_15
REMARK    5  A    between atoms: C_15  and  C_17
REMARK    6  A    between atoms: C_15  and  C_18
REMARK    7  A    between atoms: N_20  and  C_21
REMARK    8  A    between atoms: C_24  and  S_27
REMARK    9  A    between atoms: S_27  and  N_30
REMARK                            x       y       z     vdW  Elec       q    Type
REMARK                         _______ _______ _______ _____ _____    ______ ____
ROOT
ATOM      1  C   UNL     1      -0.017   1.089   0.004  0.00  0.00    +0.137 C 
ATOM      2  C   UNL     1      -0.759   1.606  -1.230  0.00  0.00    +0.029 C 
ENDROOT
BRANCH   1   3
ATOM      3  C   UNL     1      -0.717   1.571   1.249  0.00  0.00    +0.230 C 
ATOM      4  O   UNL     1      -0.341   2.582   1.803  0.00  0.00    -0.274 OA
ATOM      5  N   UNL     1      -1.761   0.878   1.746  0.00  0.00    -0.285 N 
ATOM      6  H   UNL     1      -2.150   0.005   1.202  0.00  0.00    +0.155 HD
BRANCH   5   7
ATOM      7  C   UNL     1      -2.349   1.270   2.953  0.00  0.00    +0.034 A 
ATOM      8  C   UNL     1      -2.852   0.313   3.825  0.00  0.00    +0.025 A 
ATOM      9  C   UNL     1      -3.427   0.702   5.019  0.00  0.00    +0.030 A 
ATOM     10  C   UNL     1      -3.513   2.044   5.341  0.00  0.00    +0.105 A 
ATOM     11  C   UNL     1      -3.019   3.000   4.473  0.00  0.00    +0.030 A 
ATOM     12  C   UNL     1      -2.437   2.617   3.280  0.00  0.00    +0.025 A 
BRANCH  10  13
ATOM     13  S   UNL     1      -4.253   2.537   6.862  0.00  0.00    +0.056 S 
ATOM     14  O   UNL     1      -4.145   1.429   7.745  0.00  0.00    -0.153 OA
ATOM     15  O   UNL     1      -3.721   3.816   7.177  0.00  0.00    -0.153 OA
BRANCH  13  16
ATOM     16  N   UNL     1      -5.869   2.756   6.572  0.00  0.00    -0.204 NA
ATOM     17  H   UNL     1      -6.370   3.065   7.501  0.00  0.00    +0.144 HD
ATOM     18  H   UNL     1      -6.309   1.812   6.216  0.00  0.00    +0.144 HD
ENDBRANCH  13  16
ENDBRANCH  10  13
ENDBRANCH   5   7
ENDBRANCH   1   3
BRANCH   1  19
ATOM     19  S   UNL     1       1.683   1.710  -0.010  0.00  0.00    -0.073 S 
BRANCH  19  24
ATOM     20  N   UNL     1       3.556   0.996  -1.966  0.00  0.00    -0.277 N 
ATOM     21  C   UNL     1       3.566   0.191  -3.075  0.00  0.00    +0.230 A 
ATOM     22  N   UNL     1       2.376  -0.330  -3.186  0.00  0.00    -0.137 NA
ATOM     23  N   UNL     1       1.622   0.081  -2.230  0.00  0.00    -0.122 NA
ATOM     24  C   UNL     1       2.294   0.895  -1.449  0.00  0.00    +0.197 A 
BRANCH  20  29
ATOM     25  C   UNL     1       7.858   4.097   0.059  0.00  0.00    +0.045 C 
ATOM     26  C   UNL     1       6.716   3.273  -0.478  0.00  0.00    -0.032 A 
ATOM     27  C   UNL     1       5.476   3.853  -0.666  0.00  0.00    +0.007 A 
ATOM     28  C   UNL     1       4.428   3.103  -1.164  0.00  0.00    +0.026 A 
ATOM     29  C   UNL     1       4.619   1.761  -1.466  0.00  0.00    +0.051 A 
ATOM     30  C   UNL     1       5.865   1.180  -1.276  0.00  0.00    +0.046 A 
ATOM     31  C   UNL     1       6.911   1.937  -0.783  0.00  0.00    +0.046 A 
ATOM     32 CL   UNL     1       8.471   1.212  -0.546  0.00  0.00    -0.083 Cl
ENDBRANCH  20  29
ENDBRANCH  19  24
ENDBRANCH   1  19
TORSDOF 7
