REMARK  Name = ZINC39210287
REMARK  5 active torsions:
REMARK  status: ('A' for Active; 'I' for Inactive)
REMARK    1  A    between atoms: C_4  and  C_7
REMARK    2  A    between atoms: C_12  and  C_20
REMARK    3  A    between atoms: C_14  and  C_18
REMARK    4  A    between atoms: C_15  and  N_17
REMARK    5  A    between atoms: C_25  and  C_26
REMARK                            x       y       z     vdW  Elec       q    Type
REMARK                         _______ _______ _______ _____ _____    ______ ____
ROOT
ATOM      1  C   UNL     1       3.510  -1.471  -0.769  0.00  0.00    +0.034 C 
ATOM      2  C   UNL     1       3.884  -2.260  -2.025  0.00  0.00    +0.083 C 
ATOM      3  C   UNL     1       5.266  -2.848  -1.863  0.00  0.00    +0.115 C 
ATOM      4  C   UNL     1       5.724  -3.204  -0.649  0.00  0.00    +0.042 C 
ATOM      5  C   UNL     1       7.102  -3.799  -0.492  0.00  0.00    +0.085 C 
ATOM      6  C   UNL     1       7.606  -4.301  -1.815  0.00  0.00    +0.095 C 
ATOM      7  C   UNL     1       7.042  -3.878  -2.972  0.00  0.00    +0.198 C 
ATOM      8  O   UNL     1       6.023  -3.002  -2.967  0.00  0.00    -0.445 OA
ATOM      9  C   UNL     1       4.939  -3.030   0.508  0.00  0.00    +0.164 C 
ATOM     10  O   UNL     1       5.379  -3.381   1.584  0.00  0.00    -0.292 OA
ATOM     11  C   UNL     1       3.568  -2.414   0.437  0.00  0.00    +0.088 C 
ENDROOT
BRANCH   1  15
ATOM     12  C   UNL     1      -0.443   0.093  -1.181  0.00  0.00    +0.000 A 
ATOM     13  C   UNL     1       0.623   0.952  -0.990  0.00  0.00    +0.000 A 
ATOM     14  C   UNL     1       1.902   0.446  -0.856  0.00  0.00    +0.004 A 
ATOM     15  C   UNL     1       2.115  -0.919  -0.914  0.00  0.00    -0.043 A 
ATOM     16  C   UNL     1       1.049  -1.778  -1.105  0.00  0.00    +0.004 A 
ATOM     17  C   UNL     1      -0.230  -1.271  -1.240  0.00  0.00    +0.000 A 
ENDBRANCH   1  15
BRANCH   5  18
ATOM     18  C   UNL     1       8.058  -2.730   0.039  0.00  0.00    +0.096 C 
ATOM     19  C   UNL     1       8.351  -1.697  -1.031  0.00  0.00    +0.118 C 
ATOM     20  N   UNL     1       9.624  -1.754  -1.247  0.00  0.00    -0.161 NA
ATOM     21  N   UNL     1      10.257  -2.707  -0.454  0.00  0.00    -0.153 NA
ATOM     22  C   UNL     1       9.419  -3.329   0.335  0.00  0.00    +0.080 C 
BRANCH  22  23
ATOM     23  C   UNL     1       9.729  -4.389   1.306  0.00  0.00    -0.001 A 
ATOM     24  C   UNL     1       8.737  -4.861   2.172  0.00  0.00    +0.012 A 
ATOM     25  C   UNL     1       9.034  -5.854   3.080  0.00  0.00    +0.039 A 
ATOM     26  C   UNL     1      10.314  -6.386   3.136  0.00  0.00    +0.123 A 
ATOM     27  C   UNL     1      11.302  -5.923   2.280  0.00  0.00    +0.039 A 
ATOM     28  C   UNL     1      11.016  -4.934   1.364  0.00  0.00    +0.012 A 
ATOM     29  F   UNL     1      10.599  -7.359   4.028  0.00  0.00    -0.205 F 
ENDBRANCH  22  23
ENDBRANCH   5  18
BRANCH   7  30
ATOM     30  N   UNL     1       7.519  -4.351  -4.169  0.00  0.00    -0.328 N 
ATOM     31  H   UNL     1       8.255  -4.983  -4.182  0.00  0.00    +0.145 HD
ATOM     32  H   UNL     1       7.121  -4.053  -5.002  0.00  0.00    +0.145 HD
ENDBRANCH   7  30
BRANCH   6  33
ATOM     33  C   UNL     1       8.693  -5.234  -1.854  0.00  0.00    +0.100 C 
ATOM     34  N   UNL     1       9.554  -5.973  -1.885  0.00  0.00    -0.191 NA
ENDBRANCH   6  33
TORSDOF 5
