REMARK  Name = ZINC03273026
REMARK  8 active torsions:
REMARK  status: ('A' for Active; 'I' for Inactive)
REMARK    1  A    between atoms: C_3  and  S_23
REMARK    2  A    between atoms: C_6  and  N_7
REMARK    3  A    between atoms: N_7  and  C_8
REMARK    4  A    between atoms: C_8  and  N_10
REMARK    5  A    between atoms: N_10  and  N_11
REMARK    6  A    between atoms: C_12  and  C_13
REMARK    7  A    between atoms: C_17  and  N_19
REMARK    8  A    between atoms: S_23  and  N_26
REMARK                            x       y       z     vdW  Elec       q    Type
REMARK                         _______ _______ _______ _____ _____    ______ ____
ROOT
ATOM      1  N   UNL     1      -3.077   3.043   4.819  0.00  0.00    -0.296 N 
ATOM      2  H   UNL     1      -3.588   3.868   4.813  0.00  0.00    +0.154 HD
ENDROOT
BRANCH   1   8
ATOM      3  C   UNL     1      -2.372   1.325   3.275  0.00  0.00    +0.025 A 
ATOM      4  C   UNL     1      -1.667   0.944   2.150  0.00  0.00    +0.030 A 
ATOM      5  C   UNL     1      -0.954   1.883   1.428  0.00  0.00    +0.106 A 
ATOM      6  C   UNL     1      -0.939   3.205   1.832  0.00  0.00    +0.030 A 
ATOM      7  C   UNL     1      -1.647   3.594   2.953  0.00  0.00    +0.025 A 
ATOM      8  C   UNL     1      -2.364   2.654   3.680  0.00  0.00    +0.033 A 
BRANCH   5   9
ATOM      9  S   UNL     1      -0.056   1.392  -0.006  0.00  0.00    +0.061 S 
ATOM     10  O   UNL     1       0.219   0.006   0.141  0.00  0.00    -0.153 OA
ATOM     11  O   UNL     1       0.971   2.357  -0.193  0.00  0.00    -0.153 OA
BRANCH   9  12
ATOM     12  N   UNL     1      -1.081   1.536  -1.299  0.00  0.00    -0.172 NA
ATOM     13  C   UNL     1      -1.926   0.409  -1.725  0.00  0.00    +0.137 C 
ATOM     14  C   UNL     1      -3.371   0.917  -1.857  0.00  0.00    +0.177 C 
ATOM     15  O   UNL     1      -3.386   2.074  -2.697  0.00  0.00    -0.377 OA
ATOM     16  C   UNL     1      -2.647   3.183  -2.179  0.00  0.00    +0.177 C 
ATOM     17  C   UNL     1      -1.169   2.793  -2.059  0.00  0.00    +0.137 C 
ENDBRANCH   9  12
ENDBRANCH   5   9
ENDBRANCH   1   8
BRANCH   1  18
ATOM     18  C   UNL     1      -3.055   2.273   5.924  0.00  0.00    +0.154 C 
ATOM     19  S   UNL     1      -2.044   0.893   5.986  0.00  0.00    -0.017 S 
BRANCH  18  20
ATOM     20  N   UNL     1      -3.830   2.588   6.981  0.00  0.00    -0.218 N 
ATOM     21  H   UNL     1      -3.814   2.034   7.777  0.00  0.00    +0.176 HD
BRANCH  20  22
ATOM     22  N   UNL     1      -4.657   3.718   6.931  0.00  0.00    -0.188 NA
ATOM     23  C   UNL     1      -5.403   4.022   7.949  0.00  0.00    +0.142 C 
BRANCH  23  24
ATOM     24  C   UNL     1      -6.274   5.210   7.896  0.00  0.00    +0.045 A 
ATOM     25  C   UNL     1      -7.078   5.540   8.989  0.00  0.00    +0.033 A 
ATOM     26  C   UNL     1      -7.891   6.654   8.933  0.00  0.00    +0.044 A 
ATOM     27  C   UNL     1      -7.913   7.446   7.796  0.00  0.00    +0.056 A 
ATOM     28  C   UNL     1      -7.121   7.128   6.708  0.00  0.00    +0.175 A 
ATOM     29  C   UNL     1      -6.295   6.017   6.750  0.00  0.00    +0.218 A 
ATOM     30 CL   UNL     1      -8.890   7.065  10.291  0.00  0.00    -0.083 Cl
ATOM     31  O   UNL     1      -5.513   5.708   5.684  0.00  0.00    -0.285 OA
BRANCH  28  32
ATOM     32  N   UNL     1      -7.151   7.981   5.498  0.00  0.00    +0.060 N 
ATOM     33  O   UNL     1      -7.873   8.961   5.462  0.00  0.00    -0.126 OA
ATOM     34  O   UNL     1      -6.454   7.702   4.539  0.00  0.00    -0.126 OA
ENDBRANCH  28  32
ENDBRANCH  23  24
ENDBRANCH  20  22
ENDBRANCH  18  20
ENDBRANCH   1  18
TORSDOF 8
