REMARK  Name = ZINC09466076
REMARK  8 active torsions:
REMARK  status: ('A' for Active; 'I' for Inactive)
REMARK    1  A    between atoms: C_6  and  C_7
REMARK    2  A    between atoms: C_10  and  N_24
REMARK    3  A    between atoms: N_13  and  C_14
REMARK    4  A    between atoms: C_17  and  S_20
REMARK    5  A    between atoms: S_20  and  N_23
REMARK    6  A    between atoms: N_24  and  C_25
REMARK    7  A    between atoms: C_28  and  S_31
REMARK    8  A    between atoms: S_31  and  N_34
REMARK                            x       y       z     vdW  Elec       q    Type
REMARK                         _______ _______ _______ _____ _____    ______ ____
ROOT
ATOM      1  C   UNL     1      -0.074   0.863  -0.326  0.00  0.00    +0.137 C 
ATOM      2  C   UNL     1       1.270   1.527  -0.139  0.00  0.00    +0.029 C 
ATOM      3  C   UNL     1       2.190   0.559  -0.167  0.00  0.00    +0.093 C 
ATOM      4  C   UNL     1       1.532  -0.742  -0.365  0.00  0.00    +0.265 C 
ATOM      5  O   UNL     1       2.106  -1.811  -0.434  0.00  0.00    -0.268 OA
ATOM      6  N   UNL     1       0.200  -0.573  -0.461  0.00  0.00    -0.255 N 
ENDROOT
BRANCH   1  12
ATOM      7  C   UNL     1      -0.741   0.405   2.042  0.00  0.00    +0.007 A 
ATOM      8  C   UNL     1      -1.540   0.639   3.145  0.00  0.00    +0.020 A 
ATOM      9  C   UNL     1      -2.556   1.576   3.077  0.00  0.00    +0.041 A 
ATOM     10  C   UNL     1      -2.767   2.283   1.907  0.00  0.00    +0.020 A 
ATOM     11  C   UNL     1      -1.964   2.052   0.806  0.00  0.00    +0.007 A 
ATOM     12  C   UNL     1      -0.949   1.115   0.875  0.00  0.00    -0.023 A 
ATOM     13 CL   UNL     1      -3.565   1.865   4.460  0.00  0.00    -0.084 Cl
ENDBRANCH   1  12
BRANCH   6  14
ATOM     14  C   UNL     1      -0.750  -1.581  -0.651  0.00  0.00    +0.038 A 
ATOM     15  C   UNL     1      -2.100  -1.262  -0.725  0.00  0.00    +0.025 A 
ATOM     16  C   UNL     1      -3.034  -2.260  -0.919  0.00  0.00    +0.030 A 
ATOM     17  C   UNL     1      -2.629  -3.577  -1.029  0.00  0.00    +0.105 A 
ATOM     18  C   UNL     1      -1.286  -3.899  -0.951  0.00  0.00    +0.030 A 
ATOM     19  C   UNL     1      -0.346  -2.906  -0.762  0.00  0.00    +0.025 A 
BRANCH  17  20
ATOM     20  S   UNL     1      -3.826  -4.848  -1.270  0.00  0.00    +0.056 S 
ATOM     21  O   UNL     1      -4.963  -4.229  -1.854  0.00  0.00    -0.153 OA
ATOM     22  O   UNL     1      -3.147  -5.933  -1.887  0.00  0.00    -0.153 OA
BRANCH  20  23
ATOM     23  N   UNL     1      -4.291  -5.373   0.230  0.00  0.00    -0.204 NA
ATOM     24  H   UNL     1      -3.903  -4.975   1.025  0.00  0.00    +0.144 HD
ATOM     25  H   UNL     1      -4.951  -6.078   0.314  0.00  0.00    +0.144 HD
ENDBRANCH  20  23
ENDBRANCH  17  20
ENDBRANCH   6  14
BRANCH   3  26
ATOM     26  N   UNL     1       3.568   0.752  -0.028  0.00  0.00    -0.311 N 
ATOM     27  H   UNL     1       4.044   1.323  -0.652  0.00  0.00    +0.152 HD
BRANCH  26  28
ATOM     28  C   UNL     1       4.261   0.124   1.010  0.00  0.00    +0.032 A 
ATOM     29  C   UNL     1       3.563  -0.550   2.004  0.00  0.00    +0.025 A 
ATOM     30  C   UNL     1       4.251  -1.175   3.026  0.00  0.00    +0.030 A 
ATOM     31  C   UNL     1       5.633  -1.121   3.065  0.00  0.00    +0.105 A 
ATOM     32  C   UNL     1       6.330  -0.446   2.080  0.00  0.00    +0.030 A 
ATOM     33  C   UNL     1       5.649   0.176   1.053  0.00  0.00    +0.025 A 
BRANCH  31  34
ATOM     34  S   UNL     1       6.506  -1.914   4.374  0.00  0.00    +0.056 S 
ATOM     35  O   UNL     1       5.654  -2.938   4.869  0.00  0.00    -0.153 OA
ATOM     36  O   UNL     1       7.814  -2.181   3.886  0.00  0.00    -0.153 OA
BRANCH  34  37
ATOM     37  N   UNL     1       6.673  -0.806   5.593  0.00  0.00    -0.204 NA
ATOM     38  H   UNL     1       6.312   0.088   5.489  0.00  0.00    +0.144 HD
ATOM     39  H   UNL     1       7.131  -1.052   6.412  0.00  0.00    +0.144 HD
ENDBRANCH  34  37
ENDBRANCH  31  34
ENDBRANCH  26  28
ENDBRANCH   3  26
TORSDOF 8
