REMARK  Name = ZINC01269778
REMARK  7 active torsions:
REMARK  status: ('A' for Active; 'I' for Inactive)
REMARK    1  A    between atoms: C_1  and  C_2
REMARK    2  A    between atoms: C_2  and  C_38
REMARK    3  A    between atoms: C_6  and  N_30
REMARK    4  A    between atoms: C_10  and  N_22
REMARK    5  A    between atoms: C_11  and  C_13
REMARK    6  A    between atoms: C_13  and  C_15
REMARK    7  A    between atoms: C_23  and  C_25
REMARK                            x       y       z     vdW  Elec       q    Type
REMARK                         _______ _______ _______ _____ _____    ______ ____
ROOT
ATOM      1  C   UNL     1      -3.364   3.564  -1.806  0.00  0.00    +0.041 C 
ATOM      2  C   UNL     1      -2.219   2.563  -1.641  0.00  0.00    +0.068 C 
ATOM      3  C   UNL     1      -2.754   1.262  -1.040  0.00  0.00    +0.070 C 
ATOM      4  C   UNL     1      -3.115   1.481   0.405  0.00  0.00    -0.025 A 
ATOM      5  C   UNL     1      -2.666   2.554   1.105  0.00  0.00    +0.022 A 
ATOM      6  C   UNL     1      -3.023   2.711   2.451  0.00  0.00    +0.128 A 
ATOM      7  N   UNL     1      -3.800   1.822   3.049  0.00  0.00    -0.224 NA
ATOM      8  C   UNL     1      -4.259   0.772   2.403  0.00  0.00    +0.113 A 
ATOM      9  C   UNL     1      -3.953   0.528   1.045  0.00  0.00    +0.033 A 
ATOM     10  C   UNL     1      -4.543  -0.676   0.486  0.00  0.00    +0.061 A 
ATOM     11  C   UNL     1      -5.331  -1.461   1.306  0.00  0.00    +0.083 A 
ATOM     12  S   UNL     1      -5.299  -0.591   2.862  0.00  0.00    -0.063 S 
ATOM     13  C   UNL     1      -1.787   3.598   0.465  0.00  0.00    +0.199 C 
ATOM     14  O   UNL     1      -1.233   3.100  -0.752  0.00  0.00    -0.369 OA
ATOM     15  C   UNL     1      -1.584   2.279  -3.004  0.00  0.00    +0.041 C 
ENDROOT
BRANCH   6  16
ATOM     16  N   UNL     1      -2.557   3.806   3.162  0.00  0.00    -0.310 N 
ATOM     17  C   UNL     1      -3.276   5.090   3.133  0.00  0.00    +0.134 C 
ATOM     18  C   UNL     1      -3.486   5.559   4.577  0.00  0.00    +0.178 C 
ATOM     19  O   UNL     1      -2.231   5.550   5.262  0.00  0.00    -0.377 OA
ATOM     20  C   UNL     1      -1.634   4.256   5.372  0.00  0.00    +0.178 C 
ATOM     21  C   UNL     1      -1.332   3.718   3.973  0.00  0.00    +0.134 C 
ENDBRANCH   6  16
BRANCH  10  22
ATOM     22  N   UNL     1      -4.320  -1.030  -0.838  0.00  0.00    -0.277 N 
ATOM     23  C   UNL     1      -5.311  -0.907  -1.744  0.00  0.00    +0.284 C 
ATOM     24  O   UNL     1      -6.388  -0.450  -1.409  0.00  0.00    -0.266 OA
ATOM     25  H   UNL     1      -3.452  -1.365  -1.112  0.00  0.00    +0.155 HD
BRANCH  23  26
ATOM     26  C   UNL     1      -5.091  -1.324  -3.132  0.00  0.00    +0.189 A 
ATOM     27  C   UNL     1      -6.002  -1.249  -4.147  0.00  0.00    +0.054 A 
ATOM     28  C   UNL     1      -5.371  -1.753  -5.294  0.00  0.00    +0.042 A 
ATOM     29  C   UNL     1      -4.117  -2.108  -4.935  0.00  0.00    +0.196 A 
ATOM     30  O   UNL     1      -3.951  -1.843  -3.633  0.00  0.00    -0.458 OA
ENDBRANCH  23  26
ENDBRANCH  10  22
BRANCH  11  31
ATOM     31  C   UNL     1      -6.003  -2.665   0.988  0.00  0.00    +0.202 C 
ATOM     32  O   UNL     1      -7.083  -2.629   0.425  0.00  0.00    -0.286 OA
BRANCH  31  33
ATOM     33  C   UNL     1      -5.394  -3.966   1.338  0.00  0.00    +0.023 A 
ATOM     34  C   UNL     1      -4.107  -4.016   1.878  0.00  0.00    +0.013 A 
ATOM     35  C   UNL     1      -3.545  -5.232   2.203  0.00  0.00    +0.021 A 
ATOM     36  C   UNL     1      -4.254  -6.404   1.994  0.00  0.00    +0.041 A 
ATOM     37  C   UNL     1      -5.531  -6.361   1.458  0.00  0.00    +0.021 A 
ATOM     38  C   UNL     1      -6.106  -5.150   1.135  0.00  0.00    +0.013 A 
ATOM     39 CL   UNL     1      -3.539  -7.931   2.405  0.00  0.00    -0.084 Cl
ENDBRANCH  31  33
ENDBRANCH  11  31
TORSDOF 5
