REMARK  Name = ZINC49633560
REMARK  7 active torsions:
REMARK  status: ('A' for Active; 'I' for Inactive)
REMARK    1  A    between atoms: C_1  and  N_2
REMARK    2  A    between atoms: N_2  and  C_3
REMARK    3  A    between atoms: N_2  and  C_6
REMARK    4  A    between atoms: C_3  and  C_4
REMARK    5  A    between atoms: C_4  and  O_5
REMARK    6  A    between atoms: C_6  and  C_7
REMARK    7  A    between atoms: N_9  and  C_10
REMARK                            x       y       z     vdW  Elec       q    Type
REMARK                         _______ _______ _______ _____ _____    ______ ____
ROOT
ATOM      1  C   UNL     1       2.136   0.554   2.468  0.00  0.00    +0.201 C 
ATOM      2  O   UNL     1       2.542   1.654   2.778  0.00  0.00    -0.278 OA
ATOM      3  N   UNL     1       3.008  -0.409   2.111  0.00  0.00    -0.285 N 
ATOM      4  H   UNL     1       2.691  -1.309   1.933  0.00  0.00    +0.155 HD
ENDROOT
BRANCH   3   5
ATOM      5  C   UNL     1       4.371  -0.112   1.995  0.00  0.00    +0.062 A 
ATOM      6  C   UNL     1       5.213  -0.273   3.088  0.00  0.00    +0.041 A 
ATOM      7  C   UNL     1       6.559   0.021   2.971  0.00  0.00    +0.032 A 
ATOM      8  C   UNL     1       7.067   0.475   1.767  0.00  0.00    +0.020 A 
ATOM      9  C   UNL     1       6.231   0.636   0.677  0.00  0.00    +0.032 A 
ATOM     10  C   UNL     1       4.886   0.338   0.786  0.00  0.00    +0.041 A 
ATOM     11 BR   UNL     1       3.745   0.550  -0.707  0.00  0.00    -0.048 Br
ATOM     12 BR   UNL     1       8.909   0.876   1.612  0.00  0.00    -0.050 Br
ATOM     13 BR   UNL     1       4.519  -0.891   4.735  0.00  0.00    -0.048 Br
ENDBRANCH   3   5
BRANCH   1  14
ATOM     14  C   UNL     1       0.657   0.265   2.483  0.00  0.00    +0.019 C 
BRANCH  14  16
ATOM     15  C   UNL     1       0.274   1.789   4.295  0.00  0.00    -0.095 C 
ATOM     16  N   UNL     1      -0.073   1.468   2.904  0.00  0.00    +0.385 N 
ATOM     17  H   UNL     1       0.179   2.241   2.307  0.00  0.00    -0.081 HD
BRANCH  16  18
ATOM     18  C   UNL     1      -1.518   1.223   2.804  0.00  0.00    -0.050 C 
BRANCH  18  19
ATOM     19  C   UNL     1      -2.277   2.513   3.122  0.00  0.00    +0.137 C 
BRANCH  19  20
ATOM     20  O   UNL     1      -1.989   3.494   2.124  0.00  0.00    -0.397 OA
ATOM     21  H   UNL     1      -2.437   4.339   2.262  0.00  0.00    +0.209 HD
ENDBRANCH  19  20
ENDBRANCH  18  19
ENDBRANCH  16  18
ENDBRANCH  14  16
ENDBRANCH   1  14
TORSDOF 6
