REMARK  Name = ZINC00816098
REMARK  5 active torsions:
REMARK  status: ('A' for Active; 'I' for Inactive)
REMARK    1  A    between atoms: C_1  and  C_2
REMARK    2  A    between atoms: C_2  and  C_29
REMARK    3  A    between atoms: C_6  and  C_18
REMARK    4  A    between atoms: C_21  and  S_24
REMARK    5  A    between atoms: S_24  and  C_25
REMARK                            x       y       z     vdW  Elec       q    Type
REMARK                         _______ _______ _______ _____ _____    ______ ____
ROOT
ATOM      1  C   UNL     1       4.565   3.201  -3.182  0.00  0.00    +0.011 C 
ATOM      2  C   UNL     1       5.460   3.451  -1.966  0.00  0.00    -0.023 C 
ATOM      3  C   UNL     1       4.656   4.155  -0.872  0.00  0.00    +0.058 C 
ATOM      4  C   UNL     1       3.509   3.275  -0.440  0.00  0.00    +0.016 C 
ATOM      5  C   UNL     1       3.615   1.928  -0.472  0.00  0.00    +0.024 C 
ATOM      6  C   UNL     1       2.485   1.042  -0.012  0.00  0.00    +0.086 C 
ATOM      7  C   UNL     1       1.178   1.782   0.000  0.00  0.00    -0.011 A 
ATOM      8  C   UNL     1      -0.013   1.076   0.008  0.00  0.00    +0.056 A 
ATOM      9  C   UNL     1      -1.222   1.749   0.017  0.00  0.00    +0.167 A 
ATOM     10  C   UNL     1      -1.244   3.142   0.033  0.00  0.00    +0.168 A 
ATOM     11  C   UNL     1      -0.054   3.849   0.025  0.00  0.00    +0.073 A 
ATOM     12  C   UNL     1       1.157   3.169   0.007  0.00  0.00    +0.039 A 
ATOM     13  N   UNL     1       2.361   3.877  -0.011  0.00  0.00    -0.317 N 
ATOM     14  O   UNL     1      -2.543   3.559   0.048  0.00  0.00    -0.453 OA
ATOM     15  C   UNL     1      -3.311   2.412   0.459  0.00  0.00    +0.466 C 
ATOM     16  O   UNL     1      -2.510   1.294   0.031  0.00  0.00    -0.453 OA
ATOM     17  C   UNL     1       4.787   1.307  -0.934  0.00  0.00    +0.162 C 
ATOM     18  O   UNL     1       4.853   0.093  -0.947  0.00  0.00    -0.292 OA
ATOM     19  C   UNL     1       5.963   2.113  -1.414  0.00  0.00    +0.086 C 
ATOM     20  C   UNL     1       6.649   4.323  -2.374  0.00  0.00    +0.011 C 
ATOM     21  H   UNL     1       2.381   4.801   0.282  0.00  0.00    +0.152 HD
ENDROOT
BRANCH   6  22
ATOM     22  C   UNL     1       2.784   0.545   1.379  0.00  0.00    -0.035 A 
ATOM     23  C   UNL     1       2.917   1.446   2.419  0.00  0.00    +0.005 A 
ATOM     24  C   UNL     1       3.186   0.993   3.696  0.00  0.00    +0.015 A 
ATOM     25  C   UNL     1       3.332  -0.369   3.932  0.00  0.00    +0.008 A 
ATOM     26  C   UNL     1       3.203  -1.270   2.883  0.00  0.00    +0.015 A 
ATOM     27  C   UNL     1       2.929  -0.811   1.610  0.00  0.00    +0.005 A 
BRANCH  25  28
ATOM     28  S   UNL     1       3.682  -0.950   5.558  0.00  0.00    -0.129 S 
ATOM     29  C   UNL     1       3.757   0.562   6.558  0.00  0.00    +0.090 C 
ENDBRANCH  25  28
ENDBRANCH   6  22
TORSDOF 2
