REMARK  Name = ZINC20117276
REMARK  10 active torsions:
REMARK  status: ('A' for Active; 'I' for Inactive)
REMARK    1  A    between atoms: C_1  and  N_2
REMARK    2  A    between atoms: C_3  and  C_32
REMARK    3  A    between atoms: C_5  and  C_19
REMARK    4  A    between atoms: C_9  and  O_17
REMARK    5  A    between atoms: C_10  and  O_15
REMARK    6  A    between atoms: O_15  and  C_16
REMARK    7  A    between atoms: O_17  and  C_18
REMARK    8  A    between atoms: N_21  and  C_22
REMARK    9  A    between atoms: C_35  and  S_38
REMARK   10  A    between atoms: S_38  and  C_39
REMARK                            x       y       z     vdW  Elec       q    Type
REMARK                         _______ _______ _______ _____ _____    ______ ____
ROOT
ATOM      1  C   UNL     1       0.174   1.097  -0.097  0.00  0.00    +0.133 C 
ATOM      2  N   UNL     1      -0.516   1.564   1.108  0.00  0.00    -0.292 N 
ATOM      3  C   UNL     1      -0.638   2.999   1.355  0.00  0.00    +0.122 C 
ATOM      4  C   UNL     1      -2.022   3.336   1.915  0.00  0.00    +0.131 C 
ATOM      5  C   UNL     1      -2.334   2.444   3.087  0.00  0.00    -0.018 A 
ATOM      6  C   UNL     1      -3.099   2.905   4.135  0.00  0.00    +0.054 A 
ATOM      7  C   UNL     1      -3.414   2.060   5.191  0.00  0.00    +0.162 A 
ATOM      8  C   UNL     1      -2.962   0.741   5.193  0.00  0.00    +0.162 A 
ATOM      9  C   UNL     1      -2.188   0.274   4.148  0.00  0.00    +0.062 A 
ATOM     10  C   UNL     1      -1.856   1.130   3.098  0.00  0.00    +0.045 A 
ATOM     11  C   UNL     1      -1.024   0.664   1.972  0.00  0.00    +0.247 C 
ATOM     12  O   UNL     1      -0.798  -0.521   1.825  0.00  0.00    -0.270 OA
ENDROOT
BRANCH   3  13
ATOM     13  C   UNL     1       0.417   3.422   2.344  0.00  0.00    -0.026 A 
ATOM     14  C   UNL     1       0.715   2.613   3.425  0.00  0.00    +0.006 A 
ATOM     15  C   UNL     1       1.685   2.995   4.330  0.00  0.00    +0.015 A 
ATOM     16  C   UNL     1       2.355   4.201   4.160  0.00  0.00    +0.008 A 
ATOM     17  C   UNL     1       2.050   5.014   3.075  0.00  0.00    +0.015 A 
ATOM     18  C   UNL     1       1.082   4.623   2.171  0.00  0.00    +0.006 A 
BRANCH  16  19
ATOM     19  S   UNL     1       3.588   4.697   5.316  0.00  0.00    -0.129 S 
ATOM     20  C   UNL     1       3.629   3.342   6.522  0.00  0.00    +0.090 C 
ENDBRANCH  16  19
ENDBRANCH   3  13
BRANCH   4  21
ATOM     21  C   UNL     1      -2.042   4.775   2.362  0.00  0.00    +0.227 C 
ATOM     22  O   UNL     1      -1.619   5.075   3.458  0.00  0.00    -0.275 OA
ATOM     23  N   UNL     1      -2.529   5.729   1.543  0.00  0.00    -0.285 N 
ATOM     24  H   UNL     1      -2.981   5.448   0.581  0.00  0.00    +0.155 HD
BRANCH  23  25
ATOM     25  C   UNL     1      -2.458   7.077   1.918  0.00  0.00    +0.037 A 
ATOM     26  C   UNL     1      -2.215   8.052   0.961  0.00  0.00    +0.027 A 
ATOM     27  C   UNL     1      -2.149   9.382   1.330  0.00  0.00    +0.051 A 
ATOM     28  C   UNL     1      -2.316   9.745   2.658  0.00  0.00    +0.162 A 
ATOM     29  C   UNL     1      -2.557   8.771   3.619  0.00  0.00    +0.164 A 
ATOM     30  C   UNL     1      -2.626   7.437   3.248  0.00  0.00    +0.072 A 
ATOM     31  O   UNL     1      -2.731   9.109   4.926  0.00  0.00    -0.485 OA
ATOM     32  C   UNL     1      -2.287  10.413   5.318  0.00  0.00    +0.270 C 
ATOM     33  C   UNL     1      -2.784  11.424   4.277  0.00  0.00    +0.270 C 
ATOM     34  O   UNL     1      -2.239  11.061   3.004  0.00  0.00    -0.485 OA
ENDBRANCH  23  25
ENDBRANCH   4  21
BRANCH   8  35
ATOM     35  O   UNL     1      -3.283  -0.086   6.224  0.00  0.00    -0.491 OA
ATOM     36  C   UNL     1      -2.786  -1.424   6.161  0.00  0.00    +0.277 C 
ENDBRANCH   8  35
BRANCH   7  37
ATOM     37  O   UNL     1      -4.165   2.520   6.225  0.00  0.00    -0.491 OA
ATOM     38  C   UNL     1      -4.595   3.881   6.159  0.00  0.00    +0.277 C 
ENDBRANCH   7  37
TORSDOF 6
