REMARK  Name = ZINC22920399
REMARK  4 active torsions:
REMARK  status: ('A' for Active; 'I' for Inactive)
REMARK    1  A    between atoms: C_6  and  N_7
REMARK    2  A    between atoms: C_11  and  N_15
REMARK    3  A    between atoms: N_19  and  C_22
REMARK    4  A    between atoms: N_27  and  C_30
REMARK                            x       y       z     vdW  Elec       q    Type
REMARK                         _______ _______ _______ _____ _____    ______ ____
ROOT
ATOM      1  N   UNL     1      -3.277  -3.152  -1.257  0.00  0.00    +0.389 N 
ATOM      2  C   UNL     1      -4.725  -3.453  -1.264  0.00  0.00    -0.076 C 
ATOM      3  C   UNL     1      -5.170  -3.666  -2.688  0.00  0.00    -0.003 C 
ATOM      4  C   UNL     1      -5.130  -5.151  -3.088  0.00  0.00    +0.083 C 
ATOM      5  N   UNL     1      -3.924  -5.839  -2.574  0.00  0.00    -0.293 NA
ATOM      6  C   UNL     1      -2.717  -5.052  -2.685  0.00  0.00    +0.066 C 
ATOM      7  C   UNL     1      -2.487  -4.301  -1.360  0.00  0.00    -0.062 C 
ATOM      8  H   UNL     1      -3.069  -2.542  -2.034  0.00  0.00    -0.081 HD
ENDROOT
BRANCH   1  13
ATOM      9  N   UNL     1      -1.542  -0.600   0.064  0.00  0.00    -0.212 N 
ATOM     10  C   UNL     1      -2.766  -0.070   0.179  0.00  0.00    +0.225 C 
ATOM     11  O   UNL     1      -3.011   1.112   0.290  0.00  0.00    -0.275 OA
ATOM     12  C   UNL     1      -3.794  -1.179   0.148  0.00  0.00    +0.090 C 
ATOM     13  C   UNL     1      -2.943  -2.456  -0.007  0.00  0.00    +0.029 C 
ATOM     14  C   UNL     1      -1.524  -1.934  -0.052  0.00  0.00    +0.213 C 
ATOM     15  O   UNL     1      -0.528  -2.615  -0.173  0.00  0.00    -0.277 OA
BRANCH   9  21
ATOM     16  C   UNL     1       0.384   0.287  -1.098  0.00  0.00    +0.027 A 
ATOM     17  C   UNL     1       1.532   1.054  -1.101  0.00  0.00    +0.040 A 
ATOM     18  C   UNL     1       1.928   1.714   0.051  0.00  0.00    +0.124 A 
ATOM     19  C   UNL     1       1.173   1.606   1.207  0.00  0.00    +0.040 A 
ATOM     20  C   UNL     1       0.024   0.840   1.213  0.00  0.00    +0.027 A 
ATOM     21  C   UNL     1      -0.375   0.178   0.060  0.00  0.00    +0.044 A 
ATOM     22  F   UNL     1       3.052   2.463   0.046  0.00  0.00    -0.205 F 
ENDBRANCH   9  21
ENDBRANCH   1  13
BRANCH   5  23
ATOM     23  C   UNL     1      -3.756  -7.153  -3.208  0.00  0.00    +0.153 C 
ATOM     24  C   UNL     1      -4.990  -8.042  -2.949  0.00  0.00    +0.125 C 
ATOM     25  C   UNL     1      -5.528  -8.315  -4.337  0.00  0.00    +0.228 C 
ATOM     26  O   UNL     1      -6.506  -8.985  -4.592  0.00  0.00    -0.275 OA
ATOM     27  N   UNL     1      -4.753  -7.700  -5.239  0.00  0.00    -0.209 N 
ATOM     28  C   UNL     1      -3.723  -7.017  -4.715  0.00  0.00    +0.244 C 
ATOM     29  O   UNL     1      -2.899  -6.389  -5.345  0.00  0.00    -0.273 OA
BRANCH  27  30
ATOM     30  C   UNL     1      -4.995  -7.765  -6.619  0.00  0.00    +0.044 A 
ATOM     31  C   UNL     1      -4.117  -8.450  -7.447  0.00  0.00    +0.027 A 
ATOM     32  C   UNL     1      -4.357  -8.513  -8.806  0.00  0.00    +0.040 A 
ATOM     33  C   UNL     1      -5.473  -7.894  -9.342  0.00  0.00    +0.124 A 
ATOM     34  C   UNL     1      -6.351  -7.210  -8.517  0.00  0.00    +0.040 A 
ATOM     35  C   UNL     1      -6.117  -7.150  -7.157  0.00  0.00    +0.027 A 
ATOM     36  F   UNL     1      -5.707  -7.956 -10.671  0.00  0.00    -0.205 F 
ENDBRANCH  27  30
ENDBRANCH   5  23
TORSDOF 4
