REMARK  Name = ZINC11093990
REMARK  10 active torsions:
REMARK  status: ('A' for Active; 'I' for Inactive)
REMARK    1  A    between atoms: C_1  and  C_2
REMARK    2  A    between atoms: C_5  and  N_9
REMARK    3  A    between atoms: C_10  and  C_12
REMARK    4  A    between atoms: C_12  and  C_14
REMARK    5  A    between atoms: C_12  and  N_54
REMARK    6  A    between atoms: C_15  and  C_17
REMARK    7  A    between atoms: C_15  and  C_27
REMARK    8  A    between atoms: C_15  and  N_54
REMARK    9  A    between atoms: C_27  and  C_28
REMARK   10  A    between atoms: C_27  and  C_29
REMARK                            x       y       z     vdW  Elec       q    Type
REMARK                         _______ _______ _______ _____ _____    ______ ____
ROOT
ATOM      1  N   UNL     1      -4.747   0.021   1.113  0.00  0.00    +0.391 N 
ATOM      2  H   UNL     1      -4.503   1.017   1.179  0.00  0.00    -0.084 HD
ATOM      3  H   UNL     1      -5.734  -0.072   0.845  0.00  0.00    -0.084 HD
ENDROOT
BRANCH   1   4
ATOM      4  C   UNL     1      -4.537  -0.618   2.426  0.00  0.00    +0.014 C 
ATOM      5  C   UNL     1      -5.352  -1.911   2.501  0.00  0.00    -0.004 C 
BRANCH   4   7
ATOM      6  N   UNL     1      -4.895  -0.044   4.806  0.00  0.00    -0.287 N 
ATOM      7  C   UNL     1      -4.988   0.324   3.513  0.00  0.00    +0.203 C 
ATOM      8  O   UNL     1      -5.435   1.414   3.223  0.00  0.00    -0.277 OA
ATOM      9  H   UNL     1      -4.462  -0.880   5.042  0.00  0.00    +0.155 HD
BRANCH   6  14
ATOM     10  C   UNL     1      -7.030   3.290   8.871  0.00  0.00    +0.047 C 
ATOM     11  C   UNL     1      -6.464   2.404   7.791  0.00  0.00    -0.015 A 
ATOM     12  C   UNL     1      -5.314   1.674   8.029  0.00  0.00    +0.008 A 
ATOM     13  C   UNL     1      -4.796   0.857   7.044  0.00  0.00    +0.024 A 
ATOM     14  C   UNL     1      -5.423   0.778   5.807  0.00  0.00    +0.036 A 
ATOM     15  C   UNL     1      -6.577   1.511   5.568  0.00  0.00    +0.062 A 
ATOM     16  C   UNL     1      -7.096   2.323   6.561  0.00  0.00    +0.128 A 
ATOM     17  F   UNL     1      -8.219   3.038   6.330  0.00  0.00    -0.205 F 
ENDBRANCH   6  14
ENDBRANCH   4   7
ENDBRANCH   1   4
BRANCH   1  18
ATOM     18  C   UNL     1      -3.901  -0.621   0.090  0.00  0.00    -0.037 C 
BRANCH  18  19
ATOM     19  C   UNL     1      -2.567   0.078   0.030  0.00  0.00    -0.057 A 
ATOM     20  C   UNL     1      -2.504   1.455   0.141  0.00  0.00    +0.006 A 
ATOM     21  C   UNL     1      -1.283   2.100   0.081  0.00  0.00    +0.049 A 
ATOM     22  C   UNL     1      -0.117   1.367  -0.082  0.00  0.00    +0.162 A 
ATOM     23  C   UNL     1      -0.181  -0.017  -0.191  0.00  0.00    +0.162 A 
ATOM     24  C   UNL     1      -1.409  -0.658  -0.136  0.00  0.00    +0.051 A 
ATOM     25  O   UNL     1       0.951  -0.756  -0.352  0.00  0.00    -0.485 OA
ATOM     26  C   UNL     1       2.123  -0.053  -0.779  0.00  0.00    +0.270 C 
ATOM     27  C   UNL     1       2.252   1.222   0.065  0.00  0.00    +0.270 C 
ATOM     28  O   UNL     1       1.078   2.016  -0.140  0.00  0.00    -0.485 OA
ENDBRANCH  18  19
BRANCH  18  29
ATOM     29  C   UNL     1      -4.593  -0.517  -1.271  0.00  0.00    -0.027 C 
ATOM     30  C   UNL     1      -3.766  -1.262  -2.321  0.00  0.00    +0.006 C 
ATOM     31  C   UNL     1      -5.987  -1.141  -1.183  0.00  0.00    +0.006 C 
ENDBRANCH  18  29
ENDBRANCH   1  18
TORSDOF 6
