REMARK  Name = ZINC01242915
REMARK  7 active torsions:
REMARK  status: ('A' for Active; 'I' for Inactive)
REMARK    1  A    between atoms: C_1  and  C_2
REMARK    2  A    between atoms: C_11  and  C_13
REMARK    3  A    between atoms: C_11  and  C_14
REMARK    4  A    between atoms: C_17  and  S_20
REMARK    5  A    between atoms: S_20  and  C_21
REMARK    6  A    between atoms: C_21  and  C_22
REMARK    7  A    between atoms: N_24  and  C_25
REMARK                            x       y       z     vdW  Elec       q    Type
REMARK                         _______ _______ _______ _____ _____    ______ ____
ROOT
ATOM      1  C   UNL     1      -3.589   3.627  -6.459  0.00  0.00    +0.086 C 
ATOM      2  C   UNL     1      -3.236   3.246  -5.044  0.00  0.00    +0.115 A 
ATOM      3  N   UNL     1      -2.078   2.703  -4.800  0.00  0.00    -0.226 NA
ATOM      4  C   UNL     1      -1.703   2.344  -3.575  0.00  0.00    +0.114 A 
ATOM      5  C   UNL     1      -2.528   2.524  -2.454  0.00  0.00    +0.056 A 
ATOM      6  C   UNL     1      -2.008   2.099  -1.209  0.00  0.00    -0.019 A 
ATOM      7  C   UNL     1      -0.766   1.556  -1.196  0.00  0.00    +0.021 A 
ATOM      8  S   UNL     1      -0.244   1.599  -2.887  0.00  0.00    -0.071 S 
ATOM      9  C   UNL     1      -0.031   1.044   0.003  0.00  0.00    +0.203 C 
ATOM     10  O   UNL     1      -0.722   1.507   1.175  0.00  0.00    -0.368 OA
ATOM     11  C   UNL     1      -2.135   1.288   1.127  0.00  0.00    +0.068 C 
ATOM     12  C   UNL     1      -2.782   2.225   0.102  0.00  0.00    +0.071 C 
ATOM     13  C   UNL     1      -2.736   1.555   2.508  0.00  0.00    +0.041 C 
ATOM     14  C   UNL     1      -2.405  -0.164   0.728  0.00  0.00    +0.041 C 
ATOM     15  C   UNL     1      -3.841   3.142  -2.743  0.00  0.00    +0.173 A 
ATOM     16  N   UNL     1      -4.137   3.479  -4.045  0.00  0.00    -0.258 N 
ATOM     17  C   UNL     1      -5.393   4.018  -4.004  0.00  0.00    +0.198 A 
ATOM     18  N   UNL     1      -5.788   3.990  -2.752  0.00  0.00    -0.122 NA
ATOM     19  N   UNL     1      -4.873   3.473  -2.007  0.00  0.00    -0.128 NA
ENDROOT
BRANCH  17  20
ATOM     20  S   UNL     1      -6.310   4.637  -5.376  0.00  0.00    -0.076 S 
BRANCH  20  21
ATOM     21  C   UNL     1      -7.872   5.198  -4.642  0.00  0.00    +0.173 C 
BRANCH  21  22
ATOM     22  C   UNL     1      -8.761   5.758  -5.722  0.00  0.00    +0.227 C 
ATOM     23  O   UNL     1      -8.380   5.776  -6.873  0.00  0.00    -0.275 OA
ATOM     24  N   UNL     1      -9.981   6.238  -5.408  0.00  0.00    -0.285 N 
ATOM     25  H   UNL     1     -10.313   6.162  -4.500  0.00  0.00    +0.155 HD
BRANCH  24  26
ATOM     26  C   UNL     1     -10.768   6.846  -6.393  0.00  0.00    +0.033 A 
ATOM     27  C   UNL     1     -11.592   7.914  -6.064  0.00  0.00    +0.024 A 
ATOM     28  C   UNL     1     -12.363   8.515  -7.038  0.00  0.00    +0.017 A 
ATOM     29  C   UNL     1     -12.325   8.047  -8.340  0.00  0.00    +0.018 A 
ATOM     30  C   UNL     1     -11.510   6.979  -8.669  0.00  0.00    +0.017 A 
ATOM     31  C   UNL     1     -10.732   6.377  -7.700  0.00  0.00    +0.024 A 
ATOM     32 BR   UNL     1     -13.388   8.869  -9.671  0.00  0.00    -0.050 Br
ENDBRANCH  24  26
ENDBRANCH  21  22
ENDBRANCH  20  21
ENDBRANCH  17  20
TORSDOF 4
