REMARK  Name = ZINC62541504
REMARK  3 active torsions:
REMARK  status: ('A' for Active; 'I' for Inactive)
REMARK    1  A    between atoms: C_1  and  C_2
REMARK    2  A    between atoms: C_10  and  C_15
REMARK    3  A    between atoms: C_15  and  N_16
REMARK                            x       y       z     vdW  Elec       q    Type
REMARK                         _______ _______ _______ _____ _____    ______ ____
ROOT
ATOM      1  C   UNL     1      -0.018   1.503   0.010  0.00  0.00    +0.044 C 
ATOM      2  C   UNL     1       0.002  -0.004   0.002  0.00  0.00    -0.047 A 
ATOM      3  C   UNL     1       0.006  -0.687  -1.201  0.00  0.00    +0.030 A 
ATOM      4  C   UNL     1       0.021  -2.072  -1.208  0.00  0.00    +0.077 A 
ATOM      5  C   UNL     1       0.051  -2.774  -0.004  0.00  0.00    +0.156 A 
ATOM      6  C   UNL     1       0.043  -2.084   1.196  0.00  0.00    +0.062 A 
ATOM      7  C   UNL     1       0.023  -0.700   1.196  0.00  0.00    +0.022 A 
ATOM      8 BR   UNL     1       0.067  -3.030   2.833  0.00  0.00    -0.046 Br
ATOM      9  O   UNL     1       0.109  -4.133  -0.017  0.00  0.00    -0.479 OA
ATOM     10  C   UNL     1      -0.539  -4.799  -1.103  0.00  0.00    +0.242 C 
ATOM     11  C   UNL     1      -0.188  -4.114  -2.400  0.00  0.00    +0.256 C 
ATOM     12  O   UNL     1      -0.092  -4.759  -3.423  0.00  0.00    -0.271 OA
ATOM     13  N   UNL     1       0.018  -2.780  -2.417  0.00  0.00    -0.280 N 
ATOM     14  H   UNL     1       0.163  -2.317  -3.257  0.00  0.00    +0.155 HD
ENDROOT
BRANCH  10  15
ATOM     15  C   UNL     1      -2.055  -4.752  -0.897  0.00  0.00    -0.032 C 
BRANCH  15  16
ATOM     16  N   UNL     1      -2.398  -5.422   0.364  0.00  0.00    +0.381 N 
ATOM     17  H   UNL     1      -2.093  -6.383   0.329  0.00  0.00    -0.090 HD
ATOM     18  H   UNL     1      -1.940  -4.952   1.131  0.00  0.00    -0.090 HD
ATOM     19  H   UNL     1      -3.397  -5.392   0.500  0.00  0.00    -0.090 HD
ENDBRANCH  15  16
ENDBRANCH  10  15
TORSDOF 2
