REMARK  Name = ZINC03250838
REMARK  6 active torsions:
REMARK  status: ('A' for Active; 'I' for Inactive)
REMARK    1  A    between atoms: C_1  and  C_2
REMARK    2  A    between atoms: C_7  and  N_8
REMARK    3  A    between atoms: C_12  and  S_14
REMARK    4  A    between atoms: S_14  and  C_15
REMARK    5  A    between atoms: C_15  and  C_16
REMARK    6  A    between atoms: N_18  and  C_19
REMARK                            x       y       z     vdW  Elec       q    Type
REMARK                         _______ _______ _______ _____ _____    ______ ____
ROOT
ATOM      1  S   UNL     1       4.142  -4.813  -0.423  0.00  0.00    -0.088 S 
ENDROOT
BRANCH   1   6
ATOM      2  N   UNL     1       4.545 -10.579  -0.888  0.00  0.00    -0.292 N 
ATOM      3  C   UNL     1       4.207  -9.235  -0.767  0.00  0.00    +0.187 A 
ATOM      4  N   UNL     1       3.016  -8.680  -0.663  0.00  0.00    -0.125 NA
ATOM      5  N   UNL     1       2.906  -7.313  -0.546  0.00  0.00    -0.133 NA
ATOM      6  C   UNL     1       3.992  -6.564  -0.550  0.00  0.00    +0.160 A 
ATOM      7  S   UNL     1       5.271  -7.801  -0.711  0.00  0.00    -0.024 S 
ATOM      8  H   UNL     1       5.478 -10.847  -0.883  0.00  0.00    +0.154 HD
BRANCH   2  15
ATOM      9  C   UNL     1       5.325 -13.272  -1.373  0.00  0.00    +0.045 C 
ATOM     10  C   UNL     1       3.878 -12.869  -1.255  0.00  0.00    -0.029 A 
ATOM     11  C   UNL     1       2.884 -13.820  -1.377  0.00  0.00    +0.005 A 
ATOM     12  C   UNL     1       1.555 -13.451  -1.274  0.00  0.00    +0.000 A 
ATOM     13  C   UNL     1       1.217 -12.130  -1.043  0.00  0.00    +0.002 A 
ATOM     14  C   UNL     1       2.206 -11.175  -0.915  0.00  0.00    +0.023 A 
ATOM     15  C   UNL     1       3.542 -11.542  -1.018  0.00  0.00    +0.036 A 
ENDBRANCH   2  15
ENDBRANCH   1   6
BRANCH   1  16
ATOM     16  C   UNL     1       2.428  -4.235  -0.291  0.00  0.00    +0.172 C 
BRANCH  16  17
ATOM     17  C   UNL     1       2.412  -2.732  -0.175  0.00  0.00    +0.228 C 
ATOM     18  O   UNL     1       3.455  -2.113  -0.180  0.00  0.00    -0.275 OA
ATOM     19  N   UNL     1       1.240  -2.077  -0.064  0.00  0.00    -0.282 N 
ATOM     20  H   UNL     1       0.412  -2.575   0.022  0.00  0.00    +0.155 HD
BRANCH  19  21
ATOM     21  C   UNL     1       1.217  -0.676  -0.074  0.00  0.00    +0.072 A 
ATOM     22  C   UNL     1       2.241   0.032  -0.688  0.00  0.00    +0.029 A 
ATOM     23  C   UNL     1       2.217   1.413  -0.698  0.00  0.00    +0.043 A 
ATOM     24  C   UNL     1       1.173   2.094  -0.097  0.00  0.00    +0.161 A 
ATOM     25  C   UNL     1       0.148   1.392   0.518  0.00  0.00    +0.195 A 
ATOM     26  C   UNL     1       0.168   0.007   0.530  0.00  0.00    +0.182 A 
ATOM     27  F   UNL     1      -0.831  -0.679   1.128  0.00  0.00    -0.200 F 
ATOM     28  F   UNL     1      -0.874   2.058   1.100  0.00  0.00    -0.199 F 
ATOM     29  F   UNL     1       1.153   3.445  -0.108  0.00  0.00    -0.202 F 
ENDBRANCH  19  21
ENDBRANCH  16  17
ENDBRANCH   1  16
TORSDOF 5
