REMARK  Name = ZINC10815032
REMARK  10 active torsions:
REMARK  status: ('A' for Active; 'I' for Inactive)
REMARK    1  A    between atoms: C_1  and  C_2
REMARK    2  A    between atoms: C_2  and  N_54
REMARK    3  A    between atoms: C_3  and  C_4
REMARK    4  A    between atoms: C_3  and  N_54
REMARK    5  A    between atoms: C_5  and  C_6
REMARK    6  A    between atoms: C_5  and  N_54
REMARK    7  A    between atoms: C_6  and  N_7
REMARK    8  A    between atoms: C_16  and  S_17
REMARK    9  A    between atoms: S_17  and  C_20
REMARK   10  A    between atoms: C_21  and  C_23
REMARK                            x       y       z     vdW  Elec       q    Type
REMARK                         _______ _______ _______ _____ _____    ______ ____
ROOT
ATOM      1  N   UNL     1      -1.411   2.466  -0.465  0.00  0.00    -0.248 N 
ATOM      2  C   UNL     1      -0.354   1.602  -0.237  0.00  0.00    +0.168 A 
ATOM      3  N   UNL     1      -0.340   0.290  -0.277  0.00  0.00    -0.222 NA
ATOM      4  C   UNL     1       0.775  -0.432  -0.035  0.00  0.00    +0.105 A 
ATOM      5  C   UNL     1       1.936   0.317   0.266  0.00  0.00    +0.043 A 
ATOM      6  S   UNL     1       1.340   1.988   0.179  0.00  0.00    -0.052 S 
ATOM      7  C   UNL     1       3.147  -0.270   0.535  0.00  0.00    +0.017 A 
ATOM      8  C   UNL     1       3.257  -1.649   0.516  0.00  0.00    +0.003 A 
ATOM      9  C   UNL     1       2.138  -2.415   0.224  0.00  0.00    +0.029 A 
ATOM     10  C   UNL     1       0.925  -1.838  -0.046  0.00  0.00    +0.114 A 
ATOM     11  C   UNL     1      -2.627   1.976  -0.777  0.00  0.00    +0.254 C 
ATOM     12  O   UNL     1      -2.773   0.783  -0.961  0.00  0.00    -0.270 OA
ENDROOT
BRANCH  11  13
ATOM     13  C   UNL     1      -3.783   2.888  -0.894  0.00  0.00    +0.056 A 
ATOM     14  C   UNL     1      -4.119   3.734   0.165  0.00  0.00    +0.016 A 
ATOM     15  C   UNL     1      -5.199   4.583   0.050  0.00  0.00    +0.021 A 
ATOM     16  C   UNL     1      -5.950   4.600  -1.114  0.00  0.00    +0.042 A 
ATOM     17  C   UNL     1      -5.623   3.764  -2.169  0.00  0.00    +0.040 A 
ATOM     18  C   UNL     1      -4.541   2.913  -2.068  0.00  0.00    +0.054 A 
ATOM     19 CL   UNL     1      -4.127   1.871  -3.393  0.00  0.00    -0.083 Cl
ATOM     20 CL   UNL     1      -7.309   5.672  -1.251  0.00  0.00    -0.083 Cl
ENDBRANCH  11  13
BRANCH  10  21
ATOM     21  S   UNL     1      -0.464  -2.859  -0.410  0.00  0.00    -0.004 S 
ATOM     22  O   UNL     1      -0.996  -2.331  -1.617  0.00  0.00    -0.170 OA
ATOM     23  O   UNL     1       0.039  -4.187  -0.360  0.00  0.00    -0.170 OA
ATOM     24  C   UNL     1      -1.621  -2.578   0.958  0.00  0.00    +0.200 C 
ENDBRANCH  10  21
BRANCH   1  25
ATOM     25  C   UNL     1      -1.208   3.914  -0.368  0.00  0.00    +0.097 C 
BRANCH  25  26
ATOM     26  C   UNL     1      -0.923   4.483  -1.759  0.00  0.00    -0.059 C 
BRANCH  26  27
ATOM     27  N   UNL     1      -0.741   5.946  -1.647  0.00  0.00    +0.380 N 
ATOM     28  H   UNL     1      -1.540   6.343  -1.140  0.00  0.00    -0.082 HD
BRANCH  27  30
ATOM     29  C   UNL     1       1.694   5.534  -1.539  0.00  0.00    -0.017 C 
ATOM     30  C   UNL     1       0.499   6.245  -0.901  0.00  0.00    -0.082 C 
ENDBRANCH  27  30
BRANCH  27  31
ATOM     31  C   UNL     1      -0.678   6.551  -2.994  0.00  0.00    -0.082 C 
ATOM     32  C   UNL     1      -0.601   8.073  -2.850  0.00  0.00    -0.017 C 
ENDBRANCH  27  31
ENDBRANCH  26  27
ENDBRANCH  25  26
ENDBRANCH   1  25
TORSDOF 7
