REMARK  Name = ZINC41026402
REMARK  10 active torsions:
REMARK  status: ('A' for Active; 'I' for Inactive)
REMARK    1  A    between atoms: C_6  and  C_27
REMARK    2  A    between atoms: C_7  and  N_9
REMARK    3  A    between atoms: C_11  and  N_24
REMARK    4  A    between atoms: C_12  and  N_23
REMARK    5  A    between atoms: N_16  and  C_17
REMARK    6  A    between atoms: C_17  and  C_18
REMARK    7  A    between atoms: C_18  and  N_19
REMARK    8  A    between atoms: N_19  and  C_20
REMARK    9  A    between atoms: C_20  and  C_21
REMARK   10  A    between atoms: C_21  and  O_22
REMARK                            x       y       z     vdW  Elec       q    Type
REMARK                         _______ _______ _______ _____ _____    ______ ____
ROOT
ATOM      1  N   UNL     1       1.957  -3.297   3.384  0.00  0.00    -0.291 N 
ATOM      2  C   UNL     1       2.906  -3.389   4.392  0.00  0.00    +0.161 A 
ATOM      3  C   UNL     1       3.093  -4.585   5.079  0.00  0.00    +0.205 A 
ATOM      4  C   UNL     1       4.057  -4.630   6.082  0.00  0.00    +0.154 A 
ATOM      5  N   UNL     1       4.764  -3.534   6.351  0.00  0.00    -0.198 NA
ATOM      6  C   UNL     1       4.559  -2.413   5.677  0.00  0.00    +0.219 A 
ATOM      7  N   UNL     1       3.654  -2.335   4.712  0.00  0.00    -0.197 NA
ATOM      8  N   UNL     1       5.314  -1.294   5.984  0.00  0.00    -0.315 N 
ATOM      9  H   UNL     1       1.416  -4.069   3.156  0.00  0.00    +0.154 HD
ATOM     10  H   UNL     1       5.174  -0.467   5.499  0.00  0.00    +0.149 HD
ENDROOT
BRANCH   1  17
ATOM     11  C   UNL     1      -0.019   1.526   0.010  0.00  0.00    +0.005 C 
ATOM     12  C   UNL     1       1.414   2.067  -0.000  0.00  0.00    +0.005 C 
ATOM     13  C   UNL     1       2.067   1.772   1.358  0.00  0.00    +0.043 C 
ATOM     14  C   UNL     1       1.810   0.337   1.702  0.00  0.00    -0.004 A 
ATOM     15  C   UNL     1       0.907  -0.486   1.126  0.00  0.00    -0.023 A 
ATOM     16  C   UNL     1       0.892  -1.830   1.677  0.00  0.00    +0.068 A 
ATOM     17  C   UNL     1       1.784  -2.104   2.704  0.00  0.00    +0.084 A 
ATOM     18  S   UNL     1       2.603  -0.657   2.932  0.00  0.00    -0.077 S 
ATOM     19  C   UNL     1       0.002  -0.004   0.002  0.00  0.00    +0.037 C 
BRANCH  16  20
ATOM     20  C   UNL     1      -0.026  -2.853   1.169  0.00  0.00    +0.244 C 
ATOM     21  O   UNL     1       0.316  -3.576   0.251  0.00  0.00    -0.270 OA
ATOM     22  N   UNL     1      -1.248  -2.994   1.718  0.00  0.00    -0.325 N 
ATOM     23  H   UNL     1      -1.521  -2.419   2.450  0.00  0.00    +0.145 HD
ATOM     24  H   UNL     1      -1.856  -3.672   1.382  0.00  0.00    +0.145 HD
ENDBRANCH  16  20
ENDBRANCH   1  17
BRANCH   4  25
ATOM     25  N   UNL     1       4.277  -5.800   6.792  0.00  0.00    -0.341 N 
ATOM     26  H   UNL     1       3.758  -6.594   6.591  0.00  0.00    +0.144 HD
ATOM     27  H   UNL     1       4.950  -5.824   7.490  0.00  0.00    +0.144 HD
ENDBRANCH   4  25
BRANCH   3  28
ATOM     28  N   UNL     1       2.285  -5.781   4.750  0.00  0.00    +0.063 N 
ATOM     29  O   UNL     1       2.674  -6.561   3.912  0.00  0.00    -0.126 OA
ATOM     30  O   UNL     1       1.237  -5.978   5.319  0.00  0.00    -0.126 OA
ENDBRANCH   3  28
BRANCH   8  31
ATOM     31  C   UNL     1       6.323  -1.361   7.044  0.00  0.00    +0.085 C 
BRANCH  31  32
ATOM     32  C   UNL     1       7.009  -0.000   7.181  0.00  0.00    -0.064 C 
BRANCH  32  33
ATOM     33  N   UNL     1       8.022  -0.067   8.243  0.00  0.00    +0.382 N 
ATOM     34  H   UNL     1       7.578  -0.309   9.116  0.00  0.00    -0.086 HD
ATOM     35  H   UNL     1       8.709  -0.768   8.009  0.00  0.00    -0.086 HD
BRANCH  33  36
ATOM     36  C   UNL     1       8.680   1.239   8.375  0.00  0.00    -0.054 C 
BRANCH  36  37
ATOM     37  C   UNL     1       9.735   1.170   9.481  0.00  0.00    +0.137 C 
BRANCH  37  38
ATOM     38  O   UNL     1      10.769   0.262   9.097  0.00  0.00    -0.397 OA
ATOM     39  H   UNL     1      11.474   0.168   9.753  0.00  0.00    +0.209 HD
ENDBRANCH  37  38
ENDBRANCH  36  37
ENDBRANCH  33  36
ENDBRANCH  32  33
ENDBRANCH  31  32
ENDBRANCH   8  31
TORSDOF 10
