REMARK  Name = ZINC66445181
REMARK  9 active torsions:
REMARK  status: ('A' for Active; 'I' for Inactive)
REMARK    1  A    between atoms: C_1  and  C_2
REMARK    2  A    between atoms: C_2  and  C_3
REMARK    3  A    between atoms: C_3  and  C_4
REMARK    4  A    between atoms: C_4  and  C_6
REMARK    5  A    between atoms: C_4  and  N_25
REMARK    6  A    between atoms: C_11  and  C_14
REMARK    7  A    between atoms: C_14  and  C_15
REMARK    8  A    between atoms: N_20  and  C_23
REMARK    9  A    between atoms: C_23  and  C_24
REMARK                            x       y       z     vdW  Elec       q    Type
REMARK                         _______ _______ _______ _____ _____    ______ ____
ROOT
ATOM      1  C   UNL     1      -2.818  -2.546   0.256  0.00  0.00    +0.236 C 
ATOM      2  O   UNL     1      -3.348  -3.304  -0.528  0.00  0.00    -0.274 OA
ATOM      3  N   UNL     1      -3.486  -2.134   1.352  0.00  0.00    -0.300 N 
ATOM      4  C   UNL     1      -2.904  -1.125   2.248  0.00  0.00    +0.108 C 
ATOM      5  C   UNL     1      -2.903  -1.677   3.677  0.00  0.00    +0.023 C 
ATOM      6  C   UNL     1      -4.323  -2.108   4.053  0.00  0.00    +0.001 C 
ATOM      7  C   UNL     1      -4.789  -3.217   3.107  0.00  0.00    +0.023 C 
ATOM      8  C   UNL     1      -4.813  -2.679   1.669  0.00  0.00    +0.108 C 
ENDROOT
BRANCH   1   9
ATOM      9  C   UNL     1      -1.411  -2.066   0.006  0.00  0.00    +0.160 C 
BRANCH   9  10
ATOM     10  N   UNL     1      -0.717  -3.019  -0.864  0.00  0.00    -0.288 N 
ATOM     11  C   UNL     1       0.627  -3.105  -0.832  0.00  0.00    +0.298 C 
ATOM     12  O   UNL     1       1.264  -2.391  -0.081  0.00  0.00    -0.253 OA
ATOM     13  N   UNL     1       1.266  -3.981  -1.632  0.00  0.00    -0.313 N 
ATOM     14  H   UNL     1      -1.226  -3.588  -1.463  0.00  0.00    +0.151 HD
ATOM     15  H   UNL     1       0.757  -4.551  -2.231  0.00  0.00    +0.146 HD
ATOM     16  H   UNL     1       2.233  -4.043  -1.609  0.00  0.00    +0.146 HD
ENDBRANCH   9  10
BRANCH   9  17
ATOM     17  C   UNL     1      -1.454  -0.695  -0.671  0.00  0.00    +0.031 C 
BRANCH  17  19
ATOM     18  C   UNL     1      -0.075   1.227  -1.475  0.00  0.00    +0.004 C 
ATOM     19  C   UNL     1      -0.032  -0.144  -0.798  0.00  0.00    -0.001 C 
ENDBRANCH  17  19
ENDBRANCH   9  17
ENDBRANCH   1   9
BRANCH   6  20
ATOM     20  C   UNL     1      -4.333  -2.628   5.492  0.00  0.00    +0.099 C 
BRANCH  20  21
ATOM     21  C   UNL     1      -5.749  -2.938   5.905  0.00  0.00    +0.216 C 
ATOM     22  O   UNL     1      -6.660  -2.760   5.125  0.00  0.00    -0.276 OA
ATOM     23  N   UNL     1      -6.002  -3.412   7.141  0.00  0.00    -0.305 N 
ATOM     24  C   UNL     1      -4.913  -3.630   8.105  0.00  0.00    +0.089 C 
ATOM     25  C   UNL     1      -5.292  -2.952   9.426  0.00  0.00    -0.060 C 
ATOM     26  N   UNL     1      -6.602  -3.443   9.870  0.00  0.00    +0.382 N 
ATOM     27  C   UNL     1      -7.638  -3.043   8.910  0.00  0.00    -0.060 C 
ATOM     28  C   UNL     1      -7.377  -3.721   7.565  0.00  0.00    +0.089 C 
ATOM     29  H   UNL     1      -6.577  -4.450   9.936  0.00  0.00    -0.082 HD
BRANCH  26  30
ATOM     30  C   UNL     1      -6.915  -2.877  11.189  0.00  0.00    -0.082 C 
ATOM     31  C   UNL     1      -8.220  -3.484  11.709  0.00  0.00    -0.017 C 
ENDBRANCH  26  30
ENDBRANCH  20  21
ENDBRANCH   6  20
TORSDOF 7
