REMARK  Name = ZINC21078577
REMARK  13 active torsions:
REMARK  status: ('A' for Active; 'I' for Inactive)
REMARK    1  A    between atoms: C_1  and  C_2
REMARK    2  A    between atoms: C_2  and  N_3
REMARK    3  A    between atoms: N_3  and  S_4
REMARK    4  A    between atoms: S_4  and  C_7
REMARK    5  A    between atoms: C_10  and  N_13
REMARK    6  A    between atoms: C_14  and  C_16
REMARK    7  A    between atoms: C_16  and  S_17
REMARK    8  A    between atoms: S_17  and  C_18
REMARK    9  A    between atoms: N_23  and  N_24
REMARK   10  A    between atoms: C_25  and  C_26
REMARK   11  A    between atoms: C_29  and  O_33
REMARK   12  A    between atoms: C_30  and  O_32
REMARK   13  A    between atoms: O_33  and  C_34
REMARK                            x       y       z     vdW  Elec       q    Type
REMARK                         _______ _______ _______ _____ _____    ______ ____
ROOT
ATOM      1  C   UNL     1      -3.826   6.481   8.766  0.00  0.00    +0.211 A 
ATOM      2  N   UNL     1      -3.733   7.584   9.565  0.00  0.00    -0.186 NA
ATOM      3  C   UNL     1      -4.587   7.415  10.620  0.00  0.00    +0.232 A 
ATOM      4  N   UNL     1      -5.182   6.256  10.477  0.00  0.00    -0.245 N 
ATOM      5  N   UNL     1      -4.704   5.666   9.300  0.00  0.00    -0.144 NA
ATOM      6  N   UNL     1      -4.788   8.313  11.658  0.00  0.00    -0.205 N 
ATOM      7  H   UNL     1      -4.233   9.262  11.680  0.00  0.00    +0.177 HD
ATOM      8  H   UNL     1      -5.915   5.918  11.225  0.00  0.00    +0.192 HD
ENDROOT
BRANCH   6   9
ATOM      9  N   UNL     1      -5.699   8.010  12.679  0.00  0.00    -0.188 NA
ATOM     10  C   UNL     1      -5.887   8.850  13.651  0.00  0.00    +0.138 C 
BRANCH  10  11
ATOM     11  C   UNL     1      -6.845   8.532  14.725  0.00  0.00    -0.002 A 
ATOM     12  C   UNL     1      -7.556   7.329  14.696  0.00  0.00    +0.013 A 
ATOM     13  C   UNL     1      -8.448   7.031  15.705  0.00  0.00    +0.050 A 
ATOM     14  C   UNL     1      -8.649   7.927  16.744  0.00  0.00    +0.161 A 
ATOM     15  C   UNL     1      -7.949   9.131  16.777  0.00  0.00    +0.159 A 
ATOM     16  C   UNL     1      -7.049   9.435  15.772  0.00  0.00    +0.058 A 
BRANCH  15  17
ATOM     17  O   UNL     1      -8.149  10.007  17.798  0.00  0.00    -0.503 OA
ATOM     18  H   UNL     1      -7.596  10.957  17.823  0.00  0.00    +0.292 HD
ENDBRANCH  15  17
BRANCH  14  19
ATOM     19  O   UNL     1      -9.534   7.630  17.734  0.00  0.00    -0.491 OA
ATOM     20  C   UNL     1     -10.218   6.380  17.638  0.00  0.00    +0.277 C 
ENDBRANCH  14  19
ENDBRANCH  10  11
ENDBRANCH   6   9
BRANCH   1  21
ATOM     21  S   UNL     1      -2.929   6.204   7.274  0.00  0.00    -0.075 S 
BRANCH  21  22
ATOM     22  C   UNL     1      -3.504   4.578   6.712  0.00  0.00    +0.173 C 
BRANCH  22  24
ATOM     23  N   UNL     1      -3.077   3.043   4.819  0.00  0.00    -0.285 N 
ATOM     24  C   UNL     1      -2.806   4.216   5.426  0.00  0.00    +0.227 C 
ATOM     25  O   UNL     1      -2.000   4.979   4.938  0.00  0.00    -0.275 OA
ATOM     26  H   UNL     1      -3.870   2.390   5.214  0.00  0.00    +0.155 HD
BRANCH  23  30
ATOM     27  C   UNL     1      -0.914   1.891   1.451  0.00  0.00    +0.105 A 
ATOM     28  C   UNL     1      -2.247   1.541   1.568  0.00  0.00    +0.030 A 
ATOM     29  C   UNL     1      -2.965   1.917   2.686  0.00  0.00    +0.025 A 
ATOM     30  C   UNL     1      -2.351   2.656   3.688  0.00  0.00    +0.034 A 
ATOM     31  C   UNL     1      -1.014   3.011   3.565  0.00  0.00    +0.025 A 
ATOM     32  C   UNL     1      -0.299   2.627   2.447  0.00  0.00    +0.030 A 
BRANCH  27  33
ATOM     33  S   UNL     1       0.001   1.403   0.026  0.00  0.00    +0.058 S 
ATOM     34  O   UNL     1       1.076   2.324  -0.101  0.00  0.00    -0.153 OA
ATOM     35  O   UNL     1      -0.946   1.190  -1.011  0.00  0.00    -0.153 OA
BRANCH  33  36
ATOM     36  N   UNL     1       0.678  -0.071   0.360  0.00  0.00    -0.190 NA
ATOM     37  H   UNL     1       1.754  -0.131   0.580  0.00  0.00    +0.148 HD
BRANCH  36  39
ATOM     38  C   UNL     1       0.663  -2.513   0.490  0.00  0.00    +0.022 C 
ATOM     39  C   UNL     1      -0.180  -1.239   0.574  0.00  0.00    +0.102 C 
ENDBRANCH  36  39
ENDBRANCH  33  36
ENDBRANCH  27  33
ENDBRANCH  23  30
ENDBRANCH  22  24
ENDBRANCH  21  22
ENDBRANCH   1  21
TORSDOF 11
