REMARK  Name = ZINC19723936
REMARK  1 active torsions:
REMARK  status: ('A' for Active; 'I' for Inactive)
REMARK    1  A    between atoms: C_4  and  N_8
REMARK                            x       y       z     vdW  Elec       q    Type
REMARK                         _______ _______ _______ _____ _____    ______ ____
ROOT
ATOM      1  N   UNL     1      -2.511   4.293   0.051  0.00  0.00    -0.212 N 
ATOM      2  C   UNL     1      -1.224   3.852   0.035  0.00  0.00    +0.167 A 
ATOM      3  C   UNL     1      -1.281   2.449   0.021  0.00  0.00    +0.072 A 
ATOM      4  C   UNL     1      -2.641   2.086   0.039  0.00  0.00    +0.147 A 
ATOM      5  N   UNL     1      -3.358   3.177   0.053  0.00  0.00    -0.172 NA
ATOM      6  C   UNL     1      -0.021   1.708   0.011  0.00  0.00    +0.122 A 
ATOM      7  S   UNL     1       0.002  -0.004   0.002  0.00  0.00    -0.030 SA
ATOM      8  N   UNL     1       1.127   2.425   0.004  0.00  0.00    -0.228 NA
ATOM      9  C   UNL     1       1.085   3.782   0.012  0.00  0.00    +0.224 A 
ATOM     10  N   UNL     1      -0.026   4.458   0.027  0.00  0.00    -0.216 NA
ENDROOT
BRANCH   1  14
ATOM     11  C   UNL     1      -3.728   8.281   0.087  0.00  0.00    +0.021 A 
ATOM     12  C   UNL     1      -4.673   7.271   0.090  0.00  0.00    +0.023 A 
ATOM     13  C   UNL     1      -4.273   5.949   0.078  0.00  0.00    +0.066 A 
ATOM     14  C   UNL     1      -2.920   5.633   0.063  0.00  0.00    +0.087 A 
ATOM     15  C   UNL     1      -1.973   6.649   0.065  0.00  0.00    +0.049 A 
ATOM     16  C   UNL     1      -2.380   7.970   0.072  0.00  0.00    +0.043 A 
ATOM     17 CL   UNL     1      -1.197   9.241   0.068  0.00  0.00    -0.083 Cl
ATOM     18 CL   UNL     1      -5.461   4.682   0.083  0.00  0.00    -0.081 Cl
ENDBRANCH   1  14
TORSDOF 1
