REMARK  Name = ZINC13426313
REMARK  7 active torsions:
REMARK  status: ('A' for Active; 'I' for Inactive)
REMARK    1  A    between atoms: C_1  and  C_2
REMARK    2  A    between atoms: C_5  and  C_20
REMARK    3  A    between atoms: N_8  and  C_10
REMARK    4  A    between atoms: C_14  and  C_16
REMARK    5  A    between atoms: N_22  and  C_23
REMARK    6  A    between atoms: C_25  and  C_31
REMARK    7  A    between atoms: C_27  and  C_29
REMARK                            x       y       z     vdW  Elec       q    Type
REMARK                         _______ _______ _______ _____ _____    ______ ____
ROOT
ATOM      1  C   UNL     1       1.600   8.563   0.486  0.00  0.00    +0.068 C 
ATOM      2  C   UNL     1       0.745   7.368   0.151  0.00  0.00    +0.069 A 
ATOM      3  C   UNL     1      -0.495   7.410  -0.568  0.00  0.00    +0.031 A 
ATOM      4  C   UNL     1      -1.338   8.351  -1.178  0.00  0.00    +0.032 A 
ATOM      5  C   UNL     1      -2.486   7.935  -1.785  0.00  0.00    +0.077 A 
ATOM      6  S   UNL     1      -2.446   6.170  -1.530  0.00  0.00    -0.064 S 
ATOM      7  C   UNL     1      -0.914   6.073  -0.641  0.00  0.00    +0.113 A 
ATOM      8  N   UNL     1      -0.005   5.301  -0.010  0.00  0.00    -0.225 N 
ATOM      9  N   UNL     1       1.013   6.137   0.467  0.00  0.00    -0.170 NA
ENDROOT
BRANCH   8  10
ATOM     10  C   UNL     1      -0.065   3.909   0.138  0.00  0.00    +0.067 A 
ATOM     11  C   UNL     1      -1.291   3.281   0.315  0.00  0.00    +0.028 A 
ATOM     12  C   UNL     1      -1.348   1.909   0.455  0.00  0.00    +0.003 A 
ATOM     13  C   UNL     1      -0.185   1.161   0.431  0.00  0.00    +0.012 A 
ATOM     14  C   UNL     1       1.037   1.783   0.255  0.00  0.00    +0.057 A 
ATOM     15  C   UNL     1       1.100   3.155   0.108  0.00  0.00    +0.040 A 
BRANCH  14  16
ATOM     16  C   UNL     1       2.302   0.964   0.223  0.00  0.00    +0.417 C 
ATOM     17  F   UNL     1       1.986  -0.388   0.391  0.00  0.00    -0.166 F 
ATOM     18  F   UNL     1       2.943   1.144  -1.007  0.00  0.00    -0.166 F 
ATOM     19  F   UNL     1       3.150   1.377   1.256  0.00  0.00    -0.166 F 
ENDBRANCH  14  16
ENDBRANCH   8  10
BRANCH   5  20
ATOM     20  C   UNL     1      -3.500   8.738  -2.474  0.00  0.00    +0.255 C 
ATOM     21  O   UNL     1      -3.368   9.945  -2.557  0.00  0.00    -0.269 OA
ATOM     22  N   UNL     1      -4.579   8.140  -3.017  0.00  0.00    -0.281 N 
ATOM     23  H   UNL     1      -4.647   7.172  -3.019  0.00  0.00    +0.155 HD
BRANCH  22  24
ATOM     24  C   UNL     1      -5.600   8.914  -3.578  0.00  0.00    +0.035 A 
ATOM     25  C   UNL     1      -5.910  10.151  -3.032  0.00  0.00    +0.038 A 
ATOM     26  C   UNL     1      -6.925  10.929  -3.593  0.00  0.00    +0.066 A 
ATOM     27  C   UNL     1      -7.634  10.457  -4.696  0.00  0.00    +0.030 A 
ATOM     28  C   UNL     1      -7.324   9.211  -5.238  0.00  0.00    +0.066 A 
ATOM     29  C   UNL     1      -6.304   8.441  -4.676  0.00  0.00    +0.038 A 
BRANCH  28  30
ATOM     30  C   UNL     1      -8.073   8.707  -6.408  0.00  0.00    +0.387 C 
ATOM     31  O   UNL     1      -7.801   7.621  -6.881  0.00  0.00    -0.241 OA
ATOM     32  O   UNL     1      -9.056   9.451  -6.950  0.00  0.00    -0.241 OA
ENDBRANCH  28  30
BRANCH  26  33
ATOM     33  C   UNL     1      -7.251  12.249  -3.014  0.00  0.00    +0.387 C 
ATOM     34  O   UNL     1      -6.632  12.660  -2.053  0.00  0.00    -0.241 OA
ATOM     35  O   UNL     1      -8.234  12.997  -3.552  0.00  0.00    -0.241 OA
ENDBRANCH  26  33
ENDBRANCH  22  24
ENDBRANCH   5  20
TORSDOF 6
