REMARK  Name = ZINC13099280
REMARK  5 active torsions:
REMARK  status: ('A' for Active; 'I' for Inactive)
REMARK    1  A    between atoms: C_2  and  S_20
REMARK    2  A    between atoms: C_5  and  N_8
REMARK    3  A    between atoms: N_9  and  C_10
REMARK    4  A    between atoms: C_11  and  N_18
REMARK    5  A    between atoms: S_20  and  N_23
REMARK                            x       y       z     vdW  Elec       q    Type
REMARK                         _______ _______ _______ _____ _____    ______ ____
ROOT
ATOM      1  N   UNL     1       1.002  -1.685  -0.294  0.00  0.00    -0.147 NA
ATOM      2  N   UNL     1       0.446  -2.459   0.575  0.00  0.00    -0.140 NA
ENDROOT
BRANCH   2   3
ATOM      3  C   UNL     1      -0.334  -1.935   1.546  0.00  0.00    +0.188 A 
ATOM      4  C   UNL     1       0.168  -0.965   2.423  0.00  0.00    +0.129 A 
ATOM      5  N   UNL     1      -0.652  -0.459   3.393  0.00  0.00    -0.322 N 
ATOM      6  C   UNL     1      -1.923  -0.883   3.508  0.00  0.00    +0.159 A 
ATOM      7  N   UNL     1      -2.433  -1.813   2.682  0.00  0.00    -0.301 N 
ATOM      8  C   UNL     1      -1.685  -2.351   1.699  0.00  0.00    +0.281 A 
ATOM      9  O   UNL     1      -2.159  -3.189   0.953  0.00  0.00    -0.265 OA
ATOM     10  S   UNL     1      -2.915  -0.223   4.736  0.00  0.00    -0.013 S 
ATOM     11  H   UNL     1      -3.354  -2.097   2.793  0.00  0.00    +0.171 HD
ATOM     12  H   UNL     1      -0.314   0.213   4.005  0.00  0.00    +0.169 HD
BRANCH   4  13
ATOM     13  N   UNL     1       1.457  -0.532   2.310  0.00  0.00    -0.343 N 
ATOM     14  H   UNL     1       2.090  -1.028   1.768  0.00  0.00    +0.144 HD
ATOM     15  H   UNL     1       1.741   0.272   2.773  0.00  0.00    +0.144 HD
ENDBRANCH   4  13
ENDBRANCH   2   3
BRANCH   1  20
ATOM     16  C   UNL     1      -0.941   1.396  -0.580  0.00  0.00    +0.046 A 
ATOM     17  C   UNL     1       0.050   2.342  -0.388  0.00  0.00    +0.107 A 
ATOM     18  C   UNL     1       1.358   1.949  -0.164  0.00  0.00    +0.046 A 
ATOM     19  C   UNL     1       1.683   0.608  -0.132  0.00  0.00    +0.048 A 
ATOM     20  C   UNL     1       0.687  -0.354  -0.324  0.00  0.00    +0.114 A 
ATOM     21  C   UNL     1      -0.631   0.051  -0.549  0.00  0.00    +0.048 A 
ATOM     22 BR   UNL     1      -1.988  -1.240  -0.812  0.00  0.00    -0.048 Br
ATOM     23 BR   UNL     1       3.471   0.073   0.173  0.00  0.00    -0.048 Br
BRANCH  17  24
ATOM     24  S   UNL     1      -0.355   4.056  -0.428  0.00  0.00    +0.056 S 
ATOM     25  O   UNL     1       0.840   4.748  -0.764  0.00  0.00    -0.153 OA
ATOM     26  O   UNL     1      -1.545   4.174  -1.196  0.00  0.00    -0.153 OA
BRANCH  24  27
ATOM     27  N   UNL     1      -0.743   4.504   1.118  0.00  0.00    -0.204 NA
ATOM     28  H   UNL     1      -0.576   5.412   1.416  0.00  0.00    +0.144 HD
ATOM     29  H   UNL     1      -1.136   3.859   1.726  0.00  0.00    +0.144 HD
ENDBRANCH  24  27
ENDBRANCH  17  24
ENDBRANCH   1  20
TORSDOF 5
