REMARK  Name = ZINC15947591
REMARK  4 active torsions:
REMARK  status: ('A' for Active; 'I' for Inactive)
REMARK    1  A    between atoms: C_1  and  C_2
REMARK    2  A    between atoms: C_11  and  O_25
REMARK    3  A    between atoms: C_13  and  C_16
REMARK    4  A    between atoms: C_21  and  O_22
REMARK                            x       y       z     vdW  Elec       q    Type
REMARK                         _______ _______ _______ _____ _____    ______ ____
ROOT
ATOM      1  C   UNL     1      -0.019   1.526   0.010  0.00  0.00    +0.008 C 
ATOM      2  C   UNL     1       0.002  -0.004   0.002  0.00  0.00    -0.009 C 
ATOM      3  C   UNL     1      -1.433  -0.537   0.019  0.00  0.00    +0.008 C 
ATOM      4  C   UNL     1      -1.432  -2.045  -0.237  0.00  0.00    +0.037 C 
ATOM      5  C   UNL     1      -0.467  -2.705   0.737  0.00  0.00    -0.023 A 
ATOM      6  C   UNL     1       0.482  -1.985   1.377  0.00  0.00    -0.004 A 
ATOM      7  S   UNL     1       1.343  -3.163   2.383  0.00  0.00    -0.078 S 
ATOM      8  C   UNL     1       0.495  -4.532   1.987  0.00  0.00    +0.080 A 
ATOM      9  C   UNL     1      -0.471  -4.120   1.062  0.00  0.00    +0.068 A 
ATOM     10  C   UNL     1      -1.381  -5.159   0.513  0.00  0.00    +0.220 C 
ATOM     11  N   UNL     1      -1.394  -6.324   1.100  0.00  0.00    -0.223 NA
ATOM     12  C   UNL     1      -0.626  -6.657   2.294  0.00  0.00    +0.227 C 
ATOM     13  N   UNL     1       0.598  -5.843   2.397  0.00  0.00    -0.313 N 
ATOM     14  C   UNL     1       0.739  -0.515   1.249  0.00  0.00    +0.046 C 
ATOM     15  H   UNL     1       1.430  -6.210   2.735  0.00  0.00    +0.149 HD
ENDROOT
BRANCH  12  16
ATOM     16  C   UNL     1      -1.481  -6.414   3.511  0.00  0.00    +0.038 A 
ATOM     17  C   UNL     1      -0.906  -5.942   4.676  0.00  0.00    +0.026 A 
ATOM     18  C   UNL     1      -1.689  -5.719   5.794  0.00  0.00    +0.020 A 
ATOM     19  C   UNL     1      -3.050  -5.967   5.749  0.00  0.00    +0.039 A 
ATOM     20  C   UNL     1      -3.629  -6.439   4.586  0.00  0.00    +0.084 A 
ATOM     21  C   UNL     1      -2.845  -6.658   3.462  0.00  0.00    +0.142 A 
ATOM     22 CL   UNL     1      -5.335  -6.750   4.530  0.00  0.00    -0.080 Cl
ATOM     23 BR   UNL     1      -0.899  -5.073   7.386  0.00  0.00    -0.050 Br
BRANCH  21  24
ATOM     24  O   UNL     1      -3.413  -7.117   2.315  0.00  0.00    -0.505 OA
ATOM     25  H   UNL     1      -3.438  -8.081   2.247  0.00  0.00    +0.292 HD
ENDBRANCH  21  24
ENDBRANCH  12  16
BRANCH  10  26
ATOM     26  O   UNL     1      -2.168  -4.905  -0.558  0.00  0.00    -0.492 OA
ATOM     27  H   UNL     1      -2.718  -5.653  -0.828  0.00  0.00    +0.294 HD
ENDBRANCH  10  26
TORSDOF 3
