REMARK  Name = ZINC19188728
REMARK  16 active torsions:
REMARK  status: ('A' for Active; 'I' for Inactive)
REMARK    1  A    between atoms: C_1  and  C_2
REMARK    2  A    between atoms: C_2  and  C_4
REMARK    3  A    between atoms: C_2  and  N_10
REMARK    4  A    between atoms: C_4  and  C_5
REMARK    5  A    between atoms: C_5  and  C_6
REMARK    6  A    between atoms: C_6  and  C_7
REMARK    7  A    between atoms: C_7  and  C_8
REMARK    8  A    between atoms: C_7  and  C_9
REMARK    9  A    between atoms: C_11  and  C_13
REMARK   10  A    between atoms: C_13  and  O_14
REMARK   11  A    between atoms: O_14  and  C_15
REMARK   12  A    between atoms: C_15  and  C_17
REMARK   13  A    between atoms: C_20  and  S_23
REMARK   14  A    between atoms: S_23  and  N_26
REMARK   15  A    between atoms: N_26  and  C_27
REMARK   16  A    between atoms: C_27  and  C_28
REMARK                            x       y       z     vdW  Elec       q    Type
REMARK                         _______ _______ _______ _____ _____    ______ ____
ROOT
ATOM      1  C   UNL     1       4.987  -1.552   3.130  0.00  0.00    +0.340 C 
ATOM      2  O   UNL     1       4.505  -1.890   4.192  0.00  0.00    -0.245 OA
ENDROOT
BRANCH   1   3
ATOM      3  C   UNL     1       6.450  -1.607   2.931  0.00  0.00    +0.059 A 
ATOM      4  C   UNL     1       7.007  -1.214   1.713  0.00  0.00    +0.017 A 
ATOM      5  C   UNL     1       8.374  -1.268   1.534  0.00  0.00    +0.029 A 
ATOM      6  C   UNL     1       9.192  -1.710   2.558  0.00  0.00    +0.105 A 
ATOM      7  C   UNL     1       8.646  -2.102   3.768  0.00  0.00    +0.029 A 
ATOM      8  C   UNL     1       7.282  -2.047   3.962  0.00  0.00    +0.017 A 
BRANCH   6   9
ATOM      9  S   UNL     1      10.937  -1.776   2.321  0.00  0.00    +0.059 S 
ATOM     10  O   UNL     1      11.435  -2.740   3.238  0.00  0.00    -0.153 OA
ATOM     11  O   UNL     1      11.153  -1.875   0.920  0.00  0.00    -0.153 OA
BRANCH   9  12
ATOM     12  N   UNL     1      11.550  -0.312   2.793  0.00  0.00    -0.186 NA
ATOM     13  H   UNL     1      11.971   0.270   2.141  0.00  0.00    +0.148 HD
BRANCH  12  14
ATOM     14  C   UNL     1      11.458   0.103   4.194  0.00  0.00    +0.132 C 
BRANCH  14  15
ATOM     15  C   UNL     1      12.389   1.264   4.437  0.00  0.00    -0.018 C 
ATOM     16  C   UNL     1      11.926   2.379   4.945  0.00  0.00    +0.005 C 
ENDBRANCH  14  15
ENDBRANCH  12  14
ENDBRANCH   9  12
ENDBRANCH   6   9
ENDBRANCH   1   3
BRANCH   1  17
ATOM     17  O   UNL     1       4.187  -1.127   2.133  0.00  0.00    -0.452 OA
BRANCH  17  18
ATOM     18  C   UNL     1       2.783  -1.099   2.395  0.00  0.00    +0.328 C 
BRANCH  18  20
ATOM     19  N   UNL     1       0.711  -0.489   1.189  0.00  0.00    -0.310 N 
ATOM     20  C   UNL     1       2.054  -0.600   1.174  0.00  0.00    +0.251 C 
ATOM     21  O   UNL     1       2.676  -0.297   0.177  0.00  0.00    -0.272 OA
ATOM     22  H   UNL     1       0.213  -0.731   1.986  0.00  0.00    +0.149 HD
BRANCH  19  24
ATOM     23  C   UNL     1      -0.019   1.526   0.010  0.00  0.00    +0.028 C 
ATOM     24  C   UNL     1       0.002  -0.004   0.002  0.00  0.00    +0.070 C 
BRANCH  24  25
ATOM     25  C   UNL     1      -1.433  -0.534   0.013  0.00  0.00    +0.022 C 
BRANCH  25  26
ATOM     26  C   UNL     1      -1.416  -2.058  -0.121  0.00  0.00    +0.002 C 
BRANCH  26  27
ATOM     27  C   UNL     1      -2.851  -2.587  -0.110  0.00  0.00    +0.003 C 
BRANCH  27  28
ATOM     28  C   UNL     1      -2.833  -4.111  -0.244  0.00  0.00    -0.017 C 
ATOM     29  C   UNL     1      -2.167  -4.724   0.989  0.00  0.00    +0.007 C 
ATOM     30  C   UNL     1      -4.268  -4.630  -0.359  0.00  0.00    +0.007 C 
ENDBRANCH  27  28
ENDBRANCH  26  27
ENDBRANCH  25  26
ENDBRANCH  24  25
ENDBRANCH  19  24
ENDBRANCH  18  20
ENDBRANCH  17  18
ENDBRANCH   1  17
TORSDOF 13
