REMARK  Name = ZINC40795561
REMARK  7 active torsions:
REMARK  status: ('A' for Active; 'I' for Inactive)
REMARK    1  A    between atoms: C_6  and  N_7
REMARK    2  A    between atoms: C_9  and  N_28
REMARK    3  A    between atoms: C_10  and  N_14
REMARK    4  A    between atoms: N_14  and  N_15
REMARK    5  A    between atoms: C_16  and  C_18
REMARK    6  A    between atoms: C_18  and  O_19
REMARK    7  A    between atoms: O_19  and  C_20
REMARK                            x       y       z     vdW  Elec       q    Type
REMARK                         _______ _______ _______ _____ _____    ______ ____
ROOT
ATOM      1  N   UNL     1      -1.199  -0.721   0.010  0.00  0.00    -0.298 N 
ATOM      2  C   UNL     1      -1.183  -2.106  -0.102  0.00  0.00    +0.149 A 
ATOM      3  C   UNL     1      -2.376  -2.823  -0.206  0.00  0.00    +0.107 A 
ATOM      4  C   UNL     1      -2.303  -4.213  -0.317  0.00  0.00    +0.161 A 
ATOM      5  N   UNL     1      -1.107  -4.797  -0.319  0.00  0.00    -0.217 NA
ATOM      6  C   UNL     1      -0.004  -4.083  -0.219  0.00  0.00    +0.225 A 
ATOM      7  N   UNL     1      -0.029  -2.769  -0.119  0.00  0.00    -0.219 NA
ATOM      8  H   UNL     1      -2.043  -0.251   0.099  0.00  0.00    +0.154 HD
ENDROOT
BRANCH   1  14
ATOM      9  C   UNL     1       1.074  -0.459  -0.760  0.00  0.00    +0.026 A 
ATOM     10  C   UNL     1       2.260   0.251  -0.774  0.00  0.00    +0.043 A 
ATOM     11  C   UNL     1       2.380   1.415  -0.036  0.00  0.00    +0.159 A 
ATOM     12  C   UNL     1       1.311   1.872   0.721  0.00  0.00    +0.160 A 
ATOM     13  C   UNL     1       0.123   1.165   0.737  0.00  0.00    +0.064 A 
ATOM     14  C   UNL     1       0.002  -0.004  -0.004  0.00  0.00    +0.035 A 
ATOM     15  F   UNL     1       1.430   3.009   1.441  0.00  0.00    -0.202 F 
ATOM     16  F   UNL     1       3.540   2.107  -0.051  0.00  0.00    -0.202 F 
ENDBRANCH   1  14
BRANCH   3  17
ATOM     17  N   UNL     1      -3.616  -2.165  -0.198  0.00  0.00    -0.353 N 
ATOM     18  H   UNL     1      -3.652  -1.199  -0.121  0.00  0.00    +0.143 HD
ATOM     19  H   UNL     1      -4.437  -2.676  -0.271  0.00  0.00    +0.143 HD
ENDBRANCH   3  17
BRANCH   4  20
ATOM     20  N   UNL     1      -3.460  -4.975  -0.422  0.00  0.00    -0.247 N 
ATOM     21  H   UNL     1      -4.328  -4.541  -0.419  0.00  0.00    +0.172 HD
BRANCH  20  22
ATOM     22  N   UNL     1      -3.374  -6.369  -0.532  0.00  0.00    -0.232 N 
ATOM     23  C   UNL     1      -4.497  -7.107  -0.635  0.00  0.00    +0.267 C 
ATOM     24  O   UNL     1      -5.582  -6.565  -0.631  0.00  0.00    -0.271 OA
ATOM     25  H   UNL     1      -2.506  -6.802  -0.535  0.00  0.00    +0.173 HD
BRANCH  23  26
ATOM     26  C   UNL     1      -4.404  -8.607  -0.754  0.00  0.00    +0.326 C 
BRANCH  26  27
ATOM     27  O   UNL     1      -5.718  -9.159  -0.848  0.00  0.00    -0.481 OA
BRANCH  27  28
ATOM     28  C   UNL     1      -5.813 -10.511  -0.962  0.00  0.00    +0.140 A 
ATOM     29  C   UNL     1      -4.665 -11.289  -0.976  0.00  0.00    +0.048 A 
ATOM     30  C   UNL     1      -4.763 -12.662  -1.092  0.00  0.00    +0.023 A 
ATOM     31  C   UNL     1      -6.005 -13.262  -1.193  0.00  0.00    +0.043 A 
ATOM     32  C   UNL     1      -7.153 -12.489  -1.179  0.00  0.00    +0.043 A 
ATOM     33  C   UNL     1      -7.059 -11.115  -1.057  0.00  0.00    +0.084 A 
ATOM     34 CL   UNL     1      -8.499 -10.145  -1.032  0.00  0.00    -0.080 Cl
ATOM     35 CL   UNL     1      -6.125 -14.988  -1.339  0.00  0.00    -0.083 Cl
ENDBRANCH  27  28
ENDBRANCH  26  27
ENDBRANCH  23  26
ENDBRANCH  20  22
ENDBRANCH   4  20
TORSDOF 7
