REMARK  Name = ZINC33724305
REMARK  5 active torsions:
REMARK  status: ('A' for Active; 'I' for Inactive)
REMARK    1  A    between atoms: C_1  and  C_2
REMARK    2  A    between atoms: C_7  and  N_29
REMARK    3  A    between atoms: C_8  and  C_13
REMARK    4  A    between atoms: N_17  and  C_21
REMARK    5  A    between atoms: C_34  and  C_36
REMARK                            x       y       z     vdW  Elec       q    Type
REMARK                         _______ _______ _______ _____ _____    ______ ____
ROOT
ATOM      1  C   UNL     1       1.314  -2.244   0.051  0.00  0.00    +0.045 C 
ATOM      2  C   UNL     1       1.276  -0.738   0.084  0.00  0.00    -0.034 A 
ATOM      3  C   UNL     1       0.057  -0.073   0.278  0.00  0.00    +0.008 A 
ATOM      4  C   UNL     1       0.032   1.290   0.306  0.00  0.00    +0.047 A 
ATOM      5  C   UNL     1       1.228   2.009   0.140  0.00  0.00    +0.142 A 
ATOM      6  N   UNL     1       1.193   3.342   0.169  0.00  0.00    -0.214 NA
ATOM      7  C   UNL     1       2.290   4.070   0.018  0.00  0.00    +0.136 A 
ATOM      8  C   UNL     1       3.534   3.425  -0.179  0.00  0.00    +0.081 A 
ATOM      9  C   UNL     1       3.559   2.010  -0.208  0.00  0.00    +0.267 A 
ATOM     10  O   UNL     1       4.608   1.412  -0.376  0.00  0.00    -0.267 OA
ATOM     11  N   UNL     1       2.402   1.333  -0.048  0.00  0.00    -0.267 N 
ATOM     12  C   UNL     1       2.417  -0.030  -0.075  0.00  0.00    +0.099 A 
ENDROOT
BRANCH   8  13
ATOM     13  C   UNL     1       4.722   4.174  -0.343  0.00  0.00    +0.037 C 
ATOM     14  C   UNL     1       5.705   4.111   0.602  0.00  0.00    +0.077 C 
ATOM     15  C   UNL     1       5.701   3.462   1.871  0.00  0.00    +0.259 C 
ATOM     16  O   UNL     1       4.722   2.849   2.258  0.00  0.00    -0.269 OA
ATOM     17  N   UNL     1       6.792   3.542   2.613  0.00  0.00    -0.251 N 
ATOM     18  C   UNL     1       7.875   4.228   2.187  0.00  0.00    +0.121 C 
ATOM     19  S   UNL     1       9.375   4.467   2.977  0.00  0.00    -0.027 S 
ATOM     20  S   UNL     1       7.344   4.824   0.588  0.00  0.00    -0.061 S 
BRANCH  17  21
ATOM     21  C   UNL     1       6.824   2.882   3.921  0.00  0.00    +0.105 C 
ATOM     22  C   UNL     1       7.064   3.933   5.017  0.00  0.00    +0.047 C 
ATOM     23  C   UNL     1       7.405   3.186   6.338  0.00  0.00    +0.168 C 
ATOM     24  S   UNL     1       8.500   1.850   5.697  0.00  0.00    -0.029 S 
ATOM     25  O   UNL     1       9.851   2.289   5.762  0.00  0.00    -0.174 OA
ATOM     26  O   UNL     1       8.135   0.620   6.306  0.00  0.00    -0.174 OA
ATOM     27  C   UNL     1       7.961   1.832   3.939  0.00  0.00    +0.188 C 
ENDBRANCH  17  21
ENDBRANCH   8  13
BRANCH   7  28
ATOM     28  N   UNL     1       2.221   5.445   0.054  0.00  0.00    -0.312 N 
ATOM     29  C   UNL     1       1.635   5.975  -1.184  0.00  0.00    +0.107 C 
ATOM     30  C   UNL     1       1.707   7.503  -1.171  0.00  0.00    +0.019 C 
ATOM     31  C   UNL     1       0.943   8.035   0.045  0.00  0.00    +0.003 C 
ATOM     32  C   UNL     1       1.541   7.430   1.318  0.00  0.00    +0.022 C 
ATOM     33  C   UNL     1       1.474   5.904   1.233  0.00  0.00    +0.072 C 
ATOM     34  C   UNL     1       2.090   5.295   2.494  0.00  0.00    +0.028 C 
ENDBRANCH   7  28
TORSDOF 3
