REMARK  Name = ZINC42596165
REMARK  6 active torsions:
REMARK  status: ('A' for Active; 'I' for Inactive)
REMARK    1  A    between atoms: C_1  and  C_2
REMARK    2  A    between atoms: C_5  and  N_8
REMARK    3  A    between atoms: C_9  and  C_11
REMARK    4  A    between atoms: C_11  and  C_13
REMARK    5  A    between atoms: C_11  and  N_14
REMARK    6  A    between atoms: C_18  and  C_21
REMARK                            x       y       z     vdW  Elec       q    Type
REMARK                         _______ _______ _______ _____ _____    ______ ____
ROOT
ATOM      1  N   UNL     1      -1.691  -3.293   5.952  0.00  0.00    +0.388 N 
ATOM      2  C   UNL     1      -2.148  -4.611   5.496  0.00  0.00    -0.078 C 
ATOM      3  C   UNL     1      -1.913  -5.646   6.598  0.00  0.00    -0.018 C 
ATOM      4  C   UNL     1      -2.695  -5.238   7.850  0.00  0.00    +0.009 C 
ATOM      5  C   UNL     1      -2.263  -3.831   8.273  0.00  0.00    +0.059 C 
ATOM      6  C   UNL     1      -2.485  -2.863   7.109  0.00  0.00    -0.065 C 
ATOM      7  H   UNL     1      -0.718  -3.349   6.215  0.00  0.00    -0.081 HD
ENDROOT
BRANCH   5   8
ATOM      8  C   UNL     1      -3.081  -3.389   9.459  0.00  0.00    +0.217 C 
ATOM      9  O   UNL     1      -4.175  -3.874   9.656  0.00  0.00    -0.275 OA
ATOM     10  N   UNL     1      -2.596  -2.456  10.302  0.00  0.00    -0.297 N 
ATOM     11  C   UNL     1      -1.240  -1.912  10.131  0.00  0.00    +0.136 C 
ATOM     12  C   UNL     1      -1.326  -0.382  10.150  0.00  0.00    +0.179 C 
ATOM     13  O   UNL     1      -2.034   0.035  11.320  0.00  0.00    -0.377 OA
ATOM     14  C   UNL     1      -3.389  -0.417  11.376  0.00  0.00    +0.179 C 
ATOM     15  C   UNL     1      -3.410  -1.945  11.416  0.00  0.00    +0.136 C 
ENDBRANCH   5   8
BRANCH   1  16
ATOM     16  C   UNL     1      -1.847  -2.319   4.864  0.00  0.00    +0.016 C 
ATOM     17  C   UNL     1      -1.357  -0.947   5.333  0.00  0.00    -0.004 C 
BRANCH  16  19
ATOM     18  N   UNL     1      -1.383  -2.361   2.434  0.00  0.00    -0.314 N 
ATOM     19  C   UNL     1      -1.035  -2.761   3.673  0.00  0.00    +0.199 C 
ATOM     20  O   UNL     1      -0.069  -3.478   3.830  0.00  0.00    -0.278 OA
ATOM     21  H   UNL     1      -2.155  -1.788   2.309  0.00  0.00    +0.149 HD
BRANCH  18  26
ATOM     22  C   UNL     1      -1.306   1.029  -0.628  0.00  0.00    +0.007 C 
ATOM     23  C   UNL     1      -0.794  -0.394  -0.396  0.00  0.00    -0.014 C 
ATOM     24  C   UNL     1      -1.982  -1.339  -0.209  0.00  0.00    +0.005 C 
ATOM     25  C   UNL     1      -1.470  -2.762   0.023  0.00  0.00    +0.022 C 
ATOM     26  C   UNL     1      -0.594  -2.791   1.277  0.00  0.00    +0.073 C 
ATOM     27  C   UNL     1       0.594  -1.846   1.090  0.00  0.00    +0.022 C 
ATOM     28  C   UNL     1       0.083  -0.422   0.858  0.00  0.00    +0.005 C 
ENDBRANCH  18  26
ENDBRANCH  16  19
ENDBRANCH   1  16
TORSDOF 4
