REMARK  Name = ZINC35396312
REMARK  4 active torsions:
REMARK  status: ('A' for Active; 'I' for Inactive)
REMARK    1  A    between atoms: C_1  and  C_2
REMARK    2  A    between atoms: C_2  and  N_3
REMARK    3  A    between atoms: N_25  and  C_28
REMARK    4  A    between atoms: C_32  and  C_34
REMARK                            x       y       z     vdW  Elec       q    Type
REMARK                         _______ _______ _______ _____ _____    ______ ____
ROOT
ATOM      1  N   UNL     1      -1.505  -1.230   0.339  0.00  0.00    -0.270 N 
ATOM      2  C   UNL     1      -2.366  -1.508   1.403  0.00  0.00    +0.042 A 
ATOM      3  C   UNL     1      -2.127  -1.577   2.773  0.00  0.00    +0.024 A 
ATOM      4  C   UNL     1      -3.156  -1.873   3.643  0.00  0.00    +0.002 A 
ATOM      5  C   UNL     1      -4.432  -2.104   3.162  0.00  0.00    +0.000 A 
ATOM      6  C   UNL     1      -4.678  -2.037   1.802  0.00  0.00    +0.008 A 
ATOM      7  C   UNL     1      -3.654  -1.741   0.931  0.00  0.00    +0.004 A 
ATOM      8  C   UNL     1      -3.579  -1.592  -0.563  0.00  0.00    +0.138 C 
ATOM      9  C   UNL     1      -2.140  -1.255  -0.848  0.00  0.00    +0.246 C 
ATOM     10  O   UNL     1      -1.647  -1.048  -1.937  0.00  0.00    -0.273 OA
ATOM     11  C   UNL     1      -4.516  -0.487  -1.063  0.00  0.00    +0.123 C 
ATOM     12  C   UNL     1      -5.778  -1.240  -1.567  0.00  0.00    +0.107 C 
ATOM     13  C   UNL     1      -5.476  -2.732  -1.335  0.00  0.00    +0.071 C 
ATOM     14  N   UNL     1      -3.993  -2.827  -1.250  0.00  0.00    -0.281 NA
ATOM     15  C   UNL     1      -3.548  -2.790  -2.663  0.00  0.00    +0.086 C 
ATOM     16  C   UNL     1      -4.607  -3.596  -3.442  0.00  0.00    +0.017 C 
ATOM     17  C   UNL     1      -5.898  -3.535  -2.579  0.00  0.00    +0.021 C 
ATOM     18  C   UNL     1      -6.862  -0.779  -0.618  0.00  0.00    +0.232 C 
ATOM     19  O   UNL     1      -8.021  -1.131  -0.655  0.00  0.00    -0.274 OA
ATOM     20  N   UNL     1      -6.341   0.077   0.269  0.00  0.00    -0.210 N 
ATOM     21  C   UNL     1      -5.021   0.324   0.110  0.00  0.00    +0.233 C 
ATOM     22  O   UNL     1      -4.346   1.066   0.790  0.00  0.00    -0.274 OA
ENDROOT
BRANCH  20  23
ATOM     23  C   UNL     1      -7.104   0.677   1.281  0.00  0.00    +0.045 A 
ATOM     24  C   UNL     1      -7.335   2.046   1.258  0.00  0.00    +0.025 A 
ATOM     25  C   UNL     1      -8.087   2.635   2.255  0.00  0.00    +0.022 A 
ATOM     26  C   UNL     1      -8.609   1.863   3.278  0.00  0.00    +0.053 A 
ATOM     27  C   UNL     1      -8.379   0.498   3.304  0.00  0.00    +0.075 A 
ATOM     28  C   UNL     1      -7.633  -0.096   2.304  0.00  0.00    +0.037 A 
ATOM     29 CL   UNL     1      -9.553   2.606   4.531  0.00  0.00    -0.083 Cl
BRANCH  27  30
ATOM     30  C   UNL     1      -8.947  -0.340   4.419  0.00  0.00    +0.419 C 
ATOM     31  F   UNL     1      -8.583  -1.677   4.229  0.00  0.00    -0.166 F 
ATOM     32  F   UNL     1      -8.445   0.111   5.644  0.00  0.00    -0.166 F 
ATOM     33  F   UNL     1     -10.342  -0.232   4.419  0.00  0.00    -0.166 F 
ENDBRANCH  27  30
ENDBRANCH  20  23
BRANCH   1  35
ATOM     34  C   UNL     1       0.119   0.566   0.684  0.00  0.00    +0.025 C 
ATOM     35  C   UNL     1      -0.078  -0.940   0.497  0.00  0.00    +0.110 C 
ENDBRANCH   1  35
TORSDOF 3
