REMARK  Name = ZINC51648744
REMARK  9 active torsions:
REMARK  status: ('A' for Active; 'I' for Inactive)
REMARK    1  A    between atoms: C_1  and  C_2
REMARK    2  A    between atoms: C_4  and  N_23
REMARK    3  A    between atoms: C_7  and  N_8
REMARK    4  A    between atoms: N_11  and  C_12
REMARK    5  A    between atoms: C_12  and  C_14
REMARK    6  A    between atoms: C_12  and  C_15
REMARK    7  A    between atoms: C_16  and  C_22
REMARK    8  A    between atoms: N_18  and  C_21
REMARK    9  A    between atoms: C_19  and  C_20
REMARK                            x       y       z     vdW  Elec       q    Type
REMARK                         _______ _______ _______ _____ _____    ______ ____
ROOT
ATOM      1  N   UNL     1      -0.114   0.063   2.421  0.00  0.00    -0.269 N 
ATOM      2  C   UNL     1       0.011  -0.619   3.577  0.00  0.00    +0.304 C 
ATOM      3  O   UNL     1       0.029  -1.835   3.566  0.00  0.00    -0.252 OA
ATOM      4  N   UNL     1       0.116   0.047   4.744  0.00  0.00    -0.292 N 
ATOM      5  H   UNL     1      -0.065   1.032   2.422  0.00  0.00    +0.156 HD
ATOM      6  H   UNL     1       0.102   1.017   4.752  0.00  0.00    +0.151 HD
ENDROOT
BRANCH   1  13
ATOM      7  C   UNL     1      -1.647   1.327   0.386  0.00  0.00    +0.046 C 
ATOM      8  C   UNL     1      -1.057  -0.047   0.199  0.00  0.00    -0.027 A 
ATOM      9  C   UNL     1      -1.249  -0.725  -0.989  0.00  0.00    +0.028 A 
ATOM     10  C   UNL     1      -0.704  -1.990  -1.162  0.00  0.00    +0.030 A 
ATOM     11  C   UNL     1       0.034  -2.574  -0.141  0.00  0.00    +0.025 A 
ATOM     12  C   UNL     1       0.227  -1.895   1.046  0.00  0.00    +0.025 A 
ATOM     13  C   UNL     1      -0.314  -0.628   1.217  0.00  0.00    +0.038 A 
BRANCH  10  14
ATOM     14  N   UNL     1      -0.899  -2.677  -2.365  0.00  0.00    -0.328 N 
ATOM     15  C   UNL     1      -0.225  -3.958  -2.584  0.00  0.00    +0.116 C 
ATOM     16  C   UNL     1      -1.268  -5.077  -2.667  0.00  0.00    +0.088 C 
ATOM     17  S   UNL     1      -2.442  -4.681  -3.998  0.00  0.00    -0.158 S 
ATOM     18  C   UNL     1      -3.005  -3.006  -3.568  0.00  0.00    +0.088 C 
ATOM     19  C   UNL     1      -1.780  -2.110  -3.387  0.00  0.00    +0.116 C 
ENDBRANCH  10  14
ENDBRANCH   1  13
BRANCH   4  20
ATOM     20  C   UNL     1       0.252  -0.695   6.000  0.00  0.00    +0.105 C 
ATOM     21  C   UNL     1      -1.113  -1.248   6.416  0.00  0.00    +0.033 C 
BRANCH  20  22
ATOM     22  C   UNL     1       0.768   0.228   7.074  0.00  0.00    +0.016 A 
ATOM     23  C   UNL     1       0.269   1.499   7.377  0.00  0.00    +0.065 A 
ATOM     24  N   UNL     1       0.972   1.989   8.366  0.00  0.00    -0.176 NA
ATOM     25  N   UNL     1       1.942   1.044   8.724  0.00  0.00    -0.271 N 
ATOM     26  C   UNL     1       1.792  -0.030   7.920  0.00  0.00    +0.041 A 
ATOM     27  C   UNL     1       2.620  -1.289   7.956  0.00  0.00    +0.065 C 
ATOM     28  C   UNL     1       2.939   1.192   9.787  0.00  0.00    +0.172 C 
ATOM     29  C   UNL     1      -0.880   2.186   6.684  0.00  0.00    +0.068 C 
ENDBRANCH  20  22
ENDBRANCH   4  20
TORSDOF 4
