REMARK  Name = ZINC02914790
REMARK  2 active torsions:
REMARK  status: ('A' for Active; 'I' for Inactive)
REMARK    1  A    between atoms: C_3  and  C_8
REMARK    2  A    between atoms: C_10  and  C_18
REMARK                            x       y       z     vdW  Elec       q    Type
REMARK                         _______ _______ _______ _____ _____    ______ ____
ROOT
ATOM      1  C   UNL     1       3.653   2.157  -0.022  0.00  0.00    +0.055 C 
ATOM      2  C   UNL     1       4.944   1.389  -0.044  0.00  0.00    +0.088 C 
ATOM      3  C   UNL     1       6.022   2.137  -0.836  0.00  0.00    +0.148 C 
ATOM      4  N   UNL     1       5.940   3.553  -0.487  0.00  0.00    -0.202 N 
ATOM      5  C   UNL     1       4.770   4.157  -0.108  0.00  0.00    +0.270 A 
ATOM      6  N   UNL     1       5.050   5.415   0.114  0.00  0.00    -0.088 NA
ATOM      7  N   UNL     1       6.303   5.637  -0.089  0.00  0.00    -0.021 NA
ATOM      8  N   UNL     1       6.907   4.552  -0.454  0.00  0.00    -0.042 NA
ATOM      9  N   UNL     1       3.607   3.462  -0.015  0.00  0.00    -0.214 NA
ENDROOT
BRANCH   1  12
ATOM     10  C   UNL     1      -0.017   1.379   0.010  0.00  0.00    +0.002 A 
ATOM     11  C   UNL     1       1.166   2.089   0.002  0.00  0.00    +0.010 A 
ATOM     12  C   UNL     1       2.387   1.407  -0.013  0.00  0.00    -0.003 A 
ATOM     13  C   UNL     1       2.398   0.008  -0.021  0.00  0.00    +0.025 A 
ATOM     14  C   UNL     1       1.207  -0.687  -0.013  0.00  0.00    +0.018 A 
ATOM     15  C   UNL     1       0.002  -0.004   0.002  0.00  0.00    +0.015 A 
ATOM     16 BR   UNL     1       1.219  -2.578  -0.024  0.00  0.00    -0.050 Br
ENDBRANCH   1  12
BRANCH   3  17
ATOM     17  C   UNL     1       5.783   1.962  -2.314  0.00  0.00    -0.022 A 
ATOM     18  C   UNL     1       4.600   2.401  -2.879  0.00  0.00    +0.007 A 
ATOM     19  C   UNL     1       4.380   2.241  -4.234  0.00  0.00    +0.015 A 
ATOM     20  C   UNL     1       5.344   1.641  -5.025  0.00  0.00    +0.018 A 
ATOM     21  C   UNL     1       6.527   1.201  -4.459  0.00  0.00    +0.015 A 
ATOM     22  C   UNL     1       6.748   1.366  -3.104  0.00  0.00    +0.007 A 
ATOM     23 BR   UNL     1       5.043   1.420  -6.879  0.00  0.00    -0.050 Br
ENDBRANCH   3  17
TORSDOF 2
