REMARK  Name = ZINC01936570
REMARK  7 active torsions:
REMARK  status: ('A' for Active; 'I' for Inactive)
REMARK    1  A    between atoms: C_5  and  C_7
REMARK    2  A    between atoms: C_7  and  O_8
REMARK    3  A    between atoms: O_8  and  C_9
REMARK    4  A    between atoms: C_12  and  N_15
REMARK    5  A    between atoms: N_15  and  C_16
REMARK    6  A    between atoms: C_16  and  C_17
REMARK    7  A    between atoms: N_19  and  C_20
REMARK                            x       y       z     vdW  Elec       q    Type
REMARK                         _______ _______ _______ _____ _____    ______ ____
ROOT
ATOM      1  C   UNL     1      -2.079  -3.019   0.028  0.00  0.00    +0.121 A 
ATOM      2  C   UNL     1      -3.368  -2.507   0.052  0.00  0.00    +0.047 A 
ATOM      3  C   UNL     1      -4.452  -3.362   0.045  0.00  0.00    +0.026 A 
ATOM      4  C   UNL     1      -4.252  -4.736   0.026  0.00  0.00    +0.028 A 
ATOM      5  C   UNL     1      -2.961  -5.248   0.007  0.00  0.00    +0.026 A 
ATOM      6  C   UNL     1      -1.878  -4.391   0.008  0.00  0.00    +0.047 A 
ENDROOT
BRANCH   4   7
ATOM      7  N   UNL     1      -5.350  -5.604   0.025  0.00  0.00    -0.335 N 
ATOM      8  H   UNL     1      -5.210  -6.563   0.011  0.00  0.00    +0.147 HD
BRANCH   7   9
ATOM      9  C   UNL     1      -6.711  -5.062   0.045  0.00  0.00    +0.198 C 
BRANCH   9  10
ATOM     10  C   UNL     1      -7.703  -6.197   0.039  0.00  0.00    +0.234 C 
ATOM     11  O   UNL     1      -7.311  -7.345   0.020  0.00  0.00    -0.274 OA
ATOM     12  N   UNL     1      -9.025  -5.937   0.055  0.00  0.00    -0.284 N 
ATOM     13  H   UNL     1      -9.338  -5.022   0.137  0.00  0.00    +0.155 HD
BRANCH  12  14
ATOM     14  C   UNL     1      -9.947  -6.986  -0.048  0.00  0.00    +0.034 A 
ATOM     15  C   UNL     1     -11.143  -6.796  -0.728  0.00  0.00    +0.026 A 
ATOM     16  C   UNL     1     -12.048  -7.834  -0.833  0.00  0.00    +0.040 A 
ATOM     17  C   UNL     1     -11.768  -9.059  -0.252  0.00  0.00    +0.124 A 
ATOM     18  C   UNL     1     -10.579  -9.249   0.431  0.00  0.00    +0.040 A 
ATOM     19  C   UNL     1      -9.668  -8.215   0.533  0.00  0.00    +0.026 A 
ATOM     20  F   UNL     1     -12.657 -10.072  -0.352  0.00  0.00    -0.205 F 
ENDBRANCH  12  14
ENDBRANCH   9  10
ENDBRANCH   7   9
ENDBRANCH   4   7
BRANCH   1  21
ATOM     21  O   UNL     1      -1.012  -2.176   0.029  0.00  0.00    -0.487 OA
BRANCH  21  22
ATOM     22  C   UNL     1      -1.293  -0.775   0.049  0.00  0.00    +0.266 C 
BRANCH  22  27
ATOM     23  C   UNL     1       2.396   0.030   0.025  0.00  0.00    +0.000 A 
ATOM     24  C   UNL     1       2.378   1.412   0.043  0.00  0.00    +0.001 A 
ATOM     25  C   UNL     1       1.172   2.087   0.063  0.00  0.00    +0.020 A 
ATOM     26  C   UNL     1      -0.017   1.380   0.065  0.00  0.00    +0.047 A 
ATOM     27  C   UNL     1       0.002  -0.004   0.047  0.00  0.00    +0.008 A 
ATOM     28  C   UNL     1       1.208  -0.678   0.027  0.00  0.00    +0.008 A 
ATOM     29 CL   UNL     1      -1.532   2.227   0.083  0.00  0.00    -0.083 Cl
ENDBRANCH  22  27
ENDBRANCH  21  22
ENDBRANCH   1  21
TORSDOF 7
