REMARK  Name = ZINC09642390
REMARK  6 active torsions:
REMARK  status: ('A' for Active; 'I' for Inactive)
REMARK    1  A    between atoms: C_1  and  C_2
REMARK    2  A    between atoms: C_4  and  C_35
REMARK    3  A    between atoms: N_5  and  C_29
REMARK    4  A    between atoms: N_19  and  C_20
REMARK    5  A    between atoms: C_25  and  O_26
REMARK    6  A    between atoms: O_26  and  C_27
REMARK                            x       y       z     vdW  Elec       q    Type
REMARK                         _______ _______ _______ _____ _____    ______ ____
ROOT
ATOM      1  C   UNL     1       3.225   7.503   1.673  0.00  0.00    +0.068 C 
ATOM      2  C   UNL     1       2.022   7.234   0.806  0.00  0.00    +0.072 A 
ATOM      3  C   UNL     1       1.843   5.965   0.213  0.00  0.00    +0.049 A 
ATOM      4  C   UNL     1       2.518   4.764   0.191  0.00  0.00    +0.051 A 
ATOM      5  N   UNL     1       1.817   3.912  -0.578  0.00  0.00    -0.236 N 
ATOM      6  N   UNL     1       0.672   4.549  -1.075  0.00  0.00    -0.163 NA
ATOM      7  C   UNL     1       0.640   5.781  -0.623  0.00  0.00    +0.137 A 
ATOM      8  C   UNL     1      -0.245   6.938  -0.751  0.00  0.00    +0.172 A 
ATOM      9  N   UNL     1       0.088   8.048  -0.121  0.00  0.00    -0.132 NA
ATOM     10  N   UNL     1       1.138   8.174   0.596  0.00  0.00    -0.152 NA
ATOM     11  N   UNL     1      -1.401   6.870  -1.514  0.00  0.00    -0.309 N 
ATOM     12  C   UNL     1      -1.100   6.452  -2.889  0.00  0.00    +0.125 C 
ATOM     13  C   UNL     1      -2.411   6.215  -3.646  0.00  0.00    +0.128 C 
ATOM     14  N   UNL     1      -3.242   7.423  -3.531  0.00  0.00    -0.282 N 
ATOM     15  C   UNL     1      -3.475   7.982  -2.191  0.00  0.00    +0.128 C 
ATOM     16  C   UNL     1      -2.122   8.150  -1.492  0.00  0.00    +0.125 C 
ATOM     17  C   UNL     1      -3.776   8.002  -4.625  0.00  0.00    +0.307 C 
ATOM     18  O   UNL     1      -4.394   9.043  -4.521  0.00  0.00    -0.252 OA
ATOM     19  N   UNL     1      -3.623   7.427  -5.834  0.00  0.00    -0.266 N 
ATOM     20  C   UNL     1       3.811   4.461   0.901  0.00  0.00    +0.066 C 
ATOM     21  H   UNL     1      -3.089   6.622  -5.925  0.00  0.00    +0.156 HD
ENDROOT
BRANCH  19  22
ATOM     22  C   UNL     1      -4.237   7.991  -6.961  0.00  0.00    +0.078 A 
ATOM     23  C   UNL     1      -4.583   9.334  -6.964  0.00  0.00    +0.047 A 
ATOM     24  C   UNL     1      -5.184   9.890  -8.079  0.00  0.00    +0.043 A 
ATOM     25  C   UNL     1      -5.449   9.107  -9.188  0.00  0.00    +0.024 A 
ATOM     26  C   UNL     1      -5.112   7.766  -9.189  0.00  0.00    +0.049 A 
ATOM     27  C   UNL     1      -4.505   7.204  -8.078  0.00  0.00    +0.141 A 
ATOM     28 CL   UNL     1      -5.610  11.573  -8.085  0.00  0.00    -0.083 Cl
BRANCH  27  29
ATOM     29  O   UNL     1      -4.172   5.885  -8.078  0.00  0.00    -0.493 OA
ATOM     30  C   UNL     1      -4.477   5.139  -9.257  0.00  0.00    +0.277 C 
ENDBRANCH  27  29
ENDBRANCH  19  22
BRANCH   5  31
ATOM     31  C   UNL     1       2.181   2.586  -0.846  0.00  0.00    +0.066 A 
ATOM     32  C   UNL     1       1.203   1.609  -0.980  0.00  0.00    +0.028 A 
ATOM     33  C   UNL     1       1.565   0.303  -1.245  0.00  0.00    +0.002 A 
ATOM     34  C   UNL     1       2.899  -0.033  -1.377  0.00  0.00    +0.000 A 
ATOM     35  C   UNL     1       3.876   0.937  -1.244  0.00  0.00    +0.002 A 
ATOM     36  C   UNL     1       3.521   2.245  -0.979  0.00  0.00    +0.028 A 
ENDBRANCH   5  31
TORSDOF 3
