REMARK  Name = ZINC38511466
REMARK  7 active torsions:
REMARK  status: ('A' for Active; 'I' for Inactive)
REMARK    1  A    between atoms: C_1  and  C_2
REMARK    2  A    between atoms: C_2  and  C_3
REMARK    3  A    between atoms: C_2  and  S_4
REMARK    4  A    between atoms: S_4  and  C_7
REMARK    5  A    between atoms: C_11  and  C_13
REMARK    6  A    between atoms: N_15  and  C_16
REMARK    7  A    between atoms: N_28  and  C_31
REMARK                            x       y       z     vdW  Elec       q    Type
REMARK                         _______ _______ _______ _____ _____    ______ ____
ROOT
ATOM      1  C   UNL     1      -1.267  -6.999   4.170  0.00  0.00    +0.035 A 
ATOM      2  C   UNL     1      -1.464  -6.280   5.346  0.00  0.00    +0.025 A 
ATOM      3  C   UNL     1      -1.520  -6.898   6.557  0.00  0.00    +0.031 A 
ATOM      4  C   UNL     1      -1.380  -8.301   6.665  0.00  0.00    +0.080 A 
ATOM      5  C   UNL     1      -1.183  -9.005   5.455  0.00  0.00    +0.043 A 
ATOM      6  C   UNL     1      -1.132  -8.380   4.235  0.00  0.00    +0.040 A 
ATOM      7  S   UNL     1      -1.059 -10.688   6.012  0.00  0.00    -0.052 S 
ATOM      8  C   UNL     1      -1.270 -10.363   7.757  0.00  0.00    +0.162 A 
ATOM      9  N   UNL     1      -1.412  -9.058   7.784  0.00  0.00    -0.225 NA
ATOM     10  N   UNL     1      -1.281 -11.258   8.809  0.00  0.00    -0.313 N 
ATOM     11  C   UNL     1      -1.097 -12.699   8.578  0.00  0.00    +0.088 C 
ATOM     12  C   UNL     1      -0.007 -13.208   9.526  0.00  0.00    -0.060 C 
ATOM     13  N   UNL     1      -0.357 -12.855  10.908  0.00  0.00    +0.380 N 
ATOM     14  C   UNL     1      -0.367 -11.395  11.064  0.00  0.00    -0.060 C 
ATOM     15  C   UNL     1      -1.470 -10.796  10.193  0.00  0.00    +0.088 C 
ATOM     16  C   UNL     1       0.631 -13.438  11.826  0.00  0.00    -0.096 C 
ATOM     17  H   UNL     1      -1.272 -13.221  11.126  0.00  0.00    -0.082 HD
ENDROOT
BRANCH   1  20
ATOM     18  C   UNL     1      -0.427  -6.815   1.950  0.00  0.00    +0.248 C 
ATOM     19  O   UNL     1       0.308  -7.761   2.162  0.00  0.00    -0.270 OA
ATOM     20  N   UNL     1      -1.214  -6.339   2.936  0.00  0.00    -0.281 N 
ATOM     21  H   UNL     1      -1.742  -5.539   2.791  0.00  0.00    +0.155 HD
BRANCH  18  26
ATOM     22  C   UNL     1       0.323  -6.089  -1.657  0.00  0.00    +0.089 A 
ATOM     23  C   UNL     1      -0.515  -5.013  -1.895  0.00  0.00    +0.027 A 
ATOM     24  C   UNL     1      -1.324  -4.522  -0.886  0.00  0.00    +0.003 A 
ATOM     25  C   UNL     1      -1.300  -5.103   0.365  0.00  0.00    +0.013 A 
ATOM     26  C   UNL     1      -0.458  -6.189   0.612  0.00  0.00    +0.039 A 
ATOM     27  C   UNL     1       0.352  -6.682  -0.412  0.00  0.00    +0.040 A 
BRANCH  22  28
ATOM     28  S   UNL     1       1.350  -6.705  -2.949  0.00  0.00    -0.001 S 
ATOM     29  O   UNL     1       2.445  -7.318  -2.281  0.00  0.00    -0.169 OA
ATOM     30  O   UNL     1       1.557  -5.594  -3.810  0.00  0.00    -0.169 OA
BRANCH  28  32
ATOM     31  C   UNL     1       1.185  -8.661  -4.855  0.00  0.00    +0.032 C 
ATOM     32  C   UNL     1       0.344  -7.963  -3.784  0.00  0.00    +0.130 C 
ATOM     33  C   UNL     1      -0.134  -8.995  -2.760  0.00  0.00    +0.032 C 
ENDBRANCH  28  32
ENDBRANCH  22  28
ENDBRANCH  18  26
ENDBRANCH   1  20
TORSDOF 4
