REMARK  Name = ZINC55709832
REMARK  6 active torsions:
REMARK  status: ('A' for Active; 'I' for Inactive)
REMARK    1  A    between atoms: C_1  and  C_2
REMARK    2  A    between atoms: C_2  and  C_4
REMARK    3  A    between atoms: C_2  and  N_17
REMARK    4  A    between atoms: C_7  and  N_10
REMARK    5  A    between atoms: N_13  and  C_16
REMARK    6  A    between atoms: C_18  and  C_20
REMARK                            x       y       z     vdW  Elec       q    Type
REMARK                         _______ _______ _______ _____ _____    ______ ____
ROOT
ATOM      1  C   UNL     1      -0.019   1.526  -0.007  0.00  0.00    +0.033 C 
ATOM      2  C   UNL     1       0.002  -0.004   0.002  0.00  0.00    +0.100 C 
ENDROOT
BRANCH   2   3
ATOM      3  C   UNL     1      -1.412  -0.526   0.013  0.00  0.00    -0.027 A 
ATOM      4  C   UNL     1      -2.127  -0.557   1.196  0.00  0.00    +0.007 A 
ATOM      5  C   UNL     1      -3.422  -1.035   1.210  0.00  0.00    +0.023 A 
ATOM      6  C   UNL     1      -4.008  -1.483   0.032  0.00  0.00    +0.030 A 
ATOM      7  C   UNL     1      -3.287  -1.450  -1.155  0.00  0.00    +0.023 A 
ATOM      8  C   UNL     1      -1.993  -0.967  -1.162  0.00  0.00    +0.007 A 
BRANCH   6   9
ATOM      9  N   UNL     1      -5.318  -1.967   0.042  0.00  0.00    -0.333 N 
ATOM     10  C   UNL     1      -5.997  -2.337  -1.209  0.00  0.00    +0.086 C 
ATOM     11  C   UNL     1      -6.590  -3.740  -1.044  0.00  0.00    -0.060 C 
ATOM     12  N   UNL     1      -7.452  -3.769   0.145  0.00  0.00    +0.380 N 
ATOM     13  C   UNL     1      -6.648  -3.535   1.351  0.00  0.00    -0.060 C 
ATOM     14  C   UNL     1      -6.055  -2.127   1.305  0.00  0.00    +0.086 C 
ATOM     15  C   UNL     1      -8.106  -5.081   0.242  0.00  0.00    -0.096 C 
ATOM     16  H   UNL     1      -8.155  -3.050   0.067  0.00  0.00    -0.082 HD
ENDBRANCH   6   9
ENDBRANCH   2   3
BRANCH   2  17
ATOM     17  N   UNL     1       0.706  -0.476   1.197  0.00  0.00    -0.305 N 
ATOM     18  C   UNL     1       2.049  -0.587   1.189  0.00  0.00    +0.245 C 
ATOM     19  O   UNL     1       2.677  -0.294   0.189  0.00  0.00    -0.270 OA
ATOM     20  H   UNL     1       0.205  -0.709   1.994  0.00  0.00    +0.150 HD
BRANCH  18  21
ATOM     21  C   UNL     1       2.758  -1.062   2.393  0.00  0.00    +0.039 A 
ATOM     22  C   UNL     1       2.033  -1.404   3.542  0.00  0.00    +0.015 A 
ATOM     23  C   UNL     1       2.676  -1.844   4.662  0.00  0.00    +0.028 A 
ATOM     24  C   UNL     1       4.062  -1.958   4.671  0.00  0.00    +0.066 A 
ATOM     25  C   UNL     1       4.807  -1.620   3.526  0.00  0.00    +0.089 A 
ATOM     26  C   UNL     1       4.145  -1.176   2.382  0.00  0.00    +0.043 A 
ATOM     27  N   UNL     1       6.115  -1.830   3.828  0.00  0.00    -0.236 NA
ATOM     28  C   UNL     1       6.215  -2.263   5.051  0.00  0.00    +0.197 A 
ATOM     29  N   UNL     1       4.981  -2.360   5.616  0.00  0.00    -0.344 N 
ATOM     30  H   UNL     1       4.785  -2.658   6.518  0.00  0.00    +0.167 HD
ENDBRANCH  18  21
ENDBRANCH   2  17
TORSDOF 4
