REMARK  Name = ZINC59960198
REMARK  16 active torsions:
REMARK  status: ('A' for Active; 'I' for Inactive)
REMARK    1  A    between atoms: C_1  and  C_2
REMARK    2  A    between atoms: C_2  and  C_3
REMARK    3  A    between atoms: C_6  and  O_9
REMARK    4  A    between atoms: O_9  and  C_10
REMARK    5  A    between atoms: C_10  and  C_11
REMARK    6  A    between atoms: C_14  and  S_20
REMARK    7  A    between atoms: N_15  and  C_16
REMARK    8  A    between atoms: C_16  and  C_17
REMARK    9  A    between atoms: C_17  and  C_18
REMARK   10  A    between atoms: C_17  and  C_19
REMARK   11  A    between atoms: S_20  and  C_21
REMARK   12  A    between atoms: C_21  and  C_22
REMARK   13  A    between atoms: C_22  and  C_23
REMARK   14  A    between atoms: C_23  and  O_24
REMARK   15  A    between atoms: O_24  and  C_25
REMARK   16  A    between atoms: C_25  and  C_26
REMARK                            x       y       z     vdW  Elec       q    Type
REMARK                         _______ _______ _______ _____ _____    ______ ____
ROOT
ATOM      1  C   UNL     1       4.577  -2.509  -5.864  0.00  0.00    +0.172 A 
ATOM      2  N   UNL     1       4.679  -3.750  -6.248  0.00  0.00    -0.130 NA
ATOM      3  N   UNL     1       5.168  -3.805  -7.436  0.00  0.00    -0.122 NA
ATOM      4  C   UNL     1       5.406  -2.592  -7.877  0.00  0.00    +0.192 A 
ATOM      5  N   UNL     1       5.031  -1.726  -6.889  0.00  0.00    -0.303 N 
ENDROOT
BRANCH   1   6
ATOM      6  C   UNL     1       4.050  -2.025  -4.538  0.00  0.00    +0.305 C 
BRANCH   6   7
ATOM      7  O   UNL     1       2.638  -1.822  -4.632  0.00  0.00    -0.484 OA
BRANCH   7  11
ATOM      8  C   UNL     1       0.707  -0.490  -1.238  0.00  0.00    -0.047 A 
ATOM      9  C   UNL     1      -0.012  -0.718  -2.397  0.00  0.00    +0.007 A 
ATOM     10  C   UNL     1       0.632  -1.164  -3.534  0.00  0.00    +0.046 A 
ATOM     11  C   UNL     1       2.002  -1.383  -3.514  0.00  0.00    +0.121 A 
ATOM     12  C   UNL     1       2.722  -1.153  -2.350  0.00  0.00    +0.046 A 
ATOM     13  C   UNL     1       2.074  -0.702  -1.216  0.00  0.00    +0.007 A 
BRANCH   8  15
ATOM     14  C   UNL     1      -0.019   1.526   0.010  0.00  0.00    +0.009 C 
ATOM     15  C   UNL     1       0.002  -0.004   0.002  0.00  0.00    +0.032 C 
ENDBRANCH   8  15
ENDBRANCH   7  11
ENDBRANCH   6   7
ENDBRANCH   1   6
BRANCH   5  16
ATOM     16  C   UNL     1       5.104  -0.264  -6.920  0.00  0.00    +0.128 C 
BRANCH  16  17
ATOM     17  C   UNL     1       6.463   0.191  -6.382  0.00  0.00    +0.003 C 
ATOM     18  C   UNL     1       7.570  -0.290  -7.322  0.00  0.00    +0.009 C 
ATOM     19  C   UNL     1       6.493   1.718  -6.298  0.00  0.00    +0.009 C 
ENDBRANCH  16  17
ENDBRANCH   5  16
BRANCH   4  20
ATOM     20  S   UNL     1       6.076  -2.162  -9.448  0.00  0.00    -0.086 S 
BRANCH  20  21
ATOM     21  C   UNL     1       6.340  -3.759 -10.265  0.00  0.00    +0.079 C 
BRANCH  21  22
ATOM     22  C   UNL     1       6.927  -3.529 -11.659  0.00  0.00    +0.039 C 
BRANCH  22  23
ATOM     23  C   UNL     1       7.150  -4.877 -12.348  0.00  0.00    +0.161 C 
BRANCH  23  24
ATOM     24  O   UNL     1       7.698  -4.661 -13.650  0.00  0.00    -0.371 OA
BRANCH  24  25
ATOM     25  C   UNL     1       7.945  -5.863 -14.383  0.00  0.00    +0.272 C 
BRANCH  25  26
ATOM     26  C   UNL     1       8.528  -5.513 -15.754  0.00  0.00    +0.413 C 
ATOM     27  F   UNL     1       9.729  -4.814 -15.586  0.00  0.00    -0.168 F 
ATOM     28  F   UNL     1       8.771  -6.690 -16.471  0.00  0.00    -0.168 F 
ATOM     29  F   UNL     1       7.620  -4.717 -16.458  0.00  0.00    -0.168 F 
ENDBRANCH  25  26
ENDBRANCH  24  25
ENDBRANCH  23  24
ENDBRANCH  22  23
ENDBRANCH  21  22
ENDBRANCH  20  21
ENDBRANCH   4  20
TORSDOF 13
