REMARK  Name = ZINC67295790
REMARK  7 active torsions:
REMARK  status: ('A' for Active; 'I' for Inactive)
REMARK    1  A    between atoms: C_1  and  C_2
REMARK    2  A    between atoms: C_6  and  N_8
REMARK    3  A    between atoms: C_9  and  C_11
REMARK    4  A    between atoms: C_17  and  O_30
REMARK    5  A    between atoms: N_21  and  C_22
REMARK    6  A    between atoms: C_26  and  C_28
REMARK    7  A    between atoms: O_30  and  C_31
REMARK                            x       y       z     vdW  Elec       q    Type
REMARK                         _______ _______ _______ _____ _____    ______ ____
ROOT
ATOM      1  C   UNL     1      -0.170  -4.648   3.755  0.00  0.00    +0.098 A 
ATOM      2  C   UNL     1      -0.141  -6.034   3.830  0.00  0.00    +0.030 A 
ATOM      3  C   UNL     1      -0.195  -6.637   5.164  0.00  0.00    +0.022 A 
ATOM      4  C   UNL     1       0.093  -7.996   5.349  0.00  0.00    +0.012 A 
ATOM      5  C   UNL     1       0.042  -8.537   6.602  0.00  0.00    +0.004 A 
ATOM      6  C   UNL     1      -0.295  -7.753   7.696  0.00  0.00    +0.049 A 
ATOM      7  C   UNL     1      -0.587  -6.409   7.537  0.00  0.00    +0.163 A 
ATOM      8  C   UNL     1      -0.541  -5.839   6.269  0.00  0.00    +0.179 A 
ATOM      9  O   UNL     1      -0.831  -4.527   6.090  0.00  0.00    -0.435 OA
ATOM     10  C   UNL     1      -0.246  -3.907   5.030  0.00  0.00    +0.212 A 
ATOM     11  N   UNL     1       0.231  -2.686   5.133  0.00  0.00    -0.325 N 
ATOM     12  H   UNL     1       0.731  -2.296   4.399  0.00  0.00    +0.169 HD
ENDROOT
BRANCH  11  13
ATOM     13  C   UNL     1       0.022  -1.964   6.277  0.00  0.00    +0.042 A 
ATOM     14  C   UNL     1      -1.242  -1.944   6.872  0.00  0.00    +0.028 A 
ATOM     15  C   UNL     1      -1.447  -1.215   8.025  0.00  0.00    +0.040 A 
ATOM     16  C   UNL     1      -0.402  -0.504   8.593  0.00  0.00    +0.126 A 
ATOM     17  C   UNL     1       0.854  -0.520   8.007  0.00  0.00    -0.013 A 
ATOM     18  C   UNL     1       1.072  -1.250   6.857  0.00  0.00    +0.031 A 
ATOM     19  C   UNL     1       1.985   0.257   8.631  0.00  0.00    +0.047 C 
ATOM     20  F   UNL     1      -0.608   0.208   9.723  0.00  0.00    -0.205 F 
ENDBRANCH  11  13
BRANCH   1  22
ATOM     21  N   UNL     1      -0.289  -2.612   2.410  0.00  0.00    -0.266 N 
ATOM     22  C   UNL     1      -0.119  -3.948   2.461  0.00  0.00    +0.254 C 
ATOM     23  O   UNL     1       0.075  -4.575   1.437  0.00  0.00    -0.270 OA
ATOM     24  H   UNL     1      -0.396  -2.105   3.231  0.00  0.00    +0.157 HD
BRANCH  21  30
ATOM     25  C   UNL     1      -1.556   1.252  -0.119  0.00  0.00    +0.065 C 
ATOM     26  C   UNL     1      -0.910  -0.108  -0.062  0.00  0.00    +0.040 A 
ATOM     27  C   UNL     1      -0.370  -0.655  -1.209  0.00  0.00    +0.023 A 
ATOM     28  C   UNL     1       0.224  -1.908  -1.150  0.00  0.00    +0.005 A 
ATOM     29  C   UNL     1       0.253  -2.569   0.066  0.00  0.00    +0.044 A 
ATOM     30  C   UNL     1      -0.311  -1.958   1.180  0.00  0.00    +0.125 A 
ATOM     31  N   UNL     1      -0.864  -0.759   1.085  0.00  0.00    -0.237 NA
ENDBRANCH  21  30
ENDBRANCH   1  22
BRANCH   7  32
ATOM     32  O   UNL     1      -0.916  -5.650   8.616  0.00  0.00    -0.491 OA
ATOM     33  C   UNL     1      -0.942  -6.304   9.886  0.00  0.00    +0.277 C 
ENDBRANCH   7  32
TORSDOF 4
