REMARK  Name = ZINC16009883
REMARK  3 active torsions:
REMARK  status: ('A' for Active; 'I' for Inactive)
REMARK    1  A    between atoms: C_1  and  C_2
REMARK    2  A    between atoms: N_23  and  C_26
REMARK    3  A    between atoms: C_30  and  N_32
REMARK                            x       y       z     vdW  Elec       q    Type
REMARK                         _______ _______ _______ _____ _____    ______ ____
ROOT
ATOM      1  C   UNL     1      -0.059   5.349   0.035  0.00  0.00    +0.046 C 
ATOM      2  C   UNL     1      -0.045   3.842   0.025  0.00  0.00    -0.028 A 
ATOM      3  C   UNL     1       1.157   3.166   0.008  0.00  0.00    +0.025 A 
ATOM      4  C   UNL     1       1.178   1.782   0.000  0.00  0.00    +0.042 A 
ATOM      5  C   UNL     1      -0.013   1.076   0.008  0.00  0.00    +0.024 A 
ATOM      6  C   UNL     1      -1.215   1.746   0.017  0.00  0.00    -0.026 A 
ATOM      7  C   UNL     1      -1.247   3.138   0.034  0.00  0.00    +0.039 A 
ATOM      8  N   UNL     1      -2.568   3.591   0.054  0.00  0.00    -0.286 N 
ATOM      9  C   UNL     1      -3.453   2.576   0.056  0.00  0.00    +0.212 C 
ATOM     10  O   UNL     1      -4.662   2.669   0.075  0.00  0.00    -0.277 OA
ATOM     11  C   UNL     1      -2.650   1.303   0.030  0.00  0.00    +0.053 C 
ATOM     12  C   UNL     1      -3.031   0.347  -1.012  0.00  0.00    +0.089 C 
ATOM     13  C   UNL     1      -2.255  -0.954  -0.553  0.00  0.00    +0.074 C 
ATOM     14  C   UNL     1      -2.534  -0.907   0.951  0.00  0.00    -0.054 C 
ATOM     15  C   UNL     1      -4.397   0.521   1.481  0.00  0.00    -0.076 C 
ATOM     16  C   UNL     1      -4.747  -0.880   2.029  0.00  0.00    -0.020 C 
ATOM     17  C   UNL     1      -3.740  -1.806   1.290  0.00  0.00    -0.016 C 
ATOM     18  C   UNL     1      -3.024  -1.894  -1.444  0.00  0.00    +0.228 C 
ATOM     19  O   UNL     1      -3.369  -3.029  -1.193  0.00  0.00    -0.275 OA
ATOM     20  N   UNL     1      -3.249  -1.192  -2.598  0.00  0.00    -0.210 N 
ATOM     21  C   UNL     1      -3.008   0.151  -2.445  0.00  0.00    +0.229 C 
ATOM     22  O   UNL     1      -2.821   0.979  -3.311  0.00  0.00    -0.275 OA
ATOM     23 CL   UNL     1       2.693   0.935  -0.018  0.00  0.00    -0.084 Cl
ATOM     24  H   UNL     1      -2.819   4.528   0.065  0.00  0.00    +0.155 HD
ATOM     25  N   UNL     1      -2.950   0.485   1.228  0.00  0.00    +0.395 N 
ATOM     26  H   UNL     1      -2.443   0.850   2.043  0.00  0.00    -0.079 HD
ENDROOT
BRANCH  20  27
ATOM     27  C   UNL     1      -3.662  -1.783  -3.800  0.00  0.00    +0.046 A 
ATOM     28  C   UNL     1      -3.868  -0.997  -4.926  0.00  0.00    +0.024 A 
ATOM     29  C   UNL     1      -4.275  -1.582  -6.109  0.00  0.00    +0.004 A 
ATOM     30  C   UNL     1      -4.477  -2.948  -6.173  0.00  0.00    +0.033 A 
ATOM     31  C   UNL     1      -4.272  -3.733  -5.054  0.00  0.00    +0.128 A 
ATOM     32  C   UNL     1      -3.860  -3.155  -3.869  0.00  0.00    +0.056 A 
BRANCH  31  33
ATOM     33  N   UNL     1      -4.490  -5.196  -5.127  0.00  0.00    +0.056 N 
ATOM     34  O   UNL     1      -4.849  -5.707  -6.172  0.00  0.00    -0.126 OA
ATOM     35  O   UNL     1      -4.310  -5.888  -4.141  0.00  0.00    -0.126 OA
ENDBRANCH  31  33
ENDBRANCH  20  27
TORSDOF 2
