REMARK  Name = ZINC66707124
REMARK  3 active torsions:
REMARK  status: ('A' for Active; 'I' for Inactive)
REMARK    1  A    between atoms: C_1  and  C_2
REMARK    2  A    between atoms: C_7  and  C_8
REMARK    3  A    between atoms: C_14  and  C_17
REMARK                            x       y       z     vdW  Elec       q    Type
REMARK                         _______ _______ _______ _____ _____    ______ ____
ROOT
ATOM      1  C   UNL     1       0.032  -0.391   2.496  0.00  0.00    +0.263 C 
ATOM      2  O   UNL     1       0.110   0.793   2.765  0.00  0.00    -0.268 OA
ATOM      3  N   UNL     1      -0.047  -1.303   3.485  0.00  0.00    -0.291 N 
ATOM      4  C   UNL     1      -0.027  -2.745   3.190  0.00  0.00    +0.136 C 
ATOM      5  C   UNL     1      -1.211  -3.402   3.909  0.00  0.00    +0.179 C 
ATOM      6  O   UNL     1      -1.185  -3.036   5.290  0.00  0.00    -0.369 OA
ATOM      7  C   UNL     1      -1.334  -1.635   5.528  0.00  0.00    +0.166 C 
ATOM      8  C   UNL     1      -0.151  -0.887   4.893  0.00  0.00    +0.144 C 
ENDROOT
BRANCH   1  15
ATOM      9  C   UNL     1       2.450  -1.669   0.983  0.00  0.00    +0.047 C 
ATOM     10  C   UNL     1       1.079  -1.386   0.426  0.00  0.00    -0.010 A 
ATOM     11  C   UNL     1       0.633  -1.651  -0.875  0.00  0.00    +0.042 A 
ATOM     12  C   UNL     1      -0.694  -1.231  -0.962  0.00  0.00    +0.027 A 
ATOM     13  N   UNL     1      -1.046  -0.737   0.226  0.00  0.00    -0.354 N 
ATOM     14  H   UNL     1      -1.919  -0.375   0.447  0.00  0.00    +0.166 HD
ATOM     15  C   UNL     1       0.025  -0.827   1.094  0.00  0.00    +0.106 A 
ATOM     16  C   UNL     1      -1.510  -1.351  -2.224  0.00  0.00    +0.054 C 
ATOM     17  C   UNL     1      -0.567  -1.491  -3.423  0.00  0.00    +0.014 C 
ATOM     18  C   UNL     1       0.433  -2.628  -3.195  0.00  0.00    +0.080 C 
ATOM     19  C   UNL     1       1.328  -2.254  -2.023  0.00  0.00    +0.165 C 
ATOM     20  O   UNL     1       2.527  -2.440  -2.034  0.00  0.00    -0.292 OA
ENDBRANCH   1  15
BRANCH   7  21
ATOM     21  C   UNL     1      -1.354  -1.375   7.012  0.00  0.00    -0.015 A 
ATOM     22  C   UNL     1      -0.497  -2.068   7.846  0.00  0.00    +0.009 A 
ATOM     23  C   UNL     1      -0.514  -1.832   9.208  0.00  0.00    +0.041 A 
ATOM     24  C   UNL     1      -1.389  -0.900   9.738  0.00  0.00    +0.158 A 
ATOM     25  C   UNL     1      -2.249  -0.204   8.902  0.00  0.00    +0.159 A 
ATOM     26  C   UNL     1      -2.226  -0.440   7.538  0.00  0.00    +0.047 A 
ATOM     27  F   UNL     1      -3.104   0.705   9.416  0.00  0.00    -0.202 F 
ATOM     28  F   UNL     1      -1.407  -0.669  11.069  0.00  0.00    -0.202 F 
ENDBRANCH   7  21
TORSDOF 2
