REMARK  Name = ZINC63805808
REMARK  10 active torsions:
REMARK  status: ('A' for Active; 'I' for Inactive)
REMARK    1  A    between atoms: C_1  and  O_2
REMARK    2  A    between atoms: O_2  and  C_3
REMARK    3  A    between atoms: C_7  and  C_11
REMARK    4  A    between atoms: C_8  and  O_9
REMARK    5  A    between atoms: O_9  and  C_10
REMARK    6  A    between atoms: C_15  and  C_27
REMARK    7  A    between atoms: C_30  and  O_35
REMARK    8  A    between atoms: C_31  and  O_33
REMARK    9  A    between atoms: O_33  and  C_34
REMARK   10  A    between atoms: O_35  and  C_36
REMARK                            x       y       z     vdW  Elec       q    Type
REMARK                         _______ _______ _______ _____ _____    ______ ____
ROOT
ATOM      1  C   UNL     1      -2.539  -4.180   0.093  0.00  0.00    +0.065 C 
ATOM      2  C   UNL     1      -3.219  -4.707   1.370  0.00  0.00    +0.094 C 
ATOM      3  N   UNL     1      -3.519  -6.135   1.232  0.00  0.00    -0.307 NA
ATOM      4  C   UNL     1      -4.507  -6.423   0.180  0.00  0.00    +0.111 C 
ATOM      5  C   UNL     1      -3.881  -6.077  -1.173  0.00  0.00    +0.128 C 
ATOM      6  C   UNL     1      -3.397  -4.633  -1.061  0.00  0.00    -0.028 C 
ATOM      7  C   UNL     1      -3.901  -3.991  -2.105  0.00  0.00    -0.000 A 
ATOM      8  C   UNL     1      -3.700  -2.623  -2.608  0.00  0.00    +0.010 A 
ATOM      9  C   UNL     1      -4.411  -2.279  -3.714  0.00  0.00    +0.001 A 
ATOM     10  C   UNL     1      -5.293  -3.148  -4.363  0.00  0.00    +0.002 A 
ATOM     11  C   UNL     1      -5.531  -4.427  -3.977  0.00  0.00    +0.026 A 
ATOM     12  C   UNL     1      -4.832  -4.909  -2.833  0.00  0.00    +0.043 A 
ATOM     13  N   UNL     1      -4.846  -6.102  -2.270  0.00  0.00    -0.376 N 
ATOM     14  H   UNL     1      -2.675  -6.670   1.093  0.00  0.00    +0.123 HD
ATOM     15  H   UNL     1      -5.391  -6.861  -2.529  0.00  0.00    +0.160 HD
ENDROOT
BRANCH   1  20
ATOM     16  C   UNL     1      -1.223  -0.639  -0.151  0.00  0.00    +0.162 A 
ATOM     17  C   UNL     1      -2.348   0.093   0.193  0.00  0.00    +0.049 A 
ATOM     18  C   UNL     1      -3.528  -0.558   0.502  0.00  0.00    +0.004 A 
ATOM     19  C   UNL     1      -3.588  -1.939   0.469  0.00  0.00    +0.008 A 
ATOM     20  C   UNL     1      -2.469  -2.675   0.127  0.00  0.00    +0.006 A 
ATOM     21  C   UNL     1      -1.285  -2.029  -0.190  0.00  0.00    +0.165 A 
BRANCH  16  23
ATOM     22  C   UNL     1      -0.071   1.427  -0.395  0.00  0.00    +0.277 C 
ATOM     23  O   UNL     1      -0.061  -0.001  -0.456  0.00  0.00    -0.491 OA
ENDBRANCH  16  23
BRANCH  21  24
ATOM     24  O   UNL     1      -0.185  -2.751  -0.532  0.00  0.00    -0.491 OA
ATOM     25  C   UNL     1       0.688  -3.145   0.529  0.00  0.00    +0.277 C 
ENDBRANCH  21  24
ENDBRANCH   1  20
BRANCH   4  26
ATOM     26  C   UNL     1      -5.742  -5.588   0.398  0.00  0.00    -0.024 A 
ATOM     27  C   UNL     1      -5.678  -4.214   0.259  0.00  0.00    +0.009 A 
ATOM     28  C   UNL     1      -6.808  -3.442   0.458  0.00  0.00    +0.050 A 
ATOM     29  C   UNL     1      -8.008  -4.046   0.798  0.00  0.00    +0.162 A 
ATOM     30  C   UNL     1      -8.072  -5.429   0.939  0.00  0.00    +0.162 A 
ATOM     31  C   UNL     1      -6.937  -6.197   0.733  0.00  0.00    +0.054 A 
BRANCH  30  32
ATOM     32  O   UNL     1      -9.247  -6.027   1.272  0.00  0.00    -0.491 OA
ATOM     33  C   UNL     1      -9.238  -7.450   1.399  0.00  0.00    +0.277 C 
ENDBRANCH  30  32
BRANCH  29  34
ATOM     34  O   UNL     1      -9.120  -3.289   0.995  0.00  0.00    -0.491 OA
ATOM     35  C   UNL     1      -8.979  -1.876   0.835  0.00  0.00    +0.277 C 
ENDBRANCH  29  34
ENDBRANCH   4  26
TORSDOF 6
