REMARK  Name = ZINC39021116
REMARK  9 active torsions:
REMARK  status: ('A' for Active; 'I' for Inactive)
REMARK    1  A    between atoms: C_1  and  C_2
REMARK    2  A    between atoms: C_4  and  C_34
REMARK    3  A    between atoms: C_5  and  N_9
REMARK    4  A    between atoms: C_10  and  C_12
REMARK    5  A    between atoms: C_12  and  S_13
REMARK    6  A    between atoms: S_13  and  C_14
REMARK    7  A    between atoms: C_18  and  C_22
REMARK    8  A    between atoms: N_20  and  N_21
REMARK    9  A    between atoms: C_25  and  C_28
REMARK                            x       y       z     vdW  Elec       q    Type
REMARK                         _______ _______ _______ _____ _____    ______ ____
ROOT
ATOM      1  C   UNL     1       1.271  -8.753   2.411  0.00  0.00    +0.214 C 
ATOM      2  N   UNL     1      -0.050  -9.289   2.009  0.00  0.00    -0.228 NA
ATOM      3  N   UNL     1       0.016  -9.366   0.541  0.00  0.00    -0.234 NA
ATOM      4  C   UNL     1       1.417  -9.798   0.290  0.00  0.00    +0.185 C 
ATOM      5  N   UNL     1       2.208  -9.079   1.316  0.00  0.00    -0.197 NA
ATOM      6  H   UNL     1      -0.209 -10.200   2.412  0.00  0.00    +0.143 HD
ATOM      7  H   UNL     1      -0.640 -10.045   0.184  0.00  0.00    +0.143 HD
ENDROOT
BRANCH   4   8
ATOM      8  C   UNL     1       1.859  -9.389  -1.116  0.00  0.00    +0.187 C 
ATOM      9  C   UNL     1       0.949 -10.003  -2.165  0.00  0.00    +0.034 C 
ATOM     10  C   UNL     1       1.774 -10.784  -2.890  0.00  0.00    +0.091 C 
ATOM     11  N   UNL     1       3.042 -10.710  -2.408  0.00  0.00    -0.154 NA
ATOM     12  N   UNL     1       3.178  -9.962  -1.433  0.00  0.00    -0.176 NA
BRANCH  10  13
ATOM     13  C   UNL     1       1.355 -11.609  -4.050  0.00  0.00    +0.002 A 
ATOM     14  C   UNL     1       0.025 -11.608  -4.465  0.00  0.00    +0.010 A 
ATOM     15  C   UNL     1      -0.359 -12.377  -5.545  0.00  0.00    +0.001 A 
ATOM     16  C   UNL     1       0.575 -13.147  -6.215  0.00  0.00    +0.000 A 
ATOM     17  C   UNL     1       1.897 -13.152  -5.808  0.00  0.00    +0.001 A 
ATOM     18  C   UNL     1       2.292 -12.382  -4.732  0.00  0.00    +0.010 A 
ENDBRANCH  10  13
ENDBRANCH   4   8
BRANCH   5  19
ATOM     19  N   UNL     1       3.307  -9.900   1.798  0.00  0.00    -0.264 NA
ATOM     20  H   UNL     1       3.825  -9.424   2.521  0.00  0.00    +0.137 HD
ATOM     21  H   UNL     1       2.974 -10.796   2.123  0.00  0.00    +0.137 HD
ENDBRANCH   5  19
BRANCH   1  22
ATOM     22  S   UNL     1       1.171  -6.955   2.631  0.00  0.00    -0.115 S 
BRANCH  22  23
ATOM     23  C   UNL     1       0.598  -6.347   1.021  0.00  0.00    +0.168 C 
BRANCH  23  25
ATOM     24  N   UNL     1       0.057  -4.171  -0.023  0.00  0.00    -0.283 N 
ATOM     25  C   UNL     1       0.471  -4.846   1.067  0.00  0.00    +0.227 C 
ATOM     26  O   UNL     1       0.741  -4.246   2.086  0.00  0.00    -0.275 OA
ATOM     27  H   UNL     1      -0.228  -4.655  -0.814  0.00  0.00    +0.155 HD
BRANCH  24  32
ATOM     28  C   UNL     1      -0.016   1.503   0.014  0.00  0.00    +0.044 C 
ATOM     29  C   UNL     1       0.004  -0.004   0.004  0.00  0.00    -0.049 A 
ATOM     30  C   UNL     1      -1.135  -0.711   0.340  0.00  0.00    +0.008 A 
ATOM     31  C   UNL     1      -1.121  -2.092   0.333  0.00  0.00    -0.028 A 
ATOM     32  C   UNL     1       0.039  -2.771  -0.015  0.00  0.00    +0.055 A 
ATOM     33  C   UNL     1       1.183  -2.058  -0.353  0.00  0.00    +0.063 A 
ATOM     34  C   UNL     1       1.160  -0.676  -0.348  0.00  0.00    +0.025 A 
ATOM     35 CL   UNL     1       2.636  -2.902  -0.788  0.00  0.00    -0.082 Cl
ATOM     36  C   UNL     1      -2.363  -2.862   0.701  0.00  0.00    +0.046 C 
ENDBRANCH  24  32
ENDBRANCH  23  25
ENDBRANCH  22  23
ENDBRANCH   1  22
TORSDOF 7
