REMARK  Name = ZINC50479253
REMARK  5 active torsions:
REMARK  status: ('A' for Active; 'I' for Inactive)
REMARK    1  A    between atoms: C_1  and  C_2
REMARK    2  A    between atoms: C_5  and  C_8
REMARK    3  A    between atoms: C_19  and  C_21
REMARK    4  A    between atoms: C_24  and  O_27
REMARK    5  A    between atoms: O_27  and  C_28
REMARK                            x       y       z     vdW  Elec       q    Type
REMARK                         _______ _______ _______ _____ _____    ______ ____
ROOT
ATOM      1  C   UNL     1       0.026  -4.847   0.553  0.00  0.00    +0.154 C 
ATOM      2  C   UNL     1      -1.399  -4.965   1.123  0.00  0.00    +0.113 C 
ATOM      3  C   UNL     1      -1.488  -5.448   2.562  0.00  0.00    +0.065 C 
ATOM      4  C   UNL     1      -2.775  -5.263   3.242  0.00  0.00    +0.040 A 
ATOM      5  C   UNL     1      -3.089  -5.956   4.410  0.00  0.00    +0.033 A 
ATOM      6  C   UNL     1      -4.309  -5.744   5.021  0.00  0.00    +0.042 A 
ATOM      7  C   UNL     1      -5.213  -4.846   4.476  0.00  0.00    +0.023 A 
ATOM      8  C   UNL     1      -4.913  -4.158   3.317  0.00  0.00    +0.048 A 
ATOM      9  C   UNL     1      -3.695  -4.358   2.684  0.00  0.00    +0.130 A 
ATOM     10  O   UNL     1      -3.408  -3.694   1.539  0.00  0.00    -0.483 OA
ATOM     11  C   UNL     1      -2.046  -3.581   1.119  0.00  0.00    +0.215 C 
ATOM     12 CL   UNL     1      -4.710  -6.604   6.475  0.00  0.00    -0.084 Cl
ATOM     13  N   UNL     1      -0.442  -5.930   3.146  0.00  0.00    -0.215 NA
ATOM     14  C   UNL     1       0.801  -5.954   2.603  0.00  0.00    +0.249 A 
ATOM     15  N   UNL     1       1.087  -5.429   1.388  0.00  0.00    -0.221 N 
ATOM     16  N   UNL     1       2.463  -5.593   1.190  0.00  0.00    -0.156 NA
ATOM     17  C   UNL     1       2.925  -6.216   2.243  0.00  0.00    +0.247 A 
ATOM     18  N   UNL     1       1.938  -6.442   3.088  0.00  0.00    -0.198 NA
ENDROOT
BRANCH   1  23
ATOM     19  C   UNL     1       1.207   0.754  -0.236  0.00  0.00    +0.044 C 
ATOM     20  C   UNL     1       0.899  -0.706  -0.030  0.00  0.00    -0.050 A 
ATOM     21  C   UNL     1       1.554  -1.419   0.956  0.00  0.00    +0.004 A 
ATOM     22  C   UNL     1       1.272  -2.759   1.145  0.00  0.00    +0.006 A 
ATOM     23  C   UNL     1       0.333  -3.386   0.347  0.00  0.00    -0.022 A 
ATOM     24  C   UNL     1      -0.323  -2.673  -0.639  0.00  0.00    +0.006 A 
ATOM     25  C   UNL     1      -0.044  -1.333  -0.825  0.00  0.00    +0.004 A 
ENDBRANCH   1  23
BRANCH  11  26
ATOM     26  C   UNL     1      -1.301  -2.675   2.065  0.00  0.00    -0.006 A 
ATOM     27  C   UNL     1      -1.628  -1.333   2.136  0.00  0.00    +0.011 A 
ATOM     28  C   UNL     1      -0.946  -0.500   3.002  0.00  0.00    +0.046 A 
ATOM     29  C   UNL     1       0.067  -1.012   3.801  0.00  0.00    +0.120 A 
ATOM     30  C   UNL     1       0.392  -2.358   3.727  0.00  0.00    +0.046 A 
ATOM     31  C   UNL     1      -0.296  -3.188   2.864  0.00  0.00    +0.011 A 
BRANCH  29  32
ATOM     32  O   UNL     1       0.739  -0.194   4.654  0.00  0.00    -0.495 OA
ATOM     33  C   UNL     1       1.770  -0.789   5.445  0.00  0.00    +0.277 C 
ENDBRANCH  29  32
ENDBRANCH  11  26
TORSDOF 3
