REMARK  Name = ZINC40937163
REMARK  10 active torsions:
REMARK  status: ('A' for Active; 'I' for Inactive)
REMARK    1  A    between atoms: C_1  and  C_2
REMARK    2  A    between atoms: C_5  and  N_21
REMARK    3  A    between atoms: C_7  and  C_8
REMARK    4  A    between atoms: N_10  and  C_11
REMARK    5  A    between atoms: C_18  and  C_20
REMARK    6  A    between atoms: C_22  and  C_24
REMARK    7  A    between atoms: C_28  and  C_30
REMARK    8  A    between atoms: C_30  and  C_31
REMARK    9  A    between atoms: C_30  and  C_32
REMARK   10  A    between atoms: C_30  and  C_33
REMARK                            x       y       z     vdW  Elec       q    Type
REMARK                         _______ _______ _______ _____ _____    ______ ____
ROOT
ATOM      1  C   UNL     1       0.006   1.191   0.118  0.00  0.00    +0.044 C 
ATOM      2  C   UNL     1       0.025  -0.315   0.084  0.00  0.00    -0.038 A 
ATOM      3  C   UNL     1       0.012  -0.978  -1.127  0.00  0.00    +0.006 A 
ATOM      4  C   UNL     1       0.029  -2.360  -1.163  0.00  0.00    +0.023 A 
ATOM      5  C   UNL     1       0.059  -3.091   0.018  0.00  0.00    +0.034 A 
ATOM      6  C   UNL     1       0.072  -2.435   1.239  0.00  0.00    +0.036 A 
ATOM      7  C   UNL     1       0.061  -1.040   1.276  0.00  0.00    +0.042 A 
ENDROOT
BRANCH   7   8
ATOM      8  C   UNL     1       0.082  -0.333   2.574  0.00  0.00    +0.249 C 
ATOM      9  O   UNL     1      -0.008   0.879   2.607  0.00  0.00    -0.270 OA
ATOM     10  N   UNL     1       0.199  -1.031   3.721  0.00  0.00    -0.280 N 
ATOM     11  H   UNL     1       0.203  -2.001   3.700  0.00  0.00    +0.155 HD
BRANCH  10  12
ATOM     12  C   UNL     1       0.315  -0.357   4.942  0.00  0.00    +0.052 A 
ATOM     13  C   UNL     1      -0.367   0.840   5.156  0.00  0.00    +0.028 A 
ATOM     14  C   UNL     1      -0.224   1.471   6.378  0.00  0.00    +0.045 A 
ATOM     15  C   UNL     1       0.591   0.896   7.346  0.00  0.00    +0.125 A 
ATOM     16  N   UNL     1       1.225  -0.241   7.109  0.00  0.00    -0.238 NA
ATOM     17  C   UNL     1       1.106  -0.874   5.958  0.00  0.00    +0.136 A 
ATOM     18  N   UNL     1       0.743   1.525   8.583  0.00  0.00    -0.271 N 
ATOM     19  C   UNL     1       1.611   1.032   9.488  0.00  0.00    +0.215 C 
ATOM     20  O   UNL     1       2.328   0.098   9.195  0.00  0.00    -0.276 OA
ATOM     21  C   UNL     1       1.692   1.640  10.864  0.00  0.00    +0.109 C 
ATOM     22  H   UNL     1       0.223   2.317   8.791  0.00  0.00    +0.156 HD
ENDBRANCH  10  12
ENDBRANCH   7   8
BRANCH   5  23
ATOM     23  N   UNL     1       0.076  -4.489  -0.024  0.00  0.00    -0.281 N 
ATOM     24  C   UNL     1      -0.560  -5.200   0.928  0.00  0.00    +0.248 C 
ATOM     25  O   UNL     1      -1.226  -4.629   1.770  0.00  0.00    -0.270 OA
ATOM     26  H   UNL     1       0.545  -4.947  -0.739  0.00  0.00    +0.155 HD
BRANCH  24  27
ATOM     27  C   UNL     1      -0.448  -6.673   0.949  0.00  0.00    +0.037 A 
ATOM     28  C   UNL     1       0.321  -7.332  -0.012  0.00  0.00    +0.013 A 
ATOM     29  C   UNL     1       0.422  -8.707   0.013  0.00  0.00    +0.001 A 
ATOM     30  C   UNL     1      -0.236  -9.434   0.989  0.00  0.00    +0.005 A 
ATOM     31  C   UNL     1      -1.000  -8.788   1.945  0.00  0.00    -0.027 A 
ATOM     32  C   UNL     1      -1.105  -7.413   1.934  0.00  0.00    +0.018 A 
BRANCH  31  33
ATOM     33  C   UNL     1      -1.714  -9.588   3.004  0.00  0.00    +0.077 C 
ATOM     34  C   UNL     1      -1.430 -11.078   2.796  0.00  0.00    +0.032 C 
ATOM     35  C   UNL     1      -1.216  -9.163   4.387  0.00  0.00    +0.032 C 
BRANCH  33  36
ATOM     36  C   UNL     1      -3.163  -9.347   2.908  0.00  0.00    +0.073 C 
ATOM     37  N   UNL     1      -4.281  -9.160   2.834  0.00  0.00    -0.196 NA
ENDBRANCH  33  36
ENDBRANCH  31  33
ENDBRANCH  24  27
ENDBRANCH   5  23
TORSDOF 6
