REMARK  Name = ZINC03011500
REMARK  6 active torsions:
REMARK  status: ('A' for Active; 'I' for Inactive)
REMARK    1  A    between atoms: C_1  and  O_2
REMARK    2  A    between atoms: O_2  and  C_3
REMARK    3  A    between atoms: C_8  and  N_9
REMARK    4  A    between atoms: C_15  and  C_17
REMARK    5  A    between atoms: C_22  and  C_35
REMARK    6  A    between atoms: C_25  and  C_28
REMARK                            x       y       z     vdW  Elec       q    Type
REMARK                         _______ _______ _______ _____ _____    ______ ____
ROOT
ATOM      1  C   UNL     1      -2.529  -6.378  -1.945  0.00  0.00    +0.149 A 
ATOM      2  C   UNL     1      -3.201  -7.247  -2.834  0.00  0.00    +0.078 A 
ATOM      3  C   UNL     1      -4.430  -7.474  -2.330  0.00  0.00    +0.119 A 
ATOM      4  N   UNL     1      -4.545  -6.780  -1.159  0.00  0.00    -0.238 N 
ATOM      5  N   UNL     1      -3.343  -6.107  -0.940  0.00  0.00    -0.164 NA
ATOM      6  C   UNL     1      -5.748  -6.790  -0.322  0.00  0.00    +0.215 C 
ATOM      7  C   UNL     1      -6.596  -8.014  -0.687  0.00  0.00    +0.063 C 
ATOM      8  C   UNL     1      -6.788  -8.081  -2.206  0.00  0.00    +0.104 C 
ATOM      9  N   UNL     1      -5.467  -8.261  -2.839  0.00  0.00    -0.322 N 
ATOM     10  H   UNL     1      -5.327  -8.887  -3.566  0.00  0.00    +0.148 HD
ENDROOT
BRANCH   1  17
ATOM     11  N   UNL     1      -0.088  -2.364  -0.522  0.00  0.00    -0.324 N 
ATOM     12  C   UNL     1       0.798  -3.000  -1.507  0.00  0.00    +0.124 C 
ATOM     13  C   UNL     1       0.732  -4.520  -1.316  0.00  0.00    +0.127 C 
ATOM     14  N   UNL     1      -0.679  -4.927  -1.266  0.00  0.00    -0.293 N 
ATOM     15  C   UNL     1      -1.565  -4.291  -0.280  0.00  0.00    +0.127 C 
ATOM     16  C   UNL     1      -1.498  -2.774  -0.468  0.00  0.00    +0.124 C 
ATOM     17  C   UNL     1      -1.153  -5.866  -2.108  0.00  0.00    +0.267 C 
ATOM     18  O   UNL     1      -0.448  -6.291  -3.003  0.00  0.00    -0.268 OA
BRANCH  11  24
ATOM     19  C   UNL     1       0.369  -0.044  -0.008  0.00  0.00    +0.141 A 
ATOM     20  C   UNL     1       0.852   0.917   0.865  0.00  0.00    +0.047 A 
ATOM     21  C   UNL     1       1.373   0.541   2.089  0.00  0.00    +0.004 A 
ATOM     22  C   UNL     1       1.413  -0.794   2.446  0.00  0.00    +0.002 A 
ATOM     23  C   UNL     1       0.933  -1.760   1.581  0.00  0.00    +0.027 A 
ATOM     24  C   UNL     1       0.404  -1.389   0.354  0.00  0.00    +0.072 A 
BRANCH  19  26
ATOM     25  C   UNL     1      -0.146   1.721  -1.516  0.00  0.00    +0.277 C 
ATOM     26  O   UNL     1      -0.142   0.325  -1.213  0.00  0.00    -0.493 OA
ENDBRANCH  19  26
ENDBRANCH  11  24
ENDBRANCH   1  17
BRANCH   8  27
ATOM     27  C   UNL     1      -7.682  -9.245  -2.551  0.00  0.00    -0.027 A 
ATOM     28  C   UNL     1      -7.164 -10.526  -2.591  0.00  0.00    +0.007 A 
ATOM     29  C   UNL     1      -7.983 -11.593  -2.908  0.00  0.00    +0.020 A 
ATOM     30  C   UNL     1      -9.322 -11.379  -3.185  0.00  0.00    +0.041 A 
ATOM     31  C   UNL     1      -9.839 -10.097  -3.145  0.00  0.00    +0.020 A 
ATOM     32  C   UNL     1      -9.021  -9.031  -2.823  0.00  0.00    +0.007 A 
ATOM     33 CL   UNL     1     -10.351 -12.719  -3.584  0.00  0.00    -0.084 Cl
ENDBRANCH   8  27
BRANCH   6  34
ATOM     34  C   UNL     1      -5.346  -6.862   1.152  0.00  0.00    +0.412 C 
ATOM     35  F   UNL     1      -4.563  -5.750   1.478  0.00  0.00    -0.168 F 
ATOM     36  F   UNL     1      -6.496  -6.872   1.949  0.00  0.00    -0.168 F 
ATOM     37  F   UNL     1      -4.613  -8.032   1.379  0.00  0.00    -0.168 F 
ENDBRANCH   6  34
TORSDOF 5
