REMARK  Name = ZINC13426305
REMARK  11 active torsions:
REMARK  status: ('A' for Active; 'I' for Inactive)
REMARK    1  A    between atoms: C_1  and  C_2
REMARK    2  A    between atoms: C_2  and  C_3
REMARK    3  A    between atoms: C_3  and  O_4
REMARK    4  A    between atoms: O_4  and  C_5
REMARK    5  A    between atoms: C_6  and  O_25
REMARK    6  A    between atoms: C_8  and  C_12
REMARK    7  A    between atoms: N_14  and  C_15
REMARK    8  A    between atoms: C_17  and  C_23
REMARK    9  A    between atoms: C_19  and  C_21
REMARK   10  A    between atoms: O_25  and  C_26
REMARK   11  A    between atoms: C_26  and  C_27
REMARK                            x       y       z     vdW  Elec       q    Type
REMARK                         _______ _______ _______ _____ _____    ______ ____
ROOT
ATOM      1  C   UNL     1      -1.312   2.125   0.189  0.00  0.00    +0.248 C 
ATOM      2  O   UNL     1      -2.357   1.525   0.349  0.00  0.00    -0.270 OA
ATOM      3  N   UNL     1      -1.321   3.463   0.027  0.00  0.00    -0.281 N 
ATOM      4  H   UNL     1      -0.484   3.951  -0.023  0.00  0.00    +0.155 HD
ENDROOT
BRANCH   1   8
ATOM      5  C   UNL     1       2.372   0.005   0.132  0.00  0.00    +0.180 A 
ATOM      6  C   UNL     1       1.176  -0.685   0.321  0.00  0.00    +0.164 A 
ATOM      7  C   UNL     1      -0.023   0.001   0.342  0.00  0.00    +0.062 A 
ATOM      8  C   UNL     1      -0.033   1.388   0.174  0.00  0.00    +0.042 A 
ATOM      9  C   UNL     1       1.168   2.075  -0.015  0.00  0.00    +0.037 A 
ATOM     10  C   UNL     1       2.362   1.384  -0.035  0.00  0.00    +0.087 A 
ATOM     11 CL   UNL     1       3.854   2.240  -0.269  0.00  0.00    -0.080 Cl
BRANCH   5  12
ATOM     12  O   UNL     1       3.549  -0.671   0.111  0.00  0.00    -0.487 OA
BRANCH  12  13
ATOM     13  C   UNL     1       4.001  -1.148  -1.158  0.00  0.00    +0.229 C 
BRANCH  13  15
ATOM     14  C   UNL     1       5.818  -2.389  -2.341  0.00  0.00    +0.007 C 
ATOM     15  C   UNL     1       5.334  -1.879  -0.983  0.00  0.00    +0.038 C 
ENDBRANCH  13  15
ENDBRANCH  12  13
ENDBRANCH   5  12
BRANCH   6  16
ATOM     16  O   UNL     1       1.189  -2.036   0.484  0.00  0.00    -0.489 OA
BRANCH  16  17
ATOM     17  C   UNL     1      -0.073  -2.679   0.673  0.00  0.00    +0.226 C 
ATOM     18  C   UNL     1       0.142  -4.185   0.838  0.00  0.00    +0.048 C 
ENDBRANCH  16  17
ENDBRANCH   6  16
ENDBRANCH   1   8
BRANCH   3  19
ATOM     19  C   UNL     1      -2.537   4.148  -0.069  0.00  0.00    +0.035 A 
ATOM     20  C   UNL     1      -3.626   3.542  -0.678  0.00  0.00    +0.038 A 
ATOM     21  C   UNL     1      -4.843   4.221  -0.771  0.00  0.00    +0.066 A 
ATOM     22  C   UNL     1      -4.959   5.513  -0.261  0.00  0.00    +0.030 A 
ATOM     23  C   UNL     1      -3.861   6.121   0.345  0.00  0.00    +0.066 A 
ATOM     24  C   UNL     1      -2.649   5.434   0.440  0.00  0.00    +0.038 A 
BRANCH  23  25
ATOM     25  C   UNL     1      -3.979   7.490   0.888  0.00  0.00    +0.387 C 
ATOM     26  O   UNL     1      -3.022   8.018   1.417  0.00  0.00    -0.241 OA
ATOM     27  O   UNL     1      -5.149   8.152   0.797  0.00  0.00    -0.241 OA
ENDBRANCH  23  25
BRANCH  21  28
ATOM     28  C   UNL     1      -6.004   3.573  -1.415  0.00  0.00    +0.387 C 
ATOM     29  O   UNL     1      -5.902   2.448  -1.860  0.00  0.00    -0.241 OA
ATOM     30  O   UNL     1      -7.176   4.231  -1.510  0.00  0.00    -0.241 OA
ENDBRANCH  21  28
ENDBRANCH   3  19
TORSDOF 9
