REMARK  Name = ZINC16513375
REMARK  3 active torsions:
REMARK  status: ('A' for Active; 'I' for Inactive)
REMARK    1  A    between atoms: C_3  and  N_8
REMARK    2  A    between atoms: C_9  and  C_10
REMARK    3  A    between atoms: C_15  and  O_16
REMARK                            x       y       z     vdW  Elec       q    Type
REMARK                         _______ _______ _______ _____ _____    ______ ____
ROOT
ATOM      1  C   UNL     1       5.982   2.009  -0.045  0.00  0.00    +0.037 A 
ATOM      2  C   UNL     1       7.179   1.284  -0.066  0.00  0.00    +0.033 A 
ATOM      3  C   UNL     1       8.385   1.951  -0.075  0.00  0.00    +0.043 A 
ATOM      4  C   UNL     1       8.419   3.337  -0.063  0.00  0.00    +0.043 A 
ATOM      5  C   UNL     1       7.244   4.065  -0.042  0.00  0.00    +0.084 A 
ATOM      6  C   UNL     1       6.021   3.411  -0.038  0.00  0.00    +0.144 A 
ATOM      7 CL   UNL     1       7.300   5.800  -0.026  0.00  0.00    -0.080 Cl
ATOM      8 CL   UNL     1       9.870   1.052  -0.101  0.00  0.00    -0.083 Cl
ENDROOT
BRANCH   1  10
ATOM      9  N   UNL     1       3.578   1.984  -0.022  0.00  0.00    -0.236 NA
ATOM     10  C   UNL     1       4.692   1.305  -0.036  0.00  0.00    +0.124 C 
BRANCH   9  13
ATOM     11  C   UNL     1      -0.017   1.385   0.010  0.00  0.00    +0.020 A 
ATOM     12  C   UNL     1       1.189   2.062   0.002  0.00  0.00    +0.049 A 
ATOM     13  C   UNL     1       2.378   1.330  -0.013  0.00  0.00    +0.153 A 
ATOM     14  N   UNL     1       2.352   0.001  -0.020  0.00  0.00    -0.235 NA
ATOM     15  C   UNL     1       1.216  -0.667  -0.013  0.00  0.00    +0.128 A 
ATOM     16  C   UNL     1       0.002  -0.004   0.002  0.00  0.00    +0.036 A 
ATOM     17 BR   UNL     1      -1.618  -0.980   0.013  0.00  0.00    -0.049 Br
ENDBRANCH   9  13
ENDBRANCH   1  10
BRANCH   6  18
ATOM     18  O   UNL     1       4.866   4.125  -0.023  0.00  0.00    -0.505 OA
ATOM     19  H   UNL     1       4.540   4.327   0.865  0.00  0.00    +0.292 HD
ENDBRANCH   6  18
TORSDOF 3
