REMARK  Name = ZINC62512818
REMARK  4 active torsions:
REMARK  status: ('A' for Active; 'I' for Inactive)
REMARK    1  A    between atoms: C_6  and  C_7
REMARK    2  A    between atoms: N_10  and  S_14
REMARK    3  A    between atoms: S_14  and  N_17
REMARK    4  A    between atoms: N_17  and  C_18
REMARK                            x       y       z     vdW  Elec       q    Type
REMARK                         _______ _______ _______ _____ _____    ______ ____
ROOT
ATOM      1  C   UNL     1      -1.538  -0.110   0.239  0.00  0.00    +0.164 C 
ATOM      2  C   UNL     1      -1.860  -0.646   1.639  0.00  0.00    +0.147 C 
ATOM      3  N   UNL     1      -2.870  -1.708   1.507  0.00  0.00    -0.162 NA
ATOM      4  C   UNL     1      -2.621  -2.783   0.534  0.00  0.00    +0.138 C 
ATOM      5  C   UNL     1      -2.261  -2.143  -0.812  0.00  0.00    +0.178 C 
ATOM      6  O   UNL     1      -1.201  -1.203  -0.618  0.00  0.00    -0.369 OA
ENDROOT
BRANCH   1  12
ATOM      7  C   UNL     1      -0.598   2.202   0.428  0.00  0.00    +0.007 A 
ATOM      8  C   UNL     1       0.470   3.076   0.503  0.00  0.00    +0.015 A 
ATOM      9  C   UNL     1       1.765   2.590   0.472  0.00  0.00    +0.018 A 
ATOM     10  C   UNL     1       1.990   1.229   0.366  0.00  0.00    +0.015 A 
ATOM     11  C   UNL     1       0.921   0.356   0.291  0.00  0.00    +0.007 A 
ATOM     12  C   UNL     1      -0.373   0.843   0.322  0.00  0.00    -0.018 A 
ATOM     13 BR   UNL     1       3.227   3.785   0.575  0.00  0.00    -0.050 Br
ENDBRANCH   1  12
BRANCH   3  14
ATOM     14  S   UNL     1      -4.247  -1.694   2.428  0.00  0.00    +0.097 S 
ATOM     15  O   UNL     1      -4.392  -0.370   2.922  0.00  0.00    -0.141 OA
ATOM     16  O   UNL     1      -5.255  -2.336   1.660  0.00  0.00    -0.141 OA
BRANCH  14  17
ATOM     17  N   UNL     1      -3.966  -2.661   3.743  0.00  0.00    -0.177 NA
ATOM     18  H   UNL     1      -4.476  -3.478   3.862  0.00  0.00    +0.149 HD
BRANCH  17  19
ATOM     19  C   UNL     1      -2.947  -2.284   4.726  0.00  0.00    +0.078 C 
ATOM     20  C   UNL     1      -1.639  -3.055   4.454  0.00  0.00    +0.020 C 
ATOM     21  C   UNL     1      -1.080  -3.365   5.864  0.00  0.00    +0.002 C 
ATOM     22  C   UNL     1      -2.360  -3.680   6.677  0.00  0.00    +0.002 C 
ATOM     23  C   UNL     1      -3.406  -2.682   6.139  0.00  0.00    +0.020 C 
ENDBRANCH  17  19
ENDBRANCH  14  17
ENDBRANCH   3  14
TORSDOF 4
