REMARK  Name = ZINC13161960
REMARK  3 active torsions:
REMARK  status: ('A' for Active; 'I' for Inactive)
REMARK    1  A    between atoms: C_1  and  S_2
REMARK    2  A    between atoms: S_2  and  C_3
REMARK    3  A    between atoms: C_10  and  O_25
REMARK                            x       y       z     vdW  Elec       q    Type
REMARK                         _______ _______ _______ _____ _____    ______ ____
ROOT
ATOM      1  C   UNL     1       3.667  -1.819  -1.048  0.00  0.00    +0.190 A 
ATOM      2  N   UNL     1       2.394  -1.621  -0.753  0.00  0.00    -0.215 NA
ATOM      3  C   UNL     1       1.940  -0.410  -0.414  0.00  0.00    +0.117 A 
ATOM      4  C   UNL     1       2.827   0.652  -0.367  0.00  0.00    +0.071 A 
ATOM      5  C   UNL     1       4.160   0.400  -0.688  0.00  0.00    +0.142 A 
ATOM      6  N   UNL     1       4.541  -0.822  -1.018  0.00  0.00    -0.210 NA
ATOM      7 CL   UNL     1       5.320   1.691  -0.655  0.00  0.00    -0.061 Cl
ATOM      8  C   UNL     1       2.475   2.057   0.011  0.00  0.00    +0.255 C 
ATOM      9  N   UNL     1       1.075   2.386  -0.198  0.00  0.00    -0.288 N 
ATOM     10  C   UNL     1       0.537   3.649  -0.396  0.00  0.00    +0.076 A 
ATOM     11  C   UNL     1       1.083   4.922  -0.474  0.00  0.00    +0.077 A 
ATOM     12  C   UNL     1       0.261   6.014  -0.684  0.00  0.00    +0.168 A 
ATOM     13  C   UNL     1      -1.119   5.840  -0.817  0.00  0.00    +0.168 A 
ATOM     14  C   UNL     1      -1.672   4.578  -0.740  0.00  0.00    +0.079 A 
ATOM     15  C   UNL     1      -0.848   3.469  -0.530  0.00  0.00    +0.094 A 
ATOM     16  N   UNL     1      -1.091   2.135  -0.423  0.00  0.00    -0.221 NA
ATOM     17  C   UNL     1       0.036   1.496  -0.231  0.00  0.00    +0.178 A 
ATOM     18  S   UNL     1       0.226  -0.246  -0.046  0.00  0.00    -0.031 S 
ATOM     19  O   UNL     1      -1.693   7.064  -1.016  0.00  0.00    -0.453 OA
ATOM     20  C   UNL     1      -0.707   8.025  -0.595  0.00  0.00    +0.466 C 
ATOM     21  O   UNL     1       0.545   7.345  -0.800  0.00  0.00    -0.453 OA
ENDROOT
BRANCH   1  23
ATOM     22  C   UNL     1       5.971  -3.108  -1.770  0.00  0.00    +0.093 C 
ATOM     23  S   UNL     1       4.213  -3.436  -1.488  0.00  0.00    -0.089 S 
ENDBRANCH   1  23
BRANCH   8  24
ATOM     24  O   UNL     1       3.273   2.953  -0.765  0.00  0.00    -0.368 OA
ATOM     25  H   UNL     1       3.084   2.926  -1.713  0.00  0.00    +0.212 HD
ENDBRANCH   8  24
TORSDOF 2
