REMARK  Name = ZINC22697447
REMARK  12 active torsions:
REMARK  status: ('A' for Active; 'I' for Inactive)
REMARK    1  A    between atoms: C_1  and  C_2
REMARK    2  A    between atoms: C_2  and  C_3
REMARK    3  A    between atoms: C_2  and  C_4
REMARK    4  A    between atoms: C_4  and  C_6
REMARK    5  A    between atoms: C_4  and  N_23
REMARK    6  A    between atoms: N_11  and  C_14
REMARK    7  A    between atoms: C_14  and  C_15
REMARK    8  A    between atoms: C_24  and  C_26
REMARK    9  A    between atoms: C_29  and  C_32
REMARK   10  A    between atoms: C_32  and  C_33
REMARK   11  A    between atoms: C_32  and  C_34
REMARK   12  A    between atoms: C_32  and  C_35
REMARK                            x       y       z     vdW  Elec       q    Type
REMARK                         _______ _______ _______ _____ _____    ______ ____
ROOT
ATOM      1  C   UNL     1      -2.197   1.155   1.217  0.00  0.00    +0.162 C 
ENDROOT
BRANCH   1   2
ATOM      2  C   UNL     1      -2.296  -0.339   1.394  0.00  0.00    +0.236 C 
ATOM      3  O   UNL     1      -1.959  -0.849   2.441  0.00  0.00    -0.274 OA
ATOM      4  N   UNL     1      -2.758  -1.107   0.388  0.00  0.00    -0.303 N 
ATOM      5  C   UNL     1      -3.280  -0.502  -0.847  0.00  0.00    +0.089 C 
ATOM      6  C   UNL     1      -2.580  -1.166  -2.043  0.00  0.00    -0.059 C 
ATOM      7  N   UNL     1      -2.741  -2.623  -1.950  0.00  0.00    +0.387 N 
ATOM      8  C   UNL     1      -2.085  -3.156  -0.749  0.00  0.00    -0.059 C 
ATOM      9  C   UNL     1      -2.759  -2.574   0.498  0.00  0.00    +0.089 C 
ATOM     10  H   UNL     1      -3.817  -2.836  -1.867  0.00  0.00    -0.081 HD
BRANCH   7  11
ATOM     11  C   UNL     1      -2.239  -3.286  -3.162  0.00  0.00    +0.019 C 
BRANCH  11  12
ATOM     12  C   UNL     1      -3.097  -2.897  -4.339  0.00  0.00    +0.199 C 
ATOM     13  O   UNL     1      -4.033  -2.142  -4.183  0.00  0.00    -0.278 OA
ATOM     14  N   UNL     1      -2.823  -3.388  -5.563  0.00  0.00    -0.303 N 
ATOM     15  C   UNL     1      -1.688  -4.299  -5.768  0.00  0.00    +0.107 C 
ATOM     16  C   UNL     1      -2.200  -5.568  -6.465  0.00  0.00    +0.019 C 
ATOM     17  C   UNL     1      -2.932  -5.177  -7.751  0.00  0.00    +0.003 C 
ATOM     18  C   UNL     1      -4.136  -4.298  -7.408  0.00  0.00    +0.019 C 
ATOM     19  C   UNL     1      -3.650  -3.018  -6.720  0.00  0.00    +0.107 C 
ENDBRANCH  11  12
ENDBRANCH   7  11
ENDBRANCH   1   2
BRANCH   1  20
ATOM     20  N   UNL     1      -2.459   1.817   2.497  0.00  0.00    -0.300 N 
ATOM     21  C   UNL     1      -2.920   3.083   2.519  0.00  0.00    +0.245 C 
ATOM     22  O   UNL     1      -3.119   3.676   1.477  0.00  0.00    -0.270 OA
ATOM     23  H   UNL     1      -2.280   1.280   3.441  0.00  0.00    +0.150 HD
BRANCH  21  24
ATOM     24  C   UNL     1      -3.185   3.751   3.812  0.00  0.00    +0.037 A 
ATOM     25  C   UNL     1      -2.964   3.071   5.010  0.00  0.00    +0.013 A 
ATOM     26  C   UNL     1      -3.208   3.701   6.213  0.00  0.00    +0.005 A 
ATOM     27  C   UNL     1      -3.682   5.001   6.232  0.00  0.00    -0.042 A 
ATOM     28  C   UNL     1      -3.908   5.679   5.047  0.00  0.00    +0.005 A 
ATOM     29  C   UNL     1      -3.662   5.062   3.838  0.00  0.00    +0.013 A 
BRANCH  27  30
ATOM     30  C   UNL     1      -3.952   5.682   7.549  0.00  0.00    -0.013 C 
ATOM     31  C   UNL     1      -5.428   6.080   7.624  0.00  0.00    +0.015 C 
ATOM     32  C   UNL     1      -3.623   4.723   8.695  0.00  0.00    +0.015 C 
ATOM     33  C   UNL     1      -3.080   6.933   7.665  0.00  0.00    +0.015 C 
ENDBRANCH  27  30
ENDBRANCH  21  24
ENDBRANCH   1  20
BRANCH   1  35
ATOM     34  C   UNL     1      -0.490   0.770  -0.567  0.00  0.00    +0.009 C 
ATOM     35  C   UNL     1      -0.792   1.519   0.733  0.00  0.00    +0.012 C 
ATOM     36  C   UNL     1       0.233   1.126   1.798  0.00  0.00    +0.009 C 
ENDBRANCH   1  35
TORSDOF 7
