REMARK  Name = ZINC20803712
REMARK  5 active torsions:
REMARK  status: ('A' for Active; 'I' for Inactive)
REMARK    1  A    between atoms: C_1  and  C_2
REMARK    2  A    between atoms: C_7  and  N_8
REMARK    3  A    between atoms: C_9  and  C_11
REMARK    4  A    between atoms: C_13  and  C_30
REMARK    5  A    between atoms: C_21  and  C_23
REMARK                            x       y       z     vdW  Elec       q    Type
REMARK                         _______ _______ _______ _____ _____    ______ ____
ROOT
ATOM      1  C   UNL     1       1.478   7.031  -0.442  0.00  0.00    +0.124 C 
ATOM      2  C   UNL     1       0.798   7.745  -1.616  0.00  0.00    +0.084 C 
ATOM      3  N   UNL     1       1.822   8.077  -2.624  0.00  0.00    -0.310 N 
ATOM      4  C   UNL     1       3.014   8.598  -2.138  0.00  0.00    +0.214 A 
ATOM      5  N   UNL     1       3.990   9.184  -2.778  0.00  0.00    -0.202 NA
ATOM      6  C   UNL     1       4.947   9.532  -1.911  0.00  0.00    +0.247 A 
ATOM      7  N   UNL     1       4.588   9.168  -0.705  0.00  0.00    -0.156 NA
ATOM      8  N   UNL     1       3.339   8.558  -0.823  0.00  0.00    -0.225 N 
ATOM      9  C   UNL     1       2.494   7.972   0.217  0.00  0.00    +0.154 C 
ATOM     10  C   UNL     1       0.130   9.028  -1.118  0.00  0.00    +0.028 C 
ATOM     11  H   UNL     1       1.617   7.909  -3.691  0.00  0.00    +0.149 HD
ENDROOT
BRANCH   9  12
ATOM     12  C   UNL     1       3.347   7.196   1.187  0.00  0.00    -0.022 A 
ATOM     13  C   UNL     1       3.092   7.269   2.544  0.00  0.00    +0.007 A 
ATOM     14  C   UNL     1       3.870   6.553   3.433  0.00  0.00    +0.020 A 
ATOM     15  C   UNL     1       4.912   5.771   2.966  0.00  0.00    +0.041 A 
ATOM     16  C   UNL     1       5.170   5.703   1.609  0.00  0.00    +0.020 A 
ATOM     17  C   UNL     1       4.387   6.415   0.720  0.00  0.00    +0.007 A 
ATOM     18 CL   UNL     1       5.895   4.877   4.084  0.00  0.00    -0.084 Cl
ENDBRANCH   9  12
BRANCH   1  20
ATOM     19  N   UNL     1       2.024   4.621  -0.319  0.00  0.00    -0.285 N 
ATOM     20  C   UNL     1       2.189   5.802  -0.948  0.00  0.00    +0.224 C 
ATOM     21  O   UNL     1       2.910   5.875  -1.921  0.00  0.00    -0.275 OA
ATOM     22  H   UNL     1       1.311   4.537   0.514  0.00  0.00    +0.155 HD
BRANCH  19  29
ATOM     23  C   UNL     1       2.682   2.661   1.636  0.00  0.00    +0.045 C 
ATOM     24  C   UNL     1       3.103   2.523   0.195  0.00  0.00    -0.029 A 
ATOM     25  C   UNL     1       3.826   1.418  -0.210  0.00  0.00    +0.005 A 
ATOM     26  C   UNL     1       4.217   1.292  -1.531  0.00  0.00    +0.000 A 
ATOM     27  C   UNL     1       3.877   2.267  -2.451  0.00  0.00    +0.002 A 
ATOM     28  C   UNL     1       3.151   3.372  -2.053  0.00  0.00    +0.023 A 
ATOM     29  C   UNL     1       2.760   3.503  -0.726  0.00  0.00    +0.036 A 
ENDBRANCH  19  29
ENDBRANCH   1  20
TORSDOF 3
