REMARK  Name = ZINC49185984
REMARK  4 active torsions:
REMARK  status: ('A' for Active; 'I' for Inactive)
REMARK    1  A    between atoms: C_1  and  C_2
REMARK    2  A    between atoms: C_5  and  C_9
REMARK    3  A    between atoms: C_7  and  N_8
REMARK    4  A    between atoms: N_13  and  C_14
REMARK                            x       y       z     vdW  Elec       q    Type
REMARK                         _______ _______ _______ _____ _____    ______ ____
ROOT
ATOM      1  C   UNL     1      -0.075  -4.267  -0.054  0.00  0.00    +0.187 A 
ATOM      2  N   UNL     1      -0.193  -5.060   0.991  0.00  0.00    -0.108 NA
ATOM      3  N   UNL     1       0.041  -6.278   0.660  0.00  0.00    -0.022 NA
ATOM      4  N   UNL     1       0.321  -6.361  -0.595  0.00  0.00    -0.039 NA
ATOM      5  N   UNL     1       0.252  -5.057  -1.117  0.00  0.00    -0.192 N 
ENDROOT
BRANCH   5   6
ATOM      6  C   UNL     1       0.475  -4.655  -2.441  0.00  0.00    +0.083 A 
ATOM      7  C   UNL     1       1.451  -3.710  -2.727  0.00  0.00    +0.030 A 
ATOM      8  C   UNL     1       1.668  -3.316  -4.032  0.00  0.00    +0.017 A 
ATOM      9  C   UNL     1       0.914  -3.862  -5.056  0.00  0.00    +0.019 A 
ATOM     10  C   UNL     1      -0.060  -4.804  -4.775  0.00  0.00    +0.032 A 
ATOM     11  C   UNL     1      -0.277  -5.206  -3.471  0.00  0.00    +0.044 A 
ATOM     12 BR   UNL     1      -1.603  -6.499  -3.088  0.00  0.00    -0.048 Br
ATOM     13 BR   UNL     1       1.215  -3.320  -6.843  0.00  0.00    -0.050 Br
ENDBRANCH   5   6
BRANCH   1  18
ATOM     14  C   UNL     1      -0.828   1.444  -0.142  0.00  0.00    +0.045 C 
ATOM     15  C   UNL     1      -0.630  -0.050  -0.117  0.00  0.00    -0.030 A 
ATOM     16  C   UNL     1      -0.693  -0.773  -1.294  0.00  0.00    +0.006 A 
ATOM     17  C   UNL     1      -0.513  -2.141  -1.278  0.00  0.00    +0.012 A 
ATOM     18  C   UNL     1      -0.267  -2.800  -0.073  0.00  0.00    +0.023 A 
ATOM     19  C   UNL     1      -0.203  -2.071   1.114  0.00  0.00    +0.034 A 
ATOM     20  C   UNL     1      -0.379  -0.696   1.088  0.00  0.00    +0.028 A 
BRANCH  20  21
ATOM     21  N   UNL     1      -0.311   0.040   2.273  0.00  0.00    -0.358 N 
ATOM     22  H   UNL     1      -0.438   1.002   2.256  0.00  0.00    +0.142 HD
ATOM     23  H   UNL     1      -0.136  -0.410   3.114  0.00  0.00    +0.142 HD
ENDBRANCH  20  21
ENDBRANCH   1  18
TORSDOF 3
