REMARK  Name = ZINC04349478
REMARK  16 active torsions:
REMARK  status: ('A' for Active; 'I' for Inactive)
REMARK    1  A    between atoms: C_1  and  C_2
REMARK    2  A    between atoms: C_4  and  O_52
REMARK    3  A    between atoms: C_6  and  O_51
REMARK    4  A    between atoms: C_8  and  O_50
REMARK    5  A    between atoms: C_10  and  O_13
REMARK    6  A    between atoms: O_13  and  C_14
REMARK    7  A    between atoms: C_14  and  C_15
REMARK    8  A    between atoms: C_17  and  O_49
REMARK    9  A    between atoms: C_19  and  O_48
REMARK   10  A    between atoms: C_21  and  O_47
REMARK   11  A    between atoms: C_23  and  O_26
REMARK   12  A    between atoms: O_26  and  C_27
REMARK   13  A    between atoms: C_31  and  O_46
REMARK   14  A    between atoms: C_33  and  O_45
REMARK   15  A    between atoms: C_37  and  C_38
REMARK   16  A    between atoms: C_41  and  O_44
REMARK                            x       y       z     vdW  Elec       q    Type
REMARK                         _______ _______ _______ _____ _____    ______ ____
ROOT
ATOM      1  C   UNL     1       1.076   2.963  -0.701  0.00  0.00    +0.179 C 
ATOM      2  C   UNL     1       1.271   1.445  -0.678  0.00  0.00    +0.177 C 
ATOM      3  C   UNL     1       2.288   1.052  -1.754  0.00  0.00    +0.180 C 
ATOM      4  C   UNL     1       3.595   1.809  -1.506  0.00  0.00    +0.214 C 
ATOM      5  C   UNL     1       3.311   3.314  -1.497  0.00  0.00    +0.340 C 
ATOM      6  O   UNL     1       2.335   3.607  -0.495  0.00  0.00    -0.331 OA
ENDROOT
BRANCH   4   7
ATOM      7  O   UNL     1       4.528   1.506  -2.546  0.00  0.00    -0.383 OA
ATOM      8  H   UNL     1       5.378   1.956  -2.455  0.00  0.00    +0.210 HD
ENDBRANCH   4   7
BRANCH   3   9
ATOM      9  O   UNL     1       2.531  -0.355  -1.691  0.00  0.00    -0.386 OA
ATOM     10  H   UNL     1       3.167  -0.674  -2.346  0.00  0.00    +0.210 HD
ENDBRANCH   3   9
BRANCH   2  11
ATOM     11  O   UNL     1       0.023   0.799  -0.941  0.00  0.00    -0.386 OA
ATOM     12  H   UNL     1       0.073  -0.167  -0.942  0.00  0.00    +0.210 HD
ENDBRANCH   2  11
BRANCH   1  13
ATOM     13  C   UNL     1       0.107   3.370   0.411  0.00  0.00    +0.197 C 
BRANCH  13  14
ATOM     14  O   UNL     1      -0.166   4.770   0.317  0.00  0.00    -0.346 OA
BRANCH  14  20
ATOM     15  C   UNL     1      -4.285   4.209  -0.248  0.00  0.00    +0.041 C 
ATOM     16  C   UNL     1      -2.932   4.915  -0.152  0.00  0.00    +0.149 C 
ATOM     17  C   UNL     1      -3.128   6.423  -0.330  0.00  0.00    +0.174 C 
ATOM     18  C   UNL     1      -1.778   7.128  -0.173  0.00  0.00    +0.179 C 
ATOM     19  C   UNL     1      -1.187   6.777   1.196  0.00  0.00    +0.201 C 
ATOM     20  C   UNL     1      -1.065   5.255   1.315  0.00  0.00    +0.282 C 
ATOM     21  O   UNL     1      -2.351   4.660   1.128  0.00  0.00    -0.343 OA
BRANCH  19  22
ATOM     22  O   UNL     1      -2.045   7.269   2.227  0.00  0.00    -0.384 OA
ATOM     23  H   UNL     1      -1.734   7.077   3.123  0.00  0.00    +0.210 HD
ENDBRANCH  19  22
BRANCH  18  24
ATOM     24  O   UNL     1      -1.964   8.542  -0.265  0.00  0.00    -0.386 OA
ATOM     25  H   UNL     1      -1.147   9.053  -0.174  0.00  0.00    +0.210 HD
ENDBRANCH  18  24
BRANCH  17  26
ATOM     26  O   UNL     1      -3.655   6.685  -1.632  0.00  0.00    -0.387 OA
ATOM     27  H   UNL     1      -4.509   6.264  -1.803  0.00  0.00    +0.210 HD
ENDBRANCH  17  26
ENDBRANCH  14  20
ENDBRANCH  13  14
ENDBRANCH   1  13
BRANCH   5  28
ATOM     28  O   UNL     1       4.516   4.025  -1.211  0.00  0.00    -0.453 OA
BRANCH  28  29
ATOM     29  C   UNL     1       4.460   5.384  -1.267  0.00  0.00    +0.214 A 
ATOM     30  C   UNL     1       4.610   6.055  -2.509  0.00  0.00    +0.238 A 
ATOM     31  O   UNL     1       4.790   5.437  -3.546  0.00  0.00    -0.283 OA
ATOM     32  C   UNL     1       4.534   7.524  -2.498  0.00  0.00    +0.109 A 
ATOM     33  C   UNL     1       4.667   8.268  -3.678  0.00  0.00    +0.135 A 
ATOM     34  C   UNL     1       4.596   9.647  -3.625  0.00  0.00    +0.091 A 
ATOM     35  C   UNL     1       4.394  10.291  -2.408  0.00  0.00    +0.124 A 
ATOM     36  C   UNL     1       4.261   9.562  -1.237  0.00  0.00    +0.092 A 
ATOM     37  C   UNL     1       4.330   8.177  -1.270  0.00  0.00    +0.147 A 
ATOM     38  O   UNL     1       4.204   7.454  -0.137  0.00  0.00    -0.451 OA
ATOM     39  C   UNL     1       4.266   6.111  -0.132  0.00  0.00    +0.181 A 
BRANCH  39  40
ATOM     40  C   UNL     1       4.119   5.399   1.151  0.00  0.00    +0.021 A 
ATOM     41  C   UNL     1       3.075   5.729   2.020  0.00  0.00    +0.015 A 
ATOM     42  C   UNL     1       2.937   5.057   3.215  0.00  0.00    +0.046 A 
ATOM     43  C   UNL     1       3.841   4.060   3.561  0.00  0.00    +0.117 A 
ATOM     44  C   UNL     1       4.884   3.733   2.703  0.00  0.00    +0.046 A 
ATOM     45  C   UNL     1       5.026   4.395   1.504  0.00  0.00    +0.015 A 
BRANCH  43  46
ATOM     46  O   UNL     1       3.705   3.404   4.742  0.00  0.00    -0.507 OA
ATOM     47  H   UNL     1       4.178   3.816   5.478  0.00  0.00    +0.292 HD
ENDBRANCH  43  46
ENDBRANCH  39  40
BRANCH  35  48
ATOM     48  O   UNL     1       4.325  11.646  -2.368  0.00  0.00    -0.507 OA
ATOM     49  H   UNL     1       3.432  11.998  -2.479  0.00  0.00    +0.292 HD
ENDBRANCH  35  48
BRANCH  33  50
ATOM     50  O   UNL     1       4.864   7.638  -4.864  0.00  0.00    -0.506 OA
ATOM     51  H   UNL     1       4.047   7.416  -5.331  0.00  0.00    +0.292 HD
ENDBRANCH  33  50
ENDBRANCH  28  29
ENDBRANCH   5  28
TORSDOF 15
