REMARK  Name = ZINC08762775
REMARK  9 active torsions:
REMARK  status: ('A' for Active; 'I' for Inactive)
REMARK    1  A    between atoms: C_1  and  C_2
REMARK    2  A    between atoms: C_13  and  C_15
REMARK    3  A    between atoms: C_15  and  C_17
REMARK    4  A    between atoms: C_17  and  C_18
REMARK    5  A    between atoms: C_25  and  O_26
REMARK    6  A    between atoms: O_26  and  C_27
REMARK    7  A    between atoms: C_33  and  N_84
REMARK    8  A    between atoms: C_37  and  C_44
REMARK    9  A    between atoms: C_40  and  O_43
REMARK                            x       y       z     vdW  Elec       q    Type
REMARK                         _______ _______ _______ _____ _____    ______ ____
ROOT
ATOM      1  C   UNL     1       4.796   0.746  -1.308  0.00  0.00    +0.012 C 
ATOM      2  C   UNL     1       4.604   1.502   0.009  0.00  0.00    -0.019 C 
ATOM      3  C   UNL     1       4.438   0.545   1.166  0.00  0.00    +0.008 C 
ATOM      4  C   UNL     1       2.942   0.387   1.500  0.00  0.00    +0.005 C 
ATOM      5  C   UNL     1       2.131   0.424   0.211  0.00  0.00    +0.003 C 
ATOM      6  C   UNL     1       2.108   1.833  -0.365  0.00  0.00    +0.000 C 
ATOM      7  C   UNL     1       3.438   2.504  -0.058  0.00  0.00    -0.001 C 
ATOM      8  C   UNL     1       3.929   3.501  -1.118  0.00  0.00    +0.005 C 
ATOM      9  C   UNL     1       5.444   3.633  -0.805  0.00  0.00    +0.012 C 
ATOM     10  C   UNL     1       5.803   2.467   0.149  0.00  0.00    +0.061 C 
ATOM     11  C   UNL     1       1.033   2.682   0.328  0.00  0.00    +0.031 C 
ATOM     12  C   UNL     1      -0.264   1.958   0.467  0.00  0.00    -0.027 C 
ATOM     13  C   UNL     1      -0.374   0.664   0.469  0.00  0.00    -0.065 C 
ATOM     14  C   UNL     1       0.790  -0.261   0.297  0.00  0.00    -0.008 C 
ATOM     15  C   UNL     1       0.779  -1.321   1.399  0.00  0.00    +0.014 C 
ATOM     16  C   UNL     1      -0.588  -1.997   1.487  0.00  0.00    +0.032 C 
ATOM     17  C   UNL     1      -1.672  -0.967   1.803  0.00  0.00    +0.119 C 
ATOM     18  C   UNL     1      -1.753   0.060   0.670  0.00  0.00    +0.062 C 
ATOM     19  C   UNL     1       0.596  -0.989  -1.044  0.00  0.00    +0.016 C 
ENDROOT
BRANCH  10  20
ATOM     20  C   UNL     1       7.063   1.782  -0.303  0.00  0.00    +0.136 C 
ATOM     21  O   UNL     1       7.476   1.957  -1.424  0.00  0.00    -0.297 OA
BRANCH  20  22
ATOM     22  C   UNL     1       7.810   0.879   0.644  0.00  0.00    +0.064 C 
BRANCH  22  23
ATOM     23  C   UNL     1       9.127   0.442  -0.001  0.00  0.00    -0.027 C 
ATOM     24  C   UNL     1       9.906   1.663  -0.417  0.00  0.00    -0.012 A 
ATOM     25  C   UNL     1      10.563   1.730  -1.627  0.00  0.00    -0.040 A 
ATOM     26  C   UNL     1      11.273   2.871  -1.968  0.00  0.00    +0.053 A 
ATOM     27  C   UNL     1      11.327   3.950  -1.103  0.00  0.00    +0.170 A 
ATOM     28  C   UNL     1      10.664   3.889   0.118  0.00  0.00    +0.208 A 
ATOM     29  C   UNL     1       9.956   2.745   0.457  0.00  0.00    +0.167 A 
ATOM     30  O   UNL     1      10.865   5.064   0.785  0.00  0.00    -0.449 OA
ATOM     31  C   UNL     1      11.993   5.683   0.139  0.00  0.00    +0.467 C 
ATOM     32  O   UNL     1      11.946   5.163  -1.203  0.00  0.00    -0.452 OA
ATOM     33  C   UNL     1      10.533   0.585  -2.607  0.00  0.00    +0.017 C 
ATOM     34  C   UNL     1      10.079  -0.694  -1.902  0.00  0.00    -0.074 C 
ATOM     35  C   UNL     1       8.166  -1.645  -0.757  0.00  0.00    -0.095 C 
ATOM     36  N   UNL     1       8.828  -0.389  -1.179  0.00  0.00    +0.383 N 
ATOM     37  H   UNL     1       8.197   0.128  -1.803  0.00  0.00    -0.081 HD
BRANCH  29  38
ATOM     38  O   UNL     1       9.305   2.681   1.650  0.00  0.00    -0.491 OA
ATOM     39  C   UNL     1      10.073   2.281   2.787  0.00  0.00    +0.277 C 
ENDBRANCH  29  38
ENDBRANCH  22  23
ENDBRANCH  20  22
ENDBRANCH  10  20
BRANCH  17  40
ATOM     40  O   UNL     1      -2.932  -1.628   1.937  0.00  0.00    -0.391 OA
ATOM     41  H   UNL     1      -3.669  -1.034   2.138  0.00  0.00    +0.210 HD
ENDBRANCH  17  40
TORSDOF 5
