REMARK  Name = ZINC06198912
REMARK  9 active torsions:
REMARK  status: ('A' for Active; 'I' for Inactive)
REMARK    1  A    between atoms: C_1  and  N_2
REMARK    2  A    between atoms: C_3  and  O_9
REMARK    3  A    between atoms: O_9  and  C_10
REMARK    4  A    between atoms: C_13  and  S_16
REMARK    5  A    between atoms: S_16  and  N_19
REMARK    6  A    between atoms: N_19  and  C_20
REMARK    7  A    between atoms: C_23  and  O_27
REMARK    8  A    between atoms: O_27  and  C_28
REMARK    9  A    between atoms: C_31  and  C_34
REMARK                            x       y       z     vdW  Elec       q    Type
REMARK                         _______ _______ _______ _____ _____    ______ ____
ROOT
ATOM      1  N   UNL     1      -8.183   3.760   3.646  0.00  0.00    -0.216 N 
ATOM      2  H   UNL     1      -8.497   4.174   2.827  0.00  0.00    +0.174 HD
ENDROOT
BRANCH   1   3
ATOM      3  C   UNL     1      -6.820   3.495   3.817  0.00  0.00    +0.050 A 
ATOM      4  C   UNL     1      -6.092   2.909   2.790  0.00  0.00    +0.028 A 
ATOM      5  C   UNL     1      -4.746   2.647   2.959  0.00  0.00    +0.050 A 
ATOM      6  C   UNL     1      -4.122   2.968   4.155  0.00  0.00    +0.149 A 
ATOM      7  C   UNL     1      -4.849   3.549   5.184  0.00  0.00    +0.085 A 
ATOM      8  C   UNL     1      -6.194   3.817   5.014  0.00  0.00    +0.048 A 
ATOM      9 CL   UNL     1      -4.068   3.945   6.683  0.00  0.00    -0.080 Cl
BRANCH   6  10
ATOM     10  O   UNL     1      -2.797   2.708   4.321  0.00  0.00    -0.437 OA
BRANCH  10  11
ATOM     11  C   UNL     1      -2.446   1.539   4.913  0.00  0.00    +0.221 A 
ATOM     12  C   UNL     1      -1.105   1.190   5.006  0.00  0.00    +0.068 A 
ATOM     13  C   UNL     1      -0.760  -0.005   5.612  0.00  0.00    +0.019 A 
ATOM     14  C   UNL     1      -1.775  -0.813   6.106  0.00  0.00    +0.073 A 
ATOM     15  C   UNL     1      -3.088  -0.406   5.974  0.00  0.00    +0.127 A 
ATOM     16  N   UNL     1      -3.385   0.743   5.396  0.00  0.00    -0.220 NA
BRANCH  14  17
ATOM     17  C   UNL     1      -1.448  -2.124   6.774  0.00  0.00    +0.419 C 
ATOM     18  F   UNL     1      -1.268  -1.916   8.146  0.00  0.00    -0.166 F 
ATOM     19  F   UNL     1      -0.274  -2.647   6.224  0.00  0.00    -0.166 F 
ATOM     20  F   UNL     1      -2.499  -3.025   6.573  0.00  0.00    -0.166 F 
ENDBRANCH  14  17
ENDBRANCH  10  11
ENDBRANCH   6  10
ENDBRANCH   1   3
BRANCH   1  21
ATOM     21  S   UNL     1      -9.259   3.368   4.841  0.00  0.00    +0.072 S 
ATOM     22  O   UNL     1      -8.739   3.906   6.049  0.00  0.00    -0.150 OA
ATOM     23  O   UNL     1     -10.550   3.704   4.352  0.00  0.00    -0.150 OA
BRANCH  21  27
ATOM     24  C   UNL     1      -9.177  -1.137   5.292  0.00  0.00    +0.131 A 
ATOM     25  C   UNL     1      -8.393  -0.342   6.116  0.00  0.00    +0.048 A 
ATOM     26  C   UNL     1      -8.420   1.032   5.976  0.00  0.00    +0.032 A 
ATOM     27  C   UNL     1      -9.227   1.615   5.016  0.00  0.00    +0.109 A 
ATOM     28  C   UNL     1     -10.013   0.825   4.198  0.00  0.00    +0.032 A 
ATOM     29  C   UNL     1      -9.986  -0.550   4.330  0.00  0.00    +0.048 A 
BRANCH  24  30
ATOM     30  O   UNL     1      -9.153  -2.489   5.428  0.00  0.00    -0.437 OA
BRANCH  30  33
ATOM     31  C   UNL     1      -8.283  -3.539   2.737  0.00  0.00    +0.176 C 
ATOM     32  N   UNL     1      -9.583  -3.714   3.389  0.00  0.00    -0.233 N 
ATOM     33  C   UNL     1      -9.937  -3.227   4.600  0.00  0.00    +0.239 A 
ATOM     34  C   UNL     1     -11.222  -3.604   4.836  0.00  0.00    +0.141 A 
ATOM     35  C   UNL     1     -11.658  -4.350   3.735  0.00  0.00    +0.173 A 
ATOM     36  N   UNL     1     -10.677  -4.418   2.871  0.00  0.00    -0.155 NA
ATOM     37 CL   UNL     1     -13.231  -5.061   3.547  0.00  0.00    -0.058 Cl
ATOM     38 CL   UNL     1     -12.155  -3.229   6.251  0.00  0.00    -0.075 Cl
ENDBRANCH  30  33
ENDBRANCH  24  30
ENDBRANCH  21  27
ENDBRANCH   1  21
TORSDOF 8
