REMARK  Name = ZINC38716189
REMARK  10 active torsions:
REMARK  status: ('A' for Active; 'I' for Inactive)
REMARK    1  A    between atoms: C_1  and  C_2
REMARK    2  A    between atoms: C_2  and  C_3
REMARK    3  A    between atoms: C_2  and  C_4
REMARK    4  A    between atoms: C_2  and  C_5
REMARK    5  A    between atoms: C_8  and  N_11
REMARK    6  A    between atoms: N_14  and  C_15
REMARK    7  A    between atoms: C_18  and  C_21
REMARK    8  A    between atoms: C_21  and  C_22
REMARK    9  A    between atoms: N_24  and  C_25
REMARK   10  A    between atoms: C_25  and  C_26
REMARK                            x       y       z     vdW  Elec       q    Type
REMARK                         _______ _______ _______ _____ _____    ______ ____
ROOT
ATOM      1  C   UNL     1       5.836  -1.419  -6.332  0.00  0.00    +0.035 A 
ATOM      2  C   UNL     1       6.699  -1.201  -5.266  0.00  0.00    +0.023 A 
ATOM      3  C   UNL     1       8.015  -0.858  -5.504  0.00  0.00    +0.006 A 
ATOM      4  C   UNL     1       8.475  -0.731  -6.802  0.00  0.00    -0.039 A 
ATOM      5  C   UNL     1       7.618  -0.947  -7.866  0.00  0.00    +0.006 A 
ATOM      6  C   UNL     1       6.302  -1.296  -7.635  0.00  0.00    +0.023 A 
ENDROOT
BRANCH   1  10
ATOM      7  N   UNL     1       2.611  -1.697  -4.728  0.00  0.00    -0.269 N 
ATOM      8  C   UNL     1       3.861  -1.280  -5.014  0.00  0.00    +0.308 C 
ATOM      9  O   UNL     1       4.409  -0.466  -4.297  0.00  0.00    -0.252 OA
ATOM     10  N   UNL     1       4.502  -1.767  -6.095  0.00  0.00    -0.269 N 
ATOM     11  H   UNL     1       2.202  -2.401  -5.255  0.00  0.00    +0.156 HD
ATOM     12  H   UNL     1       4.038  -2.359  -6.708  0.00  0.00    +0.156 HD
BRANCH   7  16
ATOM     13  C   UNL     1       0.506   0.041  -1.581  0.00  0.00    -0.042 A 
ATOM     14  C   UNL     1       1.393   0.802  -2.320  0.00  0.00    +0.006 A 
ATOM     15  C   UNL     1       2.092   0.228  -3.364  0.00  0.00    +0.023 A 
ATOM     16  C   UNL     1       1.904  -1.113  -3.671  0.00  0.00    +0.035 A 
ATOM     17  C   UNL     1       1.012  -1.874  -2.926  0.00  0.00    +0.023 A 
ATOM     18  C   UNL     1       0.320  -1.296  -1.880  0.00  0.00    +0.006 A 
BRANCH  13  20
ATOM     19  C   UNL     1       0.088  -0.052   0.862  0.00  0.00    +0.015 C 
ATOM     20  C   UNL     1      -0.256   0.670  -0.442  0.00  0.00    -0.013 C 
ATOM     21  C   UNL     1      -1.758   0.555  -0.709  0.00  0.00    +0.015 C 
ATOM     22  C   UNL     1       0.130   2.146  -0.325  0.00  0.00    +0.015 C 
ENDBRANCH  13  20
ENDBRANCH   7  16
ENDBRANCH   1  10
BRANCH   4  23
ATOM     23  C   UNL     1       9.912  -0.356  -7.057  0.00  0.00    +0.130 C 
BRANCH  23  24
ATOM     24  C   UNL     1      10.748  -1.606  -7.151  0.00  0.00    +0.218 C 
ATOM     25  O   UNL     1      10.229  -2.694  -7.022  0.00  0.00    -0.275 OA
ATOM     26  N   UNL     1      12.074  -1.515  -7.377  0.00  0.00    -0.310 N 
ATOM     27  H   UNL     1      12.489  -0.644  -7.480  0.00  0.00    +0.149 HD
BRANCH  26  28
ATOM     28  C   UNL     1      12.887  -2.730  -7.468  0.00  0.00    +0.146 C 
BRANCH  28  29
ATOM     29  C   UNL     1      14.324  -2.355  -7.723  0.00  0.00    +0.007 A 
ATOM     30  C   UNL     1      15.313  -2.109  -6.830  0.00  0.00    +0.013 A 
ATOM     31  C   UNL     1      16.572  -1.779  -7.298  0.00  0.00    +0.008 A 
ATOM     32  C   UNL     1      16.778  -1.711  -8.636  0.00  0.00    +0.045 A 
ATOM     33  S   UNL     1      15.166  -2.127  -9.281  0.00  0.00    -0.100 S 
ENDBRANCH  28  29
ENDBRANCH  26  28
ENDBRANCH  23  24
ENDBRANCH   4  23
TORSDOF 7
