REMARK  Name = ZINC38713925
REMARK  6 active torsions:
REMARK  status: ('A' for Active; 'I' for Inactive)
REMARK    1  A    between atoms: C_1  and  C_2
REMARK    2  A    between atoms: C_17  and  C_19
REMARK    3  A    between atoms: C_24  and  O_25
REMARK    4  A    between atoms: O_25  and  C_26
REMARK    5  A    between atoms: C_29  and  C_33
REMARK    6  A    between atoms: C_30  and  C_32
REMARK                            x       y       z     vdW  Elec       q    Type
REMARK                         _______ _______ _______ _____ _____    ______ ____
ROOT
ATOM      1  C   UNL     1      -0.018   1.503   0.010  0.00  0.00    +0.045 C 
ATOM      2  C   UNL     1       0.002  -0.004   0.002  0.00  0.00    -0.029 A 
ATOM      3  C   UNL     1       0.005  -0.677  -1.199  0.00  0.00    +0.051 A 
ATOM      4  C   UNL     1       0.025  -2.071  -1.222  0.00  0.00    +0.140 A 
ATOM      5  C   UNL     1       0.046  -2.767  -0.001  0.00  0.00    +0.066 A 
ATOM      6  C   UNL     1       0.039  -2.075   1.209  0.00  0.00    +0.035 A 
ATOM      7  C   UNL     1       0.023  -0.696   1.206  0.00  0.00    +0.045 A 
ATOM      8 CL   UNL     1       0.021   0.175   2.707  0.00  0.00    -0.083 Cl
ATOM      9  C   UNL     1       0.083  -4.251  -0.018  0.00  0.00    +0.199 A 
ATOM     10  O   UNL     1      -0.065  -4.933   0.980  0.00  0.00    -0.287 OA
ATOM     11  C   UNL     1       0.315  -4.817  -1.351  0.00  0.00    +0.073 A 
ATOM     12  C   UNL     1       0.277  -4.030  -2.467  0.00  0.00    +0.199 A 
ATOM     13  O   UNL     1       0.021  -2.708  -2.416  0.00  0.00    -0.450 OA
ATOM     14  C   UNL     1       0.554  -4.877  -3.639  0.00  0.00    +0.289 C 
ATOM     15  O   UNL     1       0.597  -4.482  -4.788  0.00  0.00    -0.266 OA
ATOM     16  N   UNL     1       0.752  -6.154  -3.253  0.00  0.00    -0.232 N 
ATOM     17  C   UNL     1       0.615  -6.213  -1.788  0.00  0.00    +0.155 C 
ATOM     18  C   UNL     1       1.035  -7.224  -4.089  0.00  0.00    +0.169 A 
ATOM     19  N   UNL     1       1.230  -8.485  -3.767  0.00  0.00    -0.229 NA
ATOM     20  C   UNL     1       1.492  -9.392  -4.689  0.00  0.00    +0.050 A 
ATOM     21  C   UNL     1       1.550  -8.965  -5.974  0.00  0.00    +0.011 A 
ATOM     22  S   UNL     1       1.204  -7.226  -5.764  0.00  0.00    -0.057 S 
ATOM     23  C   UNL     1       1.826  -9.745  -7.234  0.00  0.00    +0.053 C 
ATOM     24  C   UNL     1       1.718 -10.838  -4.328  0.00  0.00    +0.066 C 
ENDROOT
BRANCH  17  25
ATOM     25  C   UNL     1      -0.517  -7.132  -1.409  0.00  0.00    +0.020 A 
ATOM     26  C   UNL     1      -1.452  -7.505  -2.356  0.00  0.00    +0.009 A 
ATOM     27  C   UNL     1      -2.491  -8.348  -2.008  0.00  0.00    +0.001 A 
ATOM     28  C   UNL     1      -2.599  -8.819  -0.712  0.00  0.00    +0.004 A 
ATOM     29  C   UNL     1      -1.667  -8.449   0.238  0.00  0.00    +0.046 A 
ATOM     30  C   UNL     1      -0.620  -7.608  -0.110  0.00  0.00    +0.125 A 
BRANCH  30  31
ATOM     31  O   UNL     1       0.301  -7.247   0.822  0.00  0.00    -0.495 OA
ATOM     32  C   UNL     1       0.133  -7.775   2.139  0.00  0.00    +0.277 C 
ENDBRANCH  30  31
ENDBRANCH  17  25
TORSDOF 2
