REMARK  Name = ZINC21626156
REMARK  3 active torsions:
REMARK  status: ('A' for Active; 'I' for Inactive)
REMARK    1  A    between atoms: C_6  and  N_7
REMARK    2  A    between atoms: C_11  and  C_13
REMARK    3  A    between atoms: C_13  and  N_14
REMARK                            x       y       z     vdW  Elec       q    Type
REMARK                         _______ _______ _______ _____ _____    ______ ____
ROOT
ATOM      1  N   UNL     1      -5.782   0.008   3.211  0.00  0.00    -0.269 N 
ATOM      2  C   UNL     1      -4.559   0.516   2.962  0.00  0.00    +0.310 C 
ATOM      3  O   UNL     1      -3.822   0.807   3.884  0.00  0.00    -0.252 OA
ATOM      4  N   UNL     1      -4.152   0.702   1.690  0.00  0.00    -0.239 N 
ATOM      5  C   UNL     1      -2.929   1.210   1.442  0.00  0.00    +0.238 C 
ATOM      6  O   UNL     1      -2.195   1.500   2.361  0.00  0.00    -0.274 OA
ATOM      7  H   UNL     1      -6.477  -0.184   2.380  0.00  0.00    +0.156 HD
ATOM      8  H   UNL     1      -4.819   0.439   0.856  0.00  0.00    +0.159 HD
ENDROOT
BRANCH   1  14
ATOM      9  C   UNL     1      -6.985  -1.367   4.791  0.00  0.00    +0.024 A 
ATOM     10  C   UNL     1      -7.359  -1.648   6.090  0.00  0.00    +0.017 A 
ATOM     11  C   UNL     1      -6.930  -0.837   7.126  0.00  0.00    +0.018 A 
ATOM     12  C   UNL     1      -6.120   0.254   6.864  0.00  0.00    +0.017 A 
ATOM     13  C   UNL     1      -5.738   0.536   5.567  0.00  0.00    +0.024 A 
ATOM     14  C   UNL     1      -6.168  -0.276   4.526  0.00  0.00    +0.035 A 
ATOM     15 BR   UNL     1      -7.451  -1.221   8.903  0.00  0.00    -0.050 Br
ENDBRANCH   1  14
BRANCH   5  16
ATOM     16  C   UNL     1      -2.474   1.418   0.020  0.00  0.00    +0.212 C 
BRANCH  16  17
ATOM     17  N   UNL     1      -1.120   1.977   0.017  0.00  0.00    -0.233 N 
ATOM     18  C   UNL     1      -0.020   1.213   0.000  0.00  0.00    +0.223 C 
ATOM     19  O   UNL     1      -0.007   0.001  -0.014  0.00  0.00    -0.275 OA
ATOM     20  C   UNL     1       1.204   2.104  -0.004  0.00  0.00    +0.112 C 
ATOM     21  C   UNL     1       0.612   3.523   0.020  0.00  0.00    +0.056 C 
ATOM     22  C   UNL     1      -0.879   3.296   0.035  0.00  0.00    +0.229 C 
ATOM     23  O   UNL     1      -1.724   4.165   0.056  0.00  0.00    -0.275 OA
ATOM     24  C   UNL     1       1.026   4.289  -1.232  0.00  0.00    +0.016 C 
ATOM     25  C   UNL     1       0.412   5.691  -1.202  0.00  0.00    +0.001 C 
ATOM     26  C   UNL     1       0.889   6.429   0.051  0.00  0.00    +0.000 C 
ATOM     27  C   UNL     1       0.443   5.662   1.297  0.00  0.00    +0.001 C 
ATOM     28  C   UNL     1       1.057   4.259   1.278  0.00  0.00    +0.016 C 
ENDBRANCH  16  17
ENDBRANCH   5  16
TORSDOF 3
