REMARK  Name = ZINC09156059
REMARK  7 active torsions:
REMARK  status: ('A' for Active; 'I' for Inactive)
REMARK    1  A    between atoms: C_1  and  O_2
REMARK    2  A    between atoms: O_2  and  C_3
REMARK    3  A    between atoms: C_6  and  S_22
REMARK    4  A    between atoms: C_8  and  C_9
REMARK    5  A    between atoms: C_16  and  C_17
REMARK    6  A    between atoms: C_16  and  N_61
REMARK    7  A    between atoms: S_22  and  N_25
REMARK                            x       y       z     vdW  Elec       q    Type
REMARK                         _______ _______ _______ _____ _____    ______ ____
ROOT
ATOM      1  C   UNL     1      -2.447  -1.690  -4.306  0.00  0.00    +0.132 A 
ATOM      2  C   UNL     1      -2.953  -0.601  -3.612  0.00  0.00    +0.048 A 
ATOM      3  C   UNL     1      -2.611  -0.404  -2.289  0.00  0.00    +0.032 A 
ATOM      4  C   UNL     1      -1.753  -1.284  -1.649  0.00  0.00    +0.110 A 
ATOM      5  C   UNL     1      -1.241  -2.371  -2.323  0.00  0.00    +0.045 A 
ATOM      6  C   UNL     1      -1.584  -2.585  -3.661  0.00  0.00    +0.080 A 
ENDROOT
BRANCH   6   7
ATOM      7  C   UNL     1      -1.039  -3.746  -4.389  0.00  0.00    +0.250 C 
ATOM      8  O   UNL     1      -0.463  -3.584  -5.447  0.00  0.00    -0.270 OA
ATOM      9  N   UNL     1      -1.181  -4.987  -3.882  0.00  0.00    -0.301 N 
ATOM     10  C   UNL     1      -1.978  -5.220  -2.668  0.00  0.00    +0.089 C 
ATOM     11  C   UNL     1      -2.983  -6.345  -2.960  0.00  0.00    -0.059 C 
ATOM     12  C   UNL     1      -1.594  -7.231  -4.739  0.00  0.00    -0.059 C 
ATOM     13  C   UNL     1      -0.536  -6.143  -4.524  0.00  0.00    +0.089 C 
ATOM     14  N   UNL     1      -2.240  -7.529  -3.443  0.00  0.00    +0.384 N 
ATOM     15  H   UNL     1      -1.514  -7.769  -2.757  0.00  0.00    -0.081 HD
BRANCH  14  16
ATOM     16  C   UNL     1      -3.159  -8.677  -3.589  0.00  0.00    -0.042 C 
BRANCH  16  17
ATOM     17  C   UNL     1      -4.004  -8.794  -2.347  0.00  0.00    -0.057 A 
ATOM     18  C   UNL     1      -3.571  -9.551  -1.274  0.00  0.00    +0.009 A 
ATOM     19  C   UNL     1      -4.352  -9.632  -0.169  0.00  0.00    +0.045 A 
ATOM     20  S   UNL     1      -5.754  -8.629  -0.634  0.00  0.00    -0.105 S 
ATOM     21  C   UNL     1      -5.201  -8.164  -2.267  0.00  0.00    +0.047 A 
ENDBRANCH  16  17
ENDBRANCH  14  16
ENDBRANCH   6   7
BRANCH   4  22
ATOM     22  S   UNL     1      -1.321  -1.016   0.038  0.00  0.00    +0.075 S 
ATOM     23  O   UNL     1      -0.945  -2.280   0.567  0.00  0.00    -0.150 OA
ATOM     24  O   UNL     1      -2.362  -0.232   0.605  0.00  0.00    -0.150 OA
BRANCH  22  25
ATOM     25  N   UNL     1       0.041  -0.074   0.051  0.00  0.00    -0.202 N 
ATOM     26  C   UNL     1       0.048   1.391   0.076  0.00  0.00    +0.136 C 
ATOM     27  C   UNL     1       1.534   1.787   0.078  0.00  0.00    +0.058 C 
ATOM     28  C   UNL     1       2.277   0.471   0.054  0.00  0.00    -0.023 A 
ATOM     29  C   UNL     1       1.350  -0.559   0.039  0.00  0.00    +0.054 A 
ATOM     30  C   UNL     1       1.803  -1.880   0.016  0.00  0.00    +0.025 A 
ATOM     31  C   UNL     1       3.155  -2.150   0.007  0.00  0.00    +0.002 A 
ATOM     32  C   UNL     1       4.072  -1.115   0.022  0.00  0.00    +0.000 A 
ATOM     33  C   UNL     1       3.631   0.195   0.045  0.00  0.00    +0.005 A 
ENDBRANCH  22  25
ENDBRANCH   4  22
BRANCH   1  35
ATOM     34  C   UNL     1      -3.671  -0.933  -6.196  0.00  0.00    +0.277 C 
ATOM     35  O   UNL     1      -2.787  -1.887  -5.605  0.00  0.00    -0.494 OA
ENDBRANCH   1  35
TORSDOF 6
