REMARK  Name = ZINC42083259
REMARK  11 active torsions:
REMARK  status: ('A' for Active; 'I' for Inactive)
REMARK    1  A    between atoms: C_1  and  C_2
REMARK    2  A    between atoms: C_2  and  C_3
REMARK    3  A    between atoms: C_3  and  C_5
REMARK    4  A    between atoms: C_3  and  C_6
REMARK    5  A    between atoms: C_6  and  C_8
REMARK    6  A    between atoms: C_6  and  N_25
REMARK    7  A    between atoms: N_10  and  N_11
REMARK    8  A    between atoms: N_11  and  C_12
REMARK    9  A    between atoms: C_12  and  N_14
REMARK   10  A    between atoms: N_14  and  C_15
REMARK   11  A    between atoms: C_20  and  C_21
REMARK                            x       y       z     vdW  Elec       q    Type
REMARK                         _______ _______ _______ _____ _____    ______ ____
ROOT
ATOM      1  C   UNL     1      -0.528  -2.547  -0.902  0.00  0.00    +0.250 C 
ATOM      2  O   UNL     1       0.146  -3.500  -0.572  0.00  0.00    -0.272 OA
ATOM      3  N   UNL     1      -0.684  -2.252  -2.207  0.00  0.00    -0.234 N 
ATOM      4  H   UNL     1      -1.288  -1.542  -2.475  0.00  0.00    +0.173 HD
ENDROOT
BRANCH   3   5
ATOM      5  N   UNL     1       0.025  -2.972  -3.178  0.00  0.00    -0.246 N 
ATOM      6  H   UNL     1       0.628  -3.683  -2.910  0.00  0.00    +0.172 HD
BRANCH   5   7
ATOM      7  C   UNL     1      -0.132  -2.678  -4.484  0.00  0.00    +0.151 C 
ATOM      8  S   UNL     1       0.734  -3.558  -5.670  0.00  0.00    -0.017 S 
BRANCH   7   9
ATOM      9  N   UNL     1      -0.971  -1.690  -4.856  0.00  0.00    -0.295 N 
ATOM     10  H   UNL     1      -1.409  -1.147  -4.183  0.00  0.00    +0.154 HD
BRANCH   9  11
ATOM     11  C   UNL     1      -1.208  -1.449  -6.213  0.00  0.00    +0.044 A 
ATOM     12  C   UNL     1      -0.158  -1.488  -7.121  0.00  0.00    +0.024 A 
ATOM     13  C   UNL     1      -0.395  -1.250  -8.460  0.00  0.00    +0.002 A 
ATOM     14  C   UNL     1      -1.677  -0.971  -8.898  0.00  0.00    +0.001 A 
ATOM     15  C   UNL     1      -2.725  -0.930  -7.996  0.00  0.00    +0.014 A 
ATOM     16  C   UNL     1      -2.495  -1.175  -6.656  0.00  0.00    +0.076 A 
BRANCH  16  17
ATOM     17  C   UNL     1      -3.639  -1.137  -5.676  0.00  0.00    +0.419 C 
ATOM     18  F   UNL     1      -4.826  -0.843  -6.355  0.00  0.00    -0.166 F 
ATOM     19  F   UNL     1      -3.756  -2.381  -5.048  0.00  0.00    -0.166 F 
ATOM     20  F   UNL     1      -3.396  -0.150  -4.714  0.00  0.00    -0.166 F 
ENDBRANCH  16  17
ENDBRANCH   9  11
ENDBRANCH   7   9
ENDBRANCH   5   7
ENDBRANCH   3   5
BRANCH   1  21
ATOM     21  C   UNL     1      -1.190  -1.692   0.148  0.00  0.00    +0.165 C 
BRANCH  21  22
ATOM     22  N   UNL     1      -1.116  -2.368   1.446  0.00  0.00    -0.288 N 
ATOM     23  C   UNL     1      -2.025  -2.092   2.402  0.00  0.00    +0.298 C 
ATOM     24  O   UNL     1      -2.906  -1.282   2.188  0.00  0.00    -0.253 OA
ATOM     25  N   UNL     1      -1.957  -2.714   3.596  0.00  0.00    -0.313 N 
ATOM     26  H   UNL     1      -0.413  -3.014   1.617  0.00  0.00    +0.151 HD
ATOM     27  H   UNL     1      -1.254  -3.360   3.767  0.00  0.00    +0.146 HD
ATOM     28  H   UNL     1      -2.611  -2.515   4.284  0.00  0.00    +0.146 HD
ENDBRANCH  21  22
BRANCH  21  29
ATOM     29  C   UNL     1      -0.473  -0.343   0.234  0.00  0.00    +0.015 C 
ATOM     30  C   UNL     1       0.963  -0.559   0.718  0.00  0.00    +0.010 C 
BRANCH  29  32
ATOM     31  C   UNL     1      -0.569   1.954   1.212  0.00  0.00    +0.004 C 
ATOM     32  C   UNL     1      -1.212   0.565   1.219  0.00  0.00    +0.002 C 
ENDBRANCH  29  32
ENDBRANCH  21  29
ENDBRANCH   1  21
TORSDOF 9
