REMARK  Name = ZINC58271639
REMARK  6 active torsions:
REMARK  status: ('A' for Active; 'I' for Inactive)
REMARK    1  A    between atoms: C_1  and  C_2
REMARK    2  A    between atoms: C_2  and  C_4
REMARK    3  A    between atoms: C_2  and  N_16
REMARK    4  A    between atoms: N_6  and  C_7
REMARK    5  A    between atoms: C_10  and  C_14
REMARK    6  A    between atoms: N_19  and  C_22
REMARK                            x       y       z     vdW  Elec       q    Type
REMARK                         _______ _______ _______ _____ _____    ______ ____
ROOT
ATOM      1  C   UNL     1       1.116  -0.184  -1.548  0.00  0.00    +0.034 C 
ATOM      2  C   UNL     1       0.189  -0.079  -0.335  0.00  0.00    +0.140 C 
ENDROOT
BRANCH   2   3
ATOM      3  N   UNL     1      -1.036  -0.849  -0.587  0.00  0.00    -0.289 NA
ATOM      4  C   UNL     1      -0.789  -2.291  -0.449  0.00  0.00    +0.104 C 
ATOM      5  C   UNL     1      -2.120  -3.044  -0.538  0.00  0.00    +0.120 C 
ATOM      6  N   UNL     1      -2.800  -2.646  -1.781  0.00  0.00    -0.327 N 
ATOM      7  C   UNL     1      -2.962  -1.210  -2.055  0.00  0.00    +0.120 C 
ATOM      8  C   UNL     1      -1.597  -0.529  -1.906  0.00  0.00    +0.104 C 
BRANCH   6   9
ATOM      9  C   UNL     1      -3.278  -3.607  -2.677  0.00  0.00    +0.030 A 
ATOM     10  C   UNL     1      -3.224  -4.955  -2.346  0.00  0.00    +0.026 A 
ATOM     11  C   UNL     1      -3.697  -5.902  -3.233  0.00  0.00    +0.040 A 
ATOM     12  C   UNL     1      -4.226  -5.509  -4.450  0.00  0.00    +0.124 A 
ATOM     13  C   UNL     1      -4.281  -4.165  -4.782  0.00  0.00    +0.040 A 
ATOM     14  C   UNL     1      -3.814  -3.214  -3.897  0.00  0.00    +0.026 A 
ATOM     15  F   UNL     1      -4.688  -6.437  -5.316  0.00  0.00    -0.205 F 
ENDBRANCH   6   9
ENDBRANCH   2   3
BRANCH   2  16
ATOM     16  C   UNL     1      -0.166   1.366  -0.098  0.00  0.00    +0.234 C 
ATOM     17  O   UNL     1      -1.297   1.754  -0.298  0.00  0.00    -0.274 OA
ATOM     18  N   UNL     1       0.774   2.228   0.338  0.00  0.00    -0.284 N 
ATOM     19  H   UNL     1       1.695   1.937   0.428  0.00  0.00    +0.155 HD
BRANCH  18  20
ATOM     20  C   UNL     1       0.423   3.540   0.659  0.00  0.00    +0.035 A 
ATOM     21  C   UNL     1      -0.818   3.806   1.231  0.00  0.00    +0.024 A 
ATOM     22  C   UNL     1      -1.169   5.099   1.548  0.00  0.00    +0.022 A 
ATOM     23  C   UNL     1      -0.278   6.146   1.296  0.00  0.00    +0.070 A 
ATOM     24  C   UNL     1       0.969   5.875   0.722  0.00  0.00    +0.060 A 
ATOM     25  C   UNL     1       1.315   4.577   0.411  0.00  0.00    +0.044 A 
ATOM     26 CL   UNL     1       2.080   7.171   0.405  0.00  0.00    -0.082 Cl
BRANCH  23  27
ATOM     27  C   UNL     1      -0.640   7.492   1.625  0.00  0.00    +0.101 C 
ATOM     28  N   UNL     1      -0.927   8.559   1.886  0.00  0.00    -0.191 NA
ENDBRANCH  23  27
ENDBRANCH  18  20
ENDBRANCH   2  16
TORSDOF 5
