REMARK  Name = ZINC23141887
REMARK  6 active torsions:
REMARK  status: ('A' for Active; 'I' for Inactive)
REMARK    1  A    between atoms: C_1  and  O_2
REMARK    2  A    between atoms: O_2  and  C_3
REMARK    3  A    between atoms: C_6  and  C_20
REMARK    4  A    between atoms: C_8  and  S_9
REMARK    5  A    between atoms: S_9  and  N_12
REMARK    6  A    between atoms: N_12  and  C_13
REMARK                            x       y       z     vdW  Elec       q    Type
REMARK                         _______ _______ _______ _____ _____    ______ ____
ROOT
ATOM      1  C   UNL     1       0.762  -0.525  -1.077  0.00  0.00    +0.147 A 
ATOM      2  C   UNL     1       1.453   0.214  -2.030  0.00  0.00    +0.048 A 
ATOM      3  C   UNL     1       2.038  -0.419  -3.104  0.00  0.00    +0.017 A 
ATOM      4  C   UNL     1       1.936  -1.807  -3.234  0.00  0.00    +0.039 A 
ATOM      5  C   UNL     1       1.242  -2.546  -2.274  0.00  0.00    +0.045 A 
ATOM      6  C   UNL     1       0.664  -1.906  -1.200  0.00  0.00    +0.151 A 
ENDROOT
BRANCH   4   7
ATOM      7  C   UNL     1       2.561  -2.489  -4.384  0.00  0.00    +0.251 C 
ATOM      8  O   UNL     1       2.472  -3.697  -4.496  0.00  0.00    -0.270 OA
ATOM      9  N   UNL     1       3.231  -1.774  -5.310  0.00  0.00    -0.249 N 
ATOM     10  C   UNL     1       3.822  -2.421  -6.399  0.00  0.00    +0.241 A 
ATOM     11  N   UNL     1       4.509  -1.825  -7.378  0.00  0.00    -0.202 NA
ATOM     12  H   UNL     1       4.667  -4.780  -8.253  0.00  0.00    +0.190 HD
ATOM     13  C   UNL     1       4.925  -2.721  -8.236  0.00  0.00    +0.217 A 
ATOM     14  N   UNL     1       4.508  -3.928  -7.818  0.00  0.00    -0.264 N 
ATOM     15  N   UNL     1       3.799  -3.713  -6.624  0.00  0.00    -0.136 NA
ATOM     16  H   UNL     1       3.302  -0.811  -5.220  0.00  0.00    +0.158 HD
ENDBRANCH   4   7
BRANCH   6  17
ATOM     17  S   UNL     1      -0.206  -2.838   0.016  0.00  0.00    +0.076 S 
ATOM     18  O   UNL     1      -1.466  -2.203   0.189  0.00  0.00    -0.150 OA
ATOM     19  O   UNL     1      -0.086  -4.204  -0.356  0.00  0.00    -0.150 OA
BRANCH  17  20
ATOM     20  N   UNL     1       0.612  -2.663   1.445  0.00  0.00    -0.216 N 
ATOM     21  H   UNL     1       0.182  -2.232   2.201  0.00  0.00    +0.174 HD
BRANCH  20  22
ATOM     22  C   UNL     1       1.921  -3.135   1.563  0.00  0.00    +0.048 A 
ATOM     23  C   UNL     1       2.252  -4.396   1.083  0.00  0.00    +0.025 A 
ATOM     24  C   UNL     1       3.547  -4.861   1.201  0.00  0.00    +0.017 A 
ATOM     25  C   UNL     1       4.515  -4.072   1.797  0.00  0.00    +0.018 A 
ATOM     26  C   UNL     1       4.189  -2.816   2.276  0.00  0.00    +0.017 A 
ATOM     27  C   UNL     1       2.896  -2.343   2.155  0.00  0.00    +0.025 A 
ATOM     28 BR   UNL     1       6.287  -4.712   1.957  0.00  0.00    -0.050 Br
ENDBRANCH  20  22
ENDBRANCH  17  20
ENDBRANCH   6  17
BRANCH   1  30
ATOM     29  C   UNL     1       0.231   1.531  -0.011  0.00  0.00    +0.277 C 
ATOM     30  O   UNL     1       0.187   0.103  -0.020  0.00  0.00    -0.493 OA
ENDBRANCH   1  30
TORSDOF 5
