REMARK  Name = ZINC09361346
REMARK  5 active torsions:
REMARK  status: ('A' for Active; 'I' for Inactive)
REMARK    1  A    between atoms: C_1  and  C_2
REMARK    2  A    between atoms: C_5  and  C_35
REMARK    3  A    between atoms: N_8  and  C_10
REMARK    4  A    between atoms: C_11  and  C_21
REMARK    5  A    between atoms: N_25  and  C_29
REMARK                            x       y       z     vdW  Elec       q    Type
REMARK                         _______ _______ _______ _____ _____    ______ ____
ROOT
ATOM      1  C   UNL     1       0.680   7.016  -6.332  0.00  0.00    +0.136 A 
ATOM      2  C   UNL     1       0.119   6.292  -5.254  0.00  0.00    +0.081 A 
ATOM      3  C   UNL     1       0.971   5.897  -4.195  0.00  0.00    +0.267 A 
ATOM      4  O   UNL     1       0.531   5.267  -3.249  0.00  0.00    -0.267 OA
ATOM      5  N   UNL     1       2.278   6.230  -4.250  0.00  0.00    -0.268 N 
ATOM      6  C   UNL     1       3.106   5.854  -3.235  0.00  0.00    +0.096 A 
ATOM      7  C   UNL     1       4.420   6.169  -3.260  0.00  0.00    +0.018 A 
ATOM      8  C   UNL     1       4.949   6.894  -4.337  0.00  0.00    +0.005 A 
ATOM      9  C   UNL     1       4.130   7.275  -5.357  0.00  0.00    +0.047 A 
ATOM     10  C   UNL     1       2.765   6.937  -5.315  0.00  0.00    +0.142 A 
ATOM     11  N   UNL     1       1.971   7.314  -6.317  0.00  0.00    -0.214 NA
ENDROOT
BRANCH   1  17
ATOM     12  C   UNL     1      -2.124   5.522  -9.988  0.00  0.00    +0.009 C 
ATOM     13  C   UNL     1      -1.609   6.729  -9.199  0.00  0.00    +0.004 C 
ATOM     14  C   UNL     1      -0.900   7.696 -10.151  0.00  0.00    +0.009 C 
ATOM     15  C   UNL     1      -0.336   8.870  -9.345  0.00  0.00    +0.004 C 
ATOM     16  C   UNL     1       0.615   8.336  -8.272  0.00  0.00    +0.109 C 
ATOM     17  N   UNL     1      -0.112   7.415  -7.387  0.00  0.00    -0.314 N 
ATOM     18  C   UNL     1      -0.622   6.256  -8.130  0.00  0.00    +0.109 C 
ATOM     19  C   UNL     1      -1.484   9.630  -8.678  0.00  0.00    +0.009 C 
ENDBRANCH   1  17
BRANCH   2  20
ATOM     20  C   UNL     1      -1.257   5.966  -5.238  0.00  0.00    +0.037 C 
ATOM     21  C   UNL     1      -1.650   4.662  -5.325  0.00  0.00    +0.077 C 
ATOM     22  C   UNL     1      -0.863   3.488  -5.501  0.00  0.00    +0.259 C 
ATOM     23  O   UNL     1       0.349   3.556  -5.598  0.00  0.00    -0.269 OA
ATOM     24  N   UNL     1      -1.485   2.323  -5.554  0.00  0.00    -0.252 N 
ATOM     25  C   UNL     1      -2.831   2.249  -5.451  0.00  0.00    +0.121 C 
ATOM     26  S   UNL     1      -3.836   0.864  -5.500  0.00  0.00    -0.027 S 
ATOM     27  S   UNL     1      -3.293   3.962  -5.248  0.00  0.00    -0.061 S 
BRANCH  24  28
ATOM     28  C   UNL     1      -0.706   1.096  -5.735  0.00  0.00    +0.083 C 
ATOM     29  C   UNL     1      -1.149   0.395  -7.020  0.00  0.00    +0.023 C 
ATOM     30  C   UNL     1      -0.335  -0.887  -7.208  0.00  0.00    +0.002 C 
ATOM     31  C   UNL     1      -0.564  -1.817  -6.015  0.00  0.00    +0.000 C 
ATOM     32  C   UNL     1      -0.121  -1.115  -4.730  0.00  0.00    +0.002 C 
ATOM     33  C   UNL     1      -0.935   0.166  -4.541  0.00  0.00    +0.023 C 
ENDBRANCH  24  28
ENDBRANCH   2  20
TORSDOF 3
