REMARK  Name = ZINC13576943
REMARK  12 active torsions:
REMARK  status: ('A' for Active; 'I' for Inactive)
REMARK    1  A    between atoms: C_3  and  O_15
REMARK    2  A    between atoms: C_6  and  N_7
REMARK    3  A    between atoms: C_8  and  C_10
REMARK    4  A    between atoms: C_10  and  C_11
REMARK    5  A    between atoms: C_11  and  C_12
REMARK    6  A    between atoms: C_12  and  C_13
REMARK    7  A    between atoms: O_15  and  C_16
REMARK    8  A    between atoms: C_19  and  N_22
REMARK    9  A    between atoms: C_23  and  C_25
REMARK   10  A    between atoms: C_25  and  C_26
REMARK   11  A    between atoms: C_26  and  C_27
REMARK   12  A    between atoms: C_27  and  C_28
REMARK                            x       y       z     vdW  Elec       q    Type
REMARK                         _______ _______ _______ _____ _____    ______ ____
ROOT
ATOM      1  O   UNL     1      -5.171   4.127  -1.372  0.00  0.00    -0.456 OA
ENDROOT
BRANCH   1   4
ATOM      2  C   UNL     1      -2.402   1.768  -1.427  0.00  0.00    +0.027 A 
ATOM      3  C   UNL     1      -3.506   2.492  -1.832  0.00  0.00    +0.048 A 
ATOM      4  C   UNL     1      -4.088   3.410  -0.971  0.00  0.00    +0.129 A 
ATOM      5  C   UNL     1      -3.566   3.596   0.301  0.00  0.00    +0.048 A 
ATOM      6  C   UNL     1      -2.466   2.869   0.710  0.00  0.00    +0.027 A 
ATOM      7  C   UNL     1      -1.883   1.950  -0.152  0.00  0.00    +0.034 A 
BRANCH   7   8
ATOM      8  N   UNL     1      -0.766   1.212   0.262  0.00  0.00    -0.285 N 
ATOM      9  C   UNL     1      -0.658   0.816   1.546  0.00  0.00    +0.217 C 
ATOM     10  O   UNL     1      -1.488   1.164   2.359  0.00  0.00    -0.275 OA
ATOM     11  H   UNL     1      -0.069   0.989  -0.375  0.00  0.00    +0.155 HD
BRANCH   9  12
ATOM     12  C   UNL     1       0.492  -0.060   1.970  0.00  0.00    +0.096 C 
BRANCH  12  13
ATOM     13  C   UNL     1       0.379  -0.362   3.466  0.00  0.00    +0.020 C 
BRANCH  13  14
ATOM     14  C   UNL     1       1.548  -1.251   3.896  0.00  0.00    +0.125 C 
BRANCH  14  15
ATOM     15  C   UNL     1       1.436  -1.548   5.370  0.00  0.00    +0.356 C 
ATOM     16  O   UNL     1       0.516  -1.095   6.009  0.00  0.00    -0.246 OA
ATOM     17  O   UNL     1       2.358  -2.315   5.971  0.00  0.00    -0.246 OA
ENDBRANCH  14  15
ENDBRANCH  13  14
ENDBRANCH  12  13
ENDBRANCH   9  12
ENDBRANCH   7   8
ENDBRANCH   1   4
BRANCH   1  18
ATOM     18  C   UNL     1      -4.986   5.433  -1.702  0.00  0.00    +0.129 A 
ATOM     19  C   UNL     1      -3.744   6.024  -1.521  0.00  0.00    +0.048 A 
ATOM     20  C   UNL     1      -3.553   7.349  -1.859  0.00  0.00    +0.027 A 
ATOM     21  C   UNL     1      -4.608   8.093  -2.371  0.00  0.00    +0.034 A 
ATOM     22  C   UNL     1      -5.853   7.502  -2.547  0.00  0.00    +0.027 A 
ATOM     23  C   UNL     1      -6.040   6.176  -2.213  0.00  0.00    +0.048 A 
BRANCH  21  24
ATOM     24  N   UNL     1      -4.417   9.438  -2.711  0.00  0.00    -0.285 N 
ATOM     25  C   UNL     1      -5.415  10.327  -2.533  0.00  0.00    +0.217 C 
ATOM     26  O   UNL     1      -6.443   9.983  -1.988  0.00  0.00    -0.275 OA
ATOM     27  H   UNL     1      -3.567   9.731  -3.074  0.00  0.00    +0.155 HD
BRANCH  25  28
ATOM     28  C   UNL     1      -5.254  11.747  -3.010  0.00  0.00    +0.096 C 
BRANCH  28  29
ATOM     29  C   UNL     1      -6.521  12.540  -2.688  0.00  0.00    +0.020 C 
BRANCH  29  30
ATOM     30  C   UNL     1      -6.357  13.982  -3.172  0.00  0.00    +0.125 C 
BRANCH  30  31
ATOM     31  C   UNL     1      -7.606  14.764  -2.855  0.00  0.00    +0.356 C 
ATOM     32  O   UNL     1      -8.532  14.223  -2.298  0.00  0.00    -0.246 OA
ATOM     33  O   UNL     1      -7.690  16.061  -3.191  0.00  0.00    -0.246 OA
ENDBRANCH  30  31
ENDBRANCH  29  30
ENDBRANCH  28  29
ENDBRANCH  25  28
ENDBRANCH  21  24
ENDBRANCH   1  18
TORSDOF 12
