REMARK  Name = ZINC41585821
REMARK  5 active torsions:
REMARK  status: ('A' for Active; 'I' for Inactive)
REMARK    1  A    between atoms: C_1  and  C_2
REMARK    2  A    between atoms: C_4  and  O_33
REMARK    3  A    between atoms: C_5  and  C_20
REMARK    4  A    between atoms: C_11  and  C_12
REMARK    5  A    between atoms: C_20  and  N_21
REMARK                            x       y       z     vdW  Elec       q    Type
REMARK                         _______ _______ _______ _____ _____    ______ ____
ROOT
ATOM      1  C   UNL     1      -0.219   1.081  -0.791  0.00  0.00    +0.045 C 
ATOM      2  C   UNL     1      -0.097  -0.419  -0.712  0.00  0.00    -0.033 A 
ATOM      3  C   UNL     1      -0.110  -1.168  -1.855  0.00  0.00    +0.050 A 
ATOM      4  C   UNL     1       0.002  -2.554  -1.784  0.00  0.00    +0.125 A 
ATOM      5  C   UNL     1       0.130  -3.189  -0.560  0.00  0.00    +0.051 A 
ATOM      6  C   UNL     1       0.145  -2.443   0.612  0.00  0.00    +0.148 A 
ATOM      7  C   UNL     1       0.037  -1.045   0.528  0.00  0.00    +0.071 A 
ATOM      8  C   UNL     1       0.091  -0.540   1.911  0.00  0.00    +0.232 C 
ATOM      9  O   UNL     1       0.025   0.618   2.286  0.00  0.00    -0.283 OA
ATOM     10  C   UNL     1       0.241  -1.748   2.739  0.00  0.00    +0.176 C 
ATOM     11  C   UNL     1       0.335  -1.786   4.092  0.00  0.00    +0.058 C 
ATOM     12  O   UNL     1       0.256  -2.814   1.906  0.00  0.00    -0.451 OA
ENDROOT
BRANCH  11  13
ATOM     13  C   UNL     1       0.368  -3.078   4.790  0.00  0.00    -0.021 A 
ATOM     14  C   UNL     1       0.328  -3.123   6.188  0.00  0.00    +0.009 A 
ATOM     15  C   UNL     1       0.358  -4.339   6.836  0.00  0.00    +0.020 A 
ATOM     16  C   UNL     1       0.429  -5.515   6.106  0.00  0.00    +0.041 A 
ATOM     17  C   UNL     1       0.469  -5.479   4.722  0.00  0.00    +0.020 A 
ATOM     18  C   UNL     1       0.433  -4.271   4.060  0.00  0.00    +0.009 A 
ATOM     19 CL   UNL     1       0.468  -7.042   6.931  0.00  0.00    -0.084 Cl
ENDBRANCH  11  13
BRANCH   4  20
ATOM     20  O   UNL     1      -0.013  -3.289  -2.925  0.00  0.00    -0.506 OA
ATOM     21  H   UNL     1       0.862  -3.433  -3.312  0.00  0.00    +0.292 HD
ENDBRANCH   4  20
BRANCH   5  22
ATOM     22  C   UNL     1       0.250  -4.690  -0.498  0.00  0.00    +0.127 C 
BRANCH  22  23
ATOM     23  N   UNL     1       1.668  -5.070  -0.566  0.00  0.00    -0.295 NA
ATOM     24  C   UNL     1       2.395  -4.605   0.623  0.00  0.00    +0.103 C 
ATOM     25  C   UNL     1       3.894  -4.860   0.432  0.00  0.00    +0.122 C 
ATOM     26  N   UNL     1       4.088  -6.279   0.100  0.00  0.00    -0.314 N 
ATOM     27  C   UNL     1       3.291  -6.854  -0.994  0.00  0.00    +0.122 C 
ATOM     28  C   UNL     1       1.815  -6.521  -0.748  0.00  0.00    +0.103 C 
ATOM     29  C   UNL     1       5.002  -7.058   0.802  0.00  0.00    +0.099 A 
ATOM     30  C   UNL     1       5.262  -8.359   0.385  0.00  0.00    +0.042 A 
ATOM     31  C   UNL     1       6.173  -9.122   1.092  0.00  0.00    +0.005 A 
ATOM     32  C   UNL     1       6.795  -8.556   2.197  0.00  0.00    +0.018 A 
ATOM     33  C   UNL     1       6.489  -7.259   2.555  0.00  0.00    +0.084 A 
ATOM     34  N   UNL     1       5.620  -6.552   1.858  0.00  0.00    -0.350 N 
ATOM     35  H   UNL     1       5.426  -5.641   2.128  0.00  0.00    +0.166 HD
ENDBRANCH  22  23
ENDBRANCH   5  22
TORSDOF 4
