REMARK  Name = ZINC16267068
REMARK  7 active torsions:
REMARK  status: ('A' for Active; 'I' for Inactive)
REMARK    1  A    between atoms: C_1  and  C_2
REMARK    2  A    between atoms: C_4  and  O_26
REMARK    3  A    between atoms: C_5  and  C_9
REMARK    4  A    between atoms: C_9  and  C_10
REMARK    5  A    between atoms: C_9  and  C_17
REMARK    6  A    between atoms: C_18  and  O_25
REMARK    7  A    between atoms: C_20  and  C_24
REMARK                            x       y       z     vdW  Elec       q    Type
REMARK                         _______ _______ _______ _____ _____    ______ ____
ROOT
ATOM      1  C   UNL     1       3.748  -0.637  -0.038  0.00  0.00    +0.100 C 
ENDROOT
BRANCH   1   6
ATOM      2  C   UNL     1      -0.990   2.485   0.953  0.00  0.00    +0.086 C 
ATOM      3  C   UNL     1       0.240   1.653   0.695  0.00  0.00    +0.110 A 
ATOM      4  C   UNL     1       0.102   0.356   0.359  0.00  0.00    +0.087 A 
ATOM      5  C   UNL     1       1.250  -0.429   0.110  0.00  0.00    +0.131 A 
ATOM      6  C   UNL     1       2.496   0.162   0.219  0.00  0.00    +0.090 A 
ATOM      7  C   UNL     1       2.574   1.514   0.572  0.00  0.00    +0.345 A 
ATOM      8  O   UNL     1       3.662   2.055   0.674  0.00  0.00    -0.245 OA
ATOM      9  O   UNL     1       1.451   2.218   0.799  0.00  0.00    -0.427 OA
BRANCH   5  10
ATOM     10  O   UNL     1       1.133  -1.735  -0.228  0.00  0.00    -0.506 OA
ATOM     11  H   UNL     1       1.067  -1.890  -1.180  0.00  0.00    +0.292 HD
ENDBRANCH   5  10
ENDBRANCH   1   6
BRANCH   1  12
ATOM     12  C   UNL     1       4.673  -0.515   1.146  0.00  0.00    +0.090 A 
ATOM     13  C   UNL     1       4.170  -0.260   2.409  0.00  0.00    +0.131 A 
ATOM     14  C   UNL     1       5.072  -0.160   3.491  0.00  0.00    +0.087 A 
ATOM     15  C   UNL     1       6.393  -0.301   3.275  0.00  0.00    +0.110 A 
ATOM     16  O   UNL     1       6.874  -0.543   2.047  0.00  0.00    -0.427 OA
ATOM     17  C   UNL     1       6.057  -0.653   0.985  0.00  0.00    +0.345 A 
ATOM     18  O   UNL     1       6.522  -0.874  -0.121  0.00  0.00    -0.245 OA
ATOM     19  C   UNL     1       7.349  -0.187   4.434  0.00  0.00    +0.086 C 
BRANCH  13  20
ATOM     20  O   UNL     1       2.838  -0.114   2.604  0.00  0.00    -0.506 OA
ATOM     21  H   UNL     1       2.378  -0.940   2.808  0.00  0.00    +0.292 HD
ENDBRANCH  13  20
ENDBRANCH   1  12
BRANCH   1  22
ATOM     22  C   UNL     1       4.436  -0.108  -1.270  0.00  0.00    -0.034 A 
ATOM     23  C   UNL     1       5.226   1.024  -1.188  0.00  0.00    +0.004 A 
ATOM     24  C   UNL     1       5.862   1.506  -2.317  0.00  0.00    +0.001 A 
ATOM     25  C   UNL     1       5.701   0.862  -3.530  0.00  0.00    +0.015 A 
ATOM     26  C   UNL     1       4.907  -0.267  -3.613  0.00  0.00    +0.018 A 
ATOM     27  C   UNL     1       4.274  -0.752  -2.482  0.00  0.00    +0.019 A 
ATOM     28 BR   UNL     1       4.684  -1.147  -5.271  0.00  0.00    -0.050 Br
ENDBRANCH   1  22
TORSDOF 5
