REMARK  Name = ZINC40056555
REMARK  9 active torsions:
REMARK  status: ('A' for Active; 'I' for Inactive)
REMARK    1  A    between atoms: C_1  and  C_2
REMARK    2  A    between atoms: C_2  and  O_3
REMARK    3  A    between atoms: O_3  and  C_4
REMARK    4  A    between atoms: C_7  and  C_13
REMARK    5  A    between atoms: C_9  and  O_10
REMARK    6  A    between atoms: O_10  and  C_11
REMARK    7  A    between atoms: C_11  and  C_12
REMARK    8  A    between atoms: C_21  and  C_35
REMARK    9  A    between atoms: C_32  and  C_34
REMARK                            x       y       z     vdW  Elec       q    Type
REMARK                         _______ _______ _______ _____ _____    ______ ____
ROOT
ATOM      1  C   UNL     1       1.142  -6.064   1.761  0.00  0.00    +0.152 C 
ATOM      2  C   UNL     1      -0.139  -6.630   2.278  0.00  0.00    +0.072 A 
ATOM      3  C   UNL     1      -0.866  -6.392   3.528  0.00  0.00    +0.199 A 
ATOM      4  O   UNL     1      -0.577  -5.503   4.309  0.00  0.00    -0.287 OA
ATOM      5  C   UNL     1      -1.988  -7.338   3.753  0.00  0.00    +0.066 A 
ATOM      6  C   UNL     1      -2.648  -7.371   4.981  0.00  0.00    +0.035 A 
ATOM      7  C   UNL     1      -3.684  -8.259   5.174  0.00  0.00    +0.045 A 
ATOM      8  C   UNL     1      -4.067  -9.115   4.149  0.00  0.00    -0.029 A 
ATOM      9  C   UNL     1      -3.424  -9.089   2.933  0.00  0.00    +0.051 A 
ATOM     10  C   UNL     1      -2.374  -8.198   2.712  0.00  0.00    +0.140 A 
ATOM     11  O   UNL     1      -1.766  -8.188   1.503  0.00  0.00    -0.450 OA
ATOM     12  C   UNL     1      -0.614  -7.507   1.343  0.00  0.00    +0.199 A 
ATOM     13  C   UNL     1       0.333  -7.538   0.216  0.00  0.00    +0.289 C 
ATOM     14  O   UNL     1       0.206  -8.222  -0.781  0.00  0.00    -0.266 OA
ATOM     15  N   UNL     1       1.363  -6.698   0.451  0.00  0.00    -0.230 N 
ATOM     16  C   UNL     1       2.442  -6.469  -0.395  0.00  0.00    +0.191 A 
ATOM     17  N   UNL     1       3.490  -5.672  -0.244  0.00  0.00    -0.125 NA
ATOM     18  N   UNL     1       4.391  -5.584  -1.122  0.00  0.00    -0.145 NA
ATOM     19  C   UNL     1       4.348  -6.276  -2.244  0.00  0.00    +0.101 A 
ATOM     20  S   UNL     1       2.818  -7.173  -1.998  0.00  0.00    -0.035 S 
ATOM     21  C   UNL     1       5.314  -6.308  -3.400  0.00  0.00    +0.075 C 
ATOM     22  C   UNL     1      -5.200 -10.083   4.372  0.00  0.00    +0.045 C 
ATOM     23 CL   UNL     1      -4.512  -8.307   6.699  0.00  0.00    -0.083 Cl
ENDROOT
BRANCH   1  27
ATOM     24  C   UNL     1       0.802  -1.825   1.306  0.00  0.00    +0.162 A 
ATOM     25  C   UNL     1       0.261  -2.673   0.353  0.00  0.00    +0.050 A 
ATOM     26  C   UNL     1       0.372  -4.043   0.502  0.00  0.00    +0.009 A 
ATOM     27  C   UNL     1       1.024  -4.570   1.602  0.00  0.00    -0.018 A 
ATOM     28  C   UNL     1       1.566  -3.730   2.557  0.00  0.00    +0.055 A 
ATOM     29  C   UNL     1       1.462  -2.356   2.410  0.00  0.00    +0.162 A 
BRANCH  24  30
ATOM     30  O   UNL     1       0.693  -0.477   1.160  0.00  0.00    -0.489 OA
BRANCH  30  32
ATOM     31  C   UNL     1      -0.019   1.526   0.010  0.00  0.00    +0.048 C 
ATOM     32  C   UNL     1       0.002  -0.004   0.002  0.00  0.00    +0.226 C 
ENDBRANCH  30  32
ENDBRANCH  24  30
BRANCH  29  33
ATOM     33  O   UNL     1       2.000  -1.528   3.345  0.00  0.00    -0.489 OA
BRANCH  33  34
ATOM     34  C   UNL     1       2.664  -2.143   4.451  0.00  0.00    +0.226 C 
ATOM     35  C   UNL     1       3.200  -1.060   5.390  0.00  0.00    +0.048 C 
ENDBRANCH  33  34
ENDBRANCH  29  33
ENDBRANCH   1  27
TORSDOF 5
