REMARK  Name = ZINC63709776
REMARK  4 active torsions:
REMARK  status: ('A' for Active; 'I' for Inactive)
REMARK    1  A    between atoms: C_7  and  C_10
REMARK    2  A    between atoms: C_10  and  C_11
REMARK    3  A    between atoms: C_11  and  N_12
REMARK    4  A    between atoms: C_13  and  C_15
REMARK                            x       y       z     vdW  Elec       q    Type
REMARK                         _______ _______ _______ _____ _____    ______ ____
ROOT
ATOM      1  N   UNL     1      -0.458  -4.798  -1.460  0.00  0.00    -0.314 N 
ATOM      2  C   UNL     1      -0.811  -5.380  -2.623  0.00  0.00    +0.222 C 
ATOM      3  O   UNL     1      -0.371  -4.957  -3.671  0.00  0.00    -0.275 OA
ATOM      4  H   UNL     1      -0.810  -5.136  -0.622  0.00  0.00    +0.149 HD
ENDROOT
BRANCH   2   5
ATOM      5  C   UNL     1      -1.752  -6.557  -2.622  0.00  0.00    +0.117 C 
ATOM      6  C   UNL     1      -1.978  -7.043  -4.062  0.00  0.00    +0.143 C 
ATOM      7  N   UNL     1      -2.870  -8.209  -4.010  0.00  0.00    -0.292 N 
ATOM      8  C   UNL     1      -2.690  -9.143  -3.016  0.00  0.00    +0.137 A 
ATOM      9  N   UNL     1      -3.448 -10.210  -2.914  0.00  0.00    -0.229 NA
ATOM     10  C   UNL     1      -4.455 -10.456  -3.773  0.00  0.00    +0.079 A 
ATOM     11  C   UNL     1      -5.257 -11.595  -3.652  0.00  0.00    +0.030 A 
ATOM     12  C   UNL     1      -6.271 -11.811  -4.542  0.00  0.00    +0.022 A 
ATOM     13  C   UNL     1      -6.521 -10.914  -5.573  0.00  0.00    +0.042 A 
ATOM     14  C   UNL     1      -5.747  -9.781  -5.720  0.00  0.00    +0.035 A 
ATOM     15  C   UNL     1      -4.708  -9.543  -4.823  0.00  0.00    +0.066 A 
ATOM     16  C   UNL     1      -3.849  -8.354  -4.928  0.00  0.00    +0.262 A 
ATOM     17  O   UNL     1      -4.014  -7.531  -5.809  0.00  0.00    -0.267 OA
ATOM     18 CL   UNL     1      -7.818 -11.220  -6.686  0.00  0.00    -0.084 Cl
ATOM     19  C   UNL     1      -1.607  -8.932  -2.034  0.00  0.00    +0.043 C 
ATOM     20  C   UNL     1      -1.145  -7.696  -1.832  0.00  0.00    -0.009 C 
ENDBRANCH   2   5
BRANCH   1  21
ATOM     21  C   UNL     1       0.457  -3.653  -1.462  0.00  0.00    +0.108 C 
BRANCH  21  22
ATOM     22  C   UNL     1       0.691  -3.186  -0.024  0.00  0.00    +0.052 C 
BRANCH  22  29
ATOM     23  C   UNL     1      -0.016   1.348   0.009  0.00  0.00    +0.001 A 
ATOM     24  C   UNL     1       1.166   2.101   0.002  0.00  0.00    +0.002 A 
ATOM     25  C   UNL     1       2.391   1.535  -0.013  0.00  0.00    +0.026 A 
ATOM     26  C   UNL     1       2.529   0.120  -0.022  0.00  0.00    +0.043 A 
ATOM     27  N   UNL     1       3.587  -0.654  -0.037  0.00  0.00    -0.380 N 
ATOM     28  C   UNL     1       3.143  -2.053  -0.041  0.00  0.00    +0.144 C 
ATOM     29  C   UNL     1       1.631  -2.008  -0.025  0.00  0.00    -0.040 C 
ATOM     30  C   UNL     1       1.295  -0.698  -0.014  0.00  0.00    -0.001 A 
ATOM     31  C   UNL     1       0.002  -0.004   0.002  0.00  0.00    +0.010 A 
ATOM     32  H   UNL     1       4.509  -0.353  -0.045  0.00  0.00    +0.160 HD
ENDBRANCH  22  29
ENDBRANCH  21  22
ENDBRANCH   1  21
TORSDOF 4
