REMARK  Name = ZINC35714392
REMARK  10 active torsions:
REMARK  status: ('A' for Active; 'I' for Inactive)
REMARK    1  A    between atoms: C_1  and  C_2
REMARK    2  A    between atoms: C_2  and  C_3
REMARK    3  A    between atoms: C_2  and  N_4
REMARK    4  A    between atoms: N_4  and  C_5
REMARK    5  A    between atoms: N_4  and  C_14
REMARK    6  A    between atoms: C_5  and  C_6
REMARK    7  A    between atoms: C_14  and  C_15
REMARK    8  A    between atoms: C_17  and  C_20
REMARK    9  A    between atoms: N_22  and  C_23
REMARK   10  A    between atoms: C_23  and  C_24
REMARK                            x       y       z     vdW  Elec       q    Type
REMARK                         _______ _______ _______ _____ _____    ______ ____
ROOT
ATOM      1  C   UNL     1      -2.702   1.453  -1.312  0.00  0.00    +0.179 A 
ATOM      2  N   UNL     1      -1.978   2.284  -2.000  0.00  0.00    -0.210 NA
ATOM      3  C   UNL     1      -2.498   3.533  -1.854  0.00  0.00    +0.163 A 
ATOM      4  C   UNL     1      -3.582   3.422  -1.039  0.00  0.00    +0.230 A 
ATOM      5  O   UNL     1      -3.698   2.124  -0.715  0.00  0.00    -0.449 OA
ENDROOT
BRANCH   3   6
ATOM      6  C   UNL     1      -1.985   4.772  -2.465  0.00  0.00    +0.266 C 
ATOM      7  O   UNL     1      -2.545   5.831  -2.254  0.00  0.00    -0.268 OA
ATOM      8  N   UNL     1      -0.894   4.732  -3.256  0.00  0.00    -0.306 N 
ATOM      9  H   UNL     1      -0.448   3.888  -3.424  0.00  0.00    +0.149 HD
BRANCH   8  10
ATOM     10  C   UNL     1      -0.384   5.964  -3.863  0.00  0.00    +0.140 C 
BRANCH  10  11
ATOM     11  C   UNL     1       0.832   5.648  -4.694  0.00  0.00    -0.027 A 
ATOM     12  C   UNL     1       2.089   5.678  -4.118  0.00  0.00    +0.009 A 
ATOM     13  C   UNL     1       3.208   5.388  -4.877  0.00  0.00    +0.050 A 
ATOM     14  C   UNL     1       3.072   5.067  -6.218  0.00  0.00    +0.166 A 
ATOM     15  C   UNL     1       1.806   5.037  -6.798  0.00  0.00    +0.167 A 
ATOM     16  C   UNL     1       0.689   5.323  -6.030  0.00  0.00    +0.054 A 
ATOM     17  O   UNL     1       1.938   4.698  -8.114  0.00  0.00    -0.453 OA
ATOM     18  C   UNL     1       3.325   4.920  -8.431  0.00  0.00    +0.466 C 
ATOM     19  O   UNL     1       3.996   4.747  -7.170  0.00  0.00    -0.453 OA
ENDBRANCH  10  11
ENDBRANCH   8  10
ENDBRANCH   3   6
BRANCH   1  20
ATOM     20  C   UNL     1      -2.465  -0.032  -1.206  0.00  0.00    +0.020 C 
BRANCH  20  21
ATOM     21  N   UNL     1      -1.782  -0.330   0.059  0.00  0.00    +0.390 N 
ATOM     22  H   UNL     1      -2.299   0.078   0.824  0.00  0.00    -0.080 HD
BRANCH  21  24
ATOM     23  C   UNL     1       0.157   0.087  -1.378  0.00  0.00    -0.013 C 
ATOM     24  C   UNL     1      -0.426   0.235   0.029  0.00  0.00    -0.074 C 
ATOM     25  C   UNL     1      -0.482   1.717   0.405  0.00  0.00    -0.013 C 
ENDBRANCH  21  24
BRANCH  21  26
ATOM     26  C   UNL     1      -1.702  -1.785   0.242  0.00  0.00    -0.041 C 
BRANCH  26  27
ATOM     27  C   UNL     1      -1.103  -2.090   1.591  0.00  0.00    -0.046 A 
ATOM     28  C   UNL     1       0.210  -2.512   1.684  0.00  0.00    +0.004 A 
ATOM     29  C   UNL     1       0.760  -2.792   2.921  0.00  0.00    +0.020 A 
ATOM     30  C   UNL     1      -0.004  -2.649   4.066  0.00  0.00    +0.042 A 
ATOM     31  C   UNL     1      -1.317  -2.227   3.974  0.00  0.00    +0.040 A 
ATOM     32  C   UNL     1      -1.866  -1.942   2.736  0.00  0.00    +0.044 A 
ATOM     33 CL   UNL     1      -3.513  -1.405   2.619  0.00  0.00    -0.083 Cl
ATOM     34 CL   UNL     1       0.687  -3.002   5.620  0.00  0.00    -0.083 Cl
ENDBRANCH  26  27
ENDBRANCH  21  26
ENDBRANCH  20  21
ENDBRANCH   1  20
TORSDOF 8
