REMARK  Name = ZINC65742655
REMARK  3 active torsions:
REMARK  status: ('A' for Active; 'I' for Inactive)
REMARK    1  A    between atoms: C_6  and  N_7
REMARK    2  A    between atoms: C_18  and  O_29
REMARK    3  A    between atoms: C_26  and  O_28
REMARK                            x       y       z     vdW  Elec       q    Type
REMARK                         _______ _______ _______ _____ _____    ______ ____
ROOT
ATOM      1  C   UNL     1      -0.017   1.384  -0.011  0.00  0.00    +0.025 A 
ATOM      2  C   UNL     1       1.149   2.130  -0.020  0.00  0.00    +0.017 A 
ATOM      3  C   UNL     1       2.354   1.419  -0.014  0.00  0.00    +0.067 A 
ATOM      4  C   UNL     1       2.365   0.009  -0.000  0.00  0.00    +0.021 A 
ATOM      5  C   UNL     1       1.203  -0.723   0.009  0.00  0.00    +0.033 A 
ATOM      6  C   UNL     1       0.002  -0.004   0.002  0.00  0.00    +0.045 A 
ATOM      7  C   UNL     1       3.805  -0.399   0.002  0.00  0.00    +0.196 C 
ATOM      8  C   UNL     1       4.127  -1.180   1.248  0.00  0.00    +0.047 A 
ATOM      9  C   UNL     1       4.236  -0.512   2.456  0.00  0.00    +0.015 A 
ATOM     10  C   UNL     1       4.531  -1.207   3.612  0.00  0.00    +0.046 A 
ATOM     11  C   UNL     1       4.719  -2.581   3.566  0.00  0.00    +0.120 A 
ATOM     12  C   UNL     1       4.610  -3.253   2.360  0.00  0.00    +0.092 A 
ATOM     13  C   UNL     1       4.312  -2.552   1.197  0.00  0.00    +0.140 A 
ATOM     14  O   UNL     1       4.204  -3.229   0.029  0.00  0.00    -0.455 OA
ATOM     15  C   UNL     1       4.309  -2.575  -1.152  0.00  0.00    +0.140 A 
ATOM     16  C   UNL     1       4.125  -1.204  -1.229  0.00  0.00    +0.047 A 
ATOM     17  C   UNL     1       4.233  -0.558  -2.449  0.00  0.00    +0.015 A 
ATOM     18  C   UNL     1       4.525  -1.275  -3.592  0.00  0.00    +0.046 A 
ATOM     19  C   UNL     1       4.712  -2.648  -3.521  0.00  0.00    +0.120 A 
ATOM     20  C   UNL     1       4.604  -3.297  -2.302  0.00  0.00    +0.092 A 
ATOM     21  O   UNL     1       4.572   0.814  -0.010  0.00  0.00    -0.440 OA
ATOM     22  C   UNL     1       3.740   1.875  -0.020  0.00  0.00    +0.341 C 
ATOM     23  O   UNL     1       4.093   3.038  -0.032  0.00  0.00    -0.245 OA
ENDROOT
BRANCH   6  24
ATOM     24  N   UNL     1      -1.208  -0.701   0.010  0.00  0.00    -0.203 N 
ATOM     25  C   UNL     1      -1.335  -2.037  -0.086  0.00  0.00    +0.250 C 
ATOM     26  O   UNL     1      -0.422  -2.830  -0.193  0.00  0.00    -0.270 OA
ATOM     27  C   UNL     1      -2.774  -2.375  -0.037  0.00  0.00    +0.073 C 
ATOM     28  C   UNL     1      -3.441  -1.215   0.086  0.00  0.00    +0.073 C 
ATOM     29  C   UNL     1      -2.426  -0.140   0.121  0.00  0.00    +0.250 C 
ATOM     30  O   UNL     1      -2.653   1.048   0.229  0.00  0.00    -0.270 OA
ENDBRANCH   6  24
BRANCH  19  31
ATOM     31  O   UNL     1       5.000  -3.355  -4.646  0.00  0.00    -0.507 OA
ATOM     32  H   UNL     1       5.946  -3.435  -4.829  0.00  0.00    +0.292 HD
ENDBRANCH  19  31
BRANCH  11  33
ATOM     33  O   UNL     1       5.010  -3.266   4.703  0.00  0.00    -0.507 OA
ATOM     34  H   UNL     1       4.231  -3.588   5.178  0.00  0.00    +0.292 HD
ENDBRANCH  11  33
TORSDOF 3
