REMARK  Name = ZINC09359293
REMARK  4 active torsions:
REMARK  status: ('A' for Active; 'I' for Inactive)
REMARK    1  A    between atoms: C_1  and  C_2
REMARK    2  A    between atoms: C_2  and  C_4
REMARK    3  A    between atoms: C_6  and  C_31
REMARK    4  A    between atoms: C_34  and  N_37
REMARK                            x       y       z     vdW  Elec       q    Type
REMARK                         _______ _______ _______ _____ _____    ______ ____
ROOT
ATOM      1  C   UNL     1      -0.570   1.685   1.327  0.00  0.00    +0.149 C 
ATOM      2  C   UNL     1      -0.013   1.086   0.008  0.00  0.00    +0.070 C 
ATOM      3  C   UNL     1       1.452   1.568  -0.052  0.00  0.00    +0.127 C 
ATOM      4  C   UNL     1       1.771   1.905   1.401  0.00  0.00    +0.119 C 
ATOM      5  N   UNL     1       0.498   2.521   1.865  0.00  0.00    -0.311 N 
ATOM      6  C   UNL     1       0.558   2.773   3.213  0.00  0.00    +0.038 A 
ATOM      7  C   UNL     1      -0.477   2.514   4.090  0.00  0.00    +0.026 A 
ATOM      8  C   UNL     1      -0.329   2.793   5.436  0.00  0.00    +0.040 A 
ATOM      9  C   UNL     1       0.854   3.333   5.917  0.00  0.00    +0.124 A 
ATOM     10  C   UNL     1       1.901   3.601   5.054  0.00  0.00    +0.048 A 
ATOM     11  C   UNL     1       1.764   3.327   3.700  0.00  0.00    -0.001 A 
ATOM     12  C   UNL     1       2.852   3.611   2.734  0.00  0.00    +0.007 C 
ATOM     13  C   UNL     1       2.880   2.897   1.587  0.00  0.00    -0.003 C 
ATOM     14  F   UNL     1       0.985   3.599   7.235  0.00  0.00    -0.205 F 
ATOM     15  C   UNL     1       1.594   2.762  -0.955  0.00  0.00    +0.180 C 
ATOM     16  O   UNL     1       1.021   3.825  -0.846  0.00  0.00    -0.291 OA
ATOM     17  C   UNL     1       2.560   2.391  -1.992  0.00  0.00    +0.029 A 
ATOM     18  C   UNL     1       3.038   3.148  -3.067  0.00  0.00    +0.012 A 
ATOM     19  C   UNL     1       3.961   2.538  -3.907  0.00  0.00    +0.001 A 
ATOM     20  C   UNL     1       4.395   1.244  -3.703  0.00  0.00    +0.001 A 
ATOM     21  C   UNL     1       3.936   0.470  -2.644  0.00  0.00    +0.012 A 
ATOM     22  C   UNL     1       3.006   1.060  -1.783  0.00  0.00    +0.029 A 
ATOM     23  C   UNL     1       2.355   0.497  -0.597  0.00  0.00    +0.180 C 
ATOM     24  O   UNL     1       2.513  -0.616  -0.144  0.00  0.00    -0.291 OA
ENDROOT
BRANCH   2  25
ATOM     25  C   UNL     1      -0.786   1.606  -1.176  0.00  0.00    -0.041 A 
ATOM     26  C   UNL     1      -1.217   0.733  -2.158  0.00  0.00    +0.006 A 
ATOM     27  C   UNL     1      -1.930   1.210  -3.242  0.00  0.00    +0.033 A 
ATOM     28  C   UNL     1      -2.205   2.561  -3.349  0.00  0.00    +0.126 A 
ATOM     29  C   UNL     1      -1.770   3.434  -2.369  0.00  0.00    +0.033 A 
ATOM     30  C   UNL     1      -1.060   2.957  -1.283  0.00  0.00    +0.006 A 
BRANCH  28  31
ATOM     31  N   UNL     1      -2.965   3.072  -4.512  0.00  0.00    +0.056 N 
ATOM     32  O   UNL     1      -3.206   4.262  -4.606  0.00  0.00    -0.126 OA
ATOM     33  O   UNL     1      -3.348   2.302  -5.375  0.00  0.00    -0.126 OA
ENDBRANCH  28  31
ENDBRANCH   2  25
BRANCH   1  35
ATOM     34  C   UNL     1      -3.128   1.855   0.837  0.00  0.00    +0.088 C 
ATOM     35  C   UNL     1      -1.792   2.520   1.043  0.00  0.00    +0.151 C 
ATOM     36  O   UNL     1      -1.700   3.723   0.982  0.00  0.00    -0.296 OA
ENDBRANCH   1  35
TORSDOF 3
