REMARK  Name = ZINC14003436
REMARK  7 active torsions:
REMARK  status: ('A' for Active; 'I' for Inactive)
REMARK    1  A    between atoms: C_4  and  N_16
REMARK    2  A    between atoms: C_5  and  C_7
REMARK    3  A    between atoms: N_9  and  C_10
REMARK    4  A    between atoms: C_10  and  C_11
REMARK    5  A    between atoms: N_16  and  C_17
REMARK    6  A    between atoms: C_17  and  N_19
REMARK    7  A    between atoms: C_20  and  C_22
REMARK                            x       y       z     vdW  Elec       q    Type
REMARK                         _______ _______ _______ _____ _____    ______ ____
ROOT
ATOM      1  C   UNL     1      -1.262   3.524   0.024  0.00  0.00    +0.001 A 
ATOM      2  C   UNL     1      -0.090   4.231  -0.192  0.00  0.00    +0.002 A 
ATOM      3  C   UNL     1       1.127   3.580  -0.206  0.00  0.00    +0.024 A 
ATOM      4  C   UNL     1       1.184   2.208  -0.002  0.00  0.00    +0.045 A 
ATOM      5  C   UNL     1      -0.000   1.488   0.218  0.00  0.00    +0.058 A 
ATOM      6  C   UNL     1      -1.225   2.161   0.224  0.00  0.00    +0.015 A 
ENDROOT
BRANCH   5   7
ATOM      7  C   UNL     1       0.046   0.030   0.435  0.00  0.00    +0.246 C 
ATOM      8  O   UNL     1       1.102  -0.566   0.335  0.00  0.00    -0.270 OA
ATOM      9  N   UNL     1      -1.080  -0.641   0.745  0.00  0.00    -0.304 N 
ATOM     10  H   UNL     1      -1.922  -0.166   0.825  0.00  0.00    +0.149 HD
BRANCH   9  11
ATOM     11  C   UNL     1      -1.034  -2.090   0.961  0.00  0.00    +0.179 C 
BRANCH  11  12
ATOM     12  C   UNL     1      -2.415  -2.593   1.291  0.00  0.00    +0.122 A 
ATOM     13  C   UNL     1      -3.330  -3.020   0.402  0.00  0.00    +0.046 A 
ATOM     14  C   UNL     1      -4.475  -3.397   1.141  0.00  0.00    +0.041 A 
ATOM     15  C   UNL     1      -4.191  -3.178   2.438  0.00  0.00    +0.195 A 
ATOM     16  O   UNL     1      -2.940  -2.696   2.523  0.00  0.00    -0.466 OA
ENDBRANCH  11  12
ENDBRANCH   9  11
ENDBRANCH   5   7
BRANCH   4  17
ATOM     17  N   UNL     1       2.410   1.549  -0.015  0.00  0.00    -0.296 N 
ATOM     18  H   UNL     1       2.507   0.714  -0.500  0.00  0.00    +0.154 HD
BRANCH  17  19
ATOM     19  C   UNL     1       3.463   2.070   0.645  0.00  0.00    +0.141 C 
ATOM     20  S   UNL     1       3.261   3.472   1.607  0.00  0.00    -0.018 S 
BRANCH  19  21
ATOM     21  N   UNL     1       4.675   1.488   0.548  0.00  0.00    -0.264 N 
ATOM     22  C   UNL     1       5.728   2.010   1.208  0.00  0.00    +0.251 C 
ATOM     23  O   UNL     1       5.584   3.005   1.891  0.00  0.00    -0.270 OA
ATOM     24  H   UNL     1       4.789   0.694   0.003  0.00  0.00    +0.157 HD
BRANCH  22  25
ATOM     25  C   UNL     1       7.056   1.372   1.102  0.00  0.00    +0.051 A 
ATOM     26  C   UNL     1       7.223   0.225   0.323  0.00  0.00    +0.014 A 
ATOM     27  C   UNL     1       8.466  -0.362   0.224  0.00  0.00    +0.001 A 
ATOM     28  C   UNL     1       9.546   0.175   0.903  0.00  0.00    +0.001 A 
ATOM     29  C   UNL     1       9.388   1.308   1.681  0.00  0.00    +0.016 A 
ATOM     30  C   UNL     1       8.149   1.910   1.784  0.00  0.00    +0.030 A 
ATOM     31 BR   UNL     1       7.934   3.458   2.849  0.00  0.00    -0.050 Br
ENDBRANCH  22  25
ENDBRANCH  19  21
ENDBRANCH  17  19
ENDBRANCH   4  17
TORSDOF 7
