REMARK  Name = ZINC38903847
REMARK  12 active torsions:
REMARK  status: ('A' for Active; 'I' for Inactive)
REMARK    1  A    between atoms: C_1  and  C_2
REMARK    2  A    between atoms: C_2  and  C_4
REMARK    3  A    between atoms: C_2  and  N_15
REMARK    4  A    between atoms: C_7  and  N_10
REMARK    5  A    between atoms: C_16  and  C_18
REMARK    6  A    between atoms: N_23  and  C_25
REMARK    7  A    between atoms: C_25  and  C_26
REMARK    8  A    between atoms: C_28  and  C_31
REMARK    9  A    between atoms: C_34  and  C_37
REMARK   10  A    between atoms: C_37  and  C_38
REMARK   11  A    between atoms: C_37  and  C_39
REMARK   12  A    between atoms: C_37  and  C_40
REMARK                            x       y       z     vdW  Elec       q    Type
REMARK                         _______ _______ _______ _____ _____    ______ ____
ROOT
ATOM      1  C   UNL     1       0.780  -1.133   3.576  0.00  0.00    +0.058 C 
ATOM      2  C   UNL     1       1.346  -2.528   3.299  0.00  0.00    +0.009 C 
ATOM      3  C   UNL     1       2.016  -3.058   4.570  0.00  0.00    -0.018 C 
ATOM      4  C   UNL     1       0.999  -3.062   5.713  0.00  0.00    -0.078 C 
ATOM      5  N   UNL     1       0.516  -1.696   5.947  0.00  0.00    +0.386 N 
ATOM      6  C   UNL     1      -0.191  -1.206   4.757  0.00  0.00    -0.065 C 
ATOM      7  H   UNL     1       1.300  -1.091   6.142  0.00  0.00    -0.081 HD
ENDROOT
BRANCH   1   9
ATOM      8  N   UNL     1       0.711  -0.489   1.189  0.00  0.00    -0.309 N 
ATOM      9  C   UNL     1       0.051  -0.633   2.355  0.00  0.00    +0.215 C 
ATOM     10  O   UNL     1      -1.129  -0.361   2.423  0.00  0.00    -0.276 OA
ATOM     11  H   UNL     1       1.654  -0.707   1.135  0.00  0.00    +0.149 HD
BRANCH   8  13
ATOM     12  C   UNL     1      -0.019   1.526   0.010  0.00  0.00    +0.033 C 
ATOM     13  C   UNL     1       0.002  -0.004   0.002  0.00  0.00    +0.100 C 
BRANCH  13  14
ATOM     14  C   UNL     1       0.707  -0.490  -1.238  0.00  0.00    -0.027 A 
ATOM     15  C   UNL     1       2.089  -0.510  -1.282  0.00  0.00    +0.007 A 
ATOM     16  C   UNL     1       2.739  -0.955  -2.417  0.00  0.00    +0.023 A 
ATOM     17  C   UNL     1       2.003  -1.382  -3.514  0.00  0.00    +0.030 A 
ATOM     18  C   UNL     1       0.615  -1.361  -3.466  0.00  0.00    +0.023 A 
ATOM     19  C   UNL     1      -0.029  -0.920  -2.326  0.00  0.00    +0.007 A 
BRANCH  17  20
ATOM     20  N   UNL     1       2.656  -1.832  -4.664  0.00  0.00    -0.330 N 
ATOM     21  C   UNL     1       4.113  -1.913  -4.845  0.00  0.00    +0.105 C 
ATOM     22  C   UNL     1       4.369  -2.439  -6.273  0.00  0.00    +0.020 C 
ATOM     23  C   UNL     1       3.051  -2.091  -7.013  0.00  0.00    +0.020 C 
ATOM     24  C   UNL     1       2.000  -2.312  -5.894  0.00  0.00    +0.105 C 
ENDBRANCH  17  20
ENDBRANCH  13  14
ENDBRANCH   8  13
ENDBRANCH   1   9
BRANCH   5  25
ATOM     25  C   UNL     1      -0.401  -1.692   7.095  0.00  0.00    +0.022 C 
BRANCH  25  26
ATOM     26  C   UNL     1       0.356  -2.066   8.343  0.00  0.00    +0.211 A 
ATOM     27  N   UNL     1       0.954  -1.236   9.148  0.00  0.00    -0.193 NA
ATOM     28  C   UNL     1       1.530  -1.909  10.160  0.00  0.00    +0.202 A 
ATOM     29  N   UNL     1       1.295  -3.188   9.999  0.00  0.00    -0.056 NA
ATOM     30  O   UNL     1       0.522  -3.309   8.814  0.00  0.00    -0.340 OA
BRANCH  28  31
ATOM     31  C   UNL     1       2.302  -1.304  11.274  0.00  0.00    +0.022 A 
ATOM     32  C   UNL     1       2.477   0.076  11.335  0.00  0.00    +0.012 A 
ATOM     33  C   UNL     1       3.196   0.633  12.373  0.00  0.00    +0.005 A 
ATOM     34  C   UNL     1       3.743  -0.177  13.352  0.00  0.00    -0.042 A 
ATOM     35  C   UNL     1       3.572  -1.548  13.296  0.00  0.00    +0.005 A 
ATOM     36  C   UNL     1       2.850  -2.115  12.266  0.00  0.00    +0.012 A 
BRANCH  34  37
ATOM     37  C   UNL     1       4.528   0.437  14.482  0.00  0.00    -0.013 C 
ATOM     38  C   UNL     1       3.632   1.404  15.259  0.00  0.00    +0.015 C 
ATOM     39  C   UNL     1       5.020  -0.667  15.420  0.00  0.00    +0.015 C 
ATOM     40  C   UNL     1       5.728   1.198  13.916  0.00  0.00    +0.015 C 
ENDBRANCH  34  37
ENDBRANCH  28  31
ENDBRANCH  25  26
ENDBRANCH   5  25
TORSDOF 8
