REMARK  Name = ZINC08253785
REMARK  11 active torsions:
REMARK  status: ('A' for Active; 'I' for Inactive)
REMARK    1  A    between atoms: C_1  and  C_2
REMARK    2  A    between atoms: C_2  and  O_3
REMARK    3  A    between atoms: O_3  and  C_4
REMARK    4  A    between atoms: C_6  and  C_16
REMARK    5  A    between atoms: C_9  and  O_10
REMARK    6  A    between atoms: O_10  and  C_11
REMARK    7  A    between atoms: C_11  and  C_12
REMARK    8  A    between atoms: C_16  and  N_61
REMARK    9  A    between atoms: C_17  and  C_19
REMARK   10  A    between atoms: C_17  and  C_20
REMARK   11  A    between atoms: C_17  and  N_61
REMARK                            x       y       z     vdW  Elec       q    Type
REMARK                         _______ _______ _______ _____ _____    ______ ____
ROOT
ATOM      1  C   UNL     1       0.806   1.987   2.993  0.00  0.00    +0.164 A 
ATOM      2  C   UNL     1       1.347   1.611   4.213  0.00  0.00    +0.051 A 
ATOM      3  C   UNL     1       0.938   0.438   4.818  0.00  0.00    -0.059 A 
ATOM      4  C   UNL     1      -0.011  -0.363   4.210  0.00  0.00    +0.025 A 
ATOM      5  C   UNL     1      -0.559   0.009   2.996  0.00  0.00    +0.086 A 
ATOM      6  C   UNL     1      -0.148   1.182   2.381  0.00  0.00    +0.181 A 
ATOM      7 CL   UNL     1      -1.756  -0.995   2.240  0.00  0.00    -0.080 Cl
ENDROOT
BRANCH   1   8
ATOM      8  O   UNL     1       1.209   3.141   2.396  0.00  0.00    -0.489 OA
BRANCH   8  10
ATOM      9  C   UNL     1       2.516   5.169   2.264  0.00  0.00    +0.048 C 
ATOM     10  C   UNL     1       2.192   3.918   3.083  0.00  0.00    +0.226 C 
ENDBRANCH   8  10
ENDBRANCH   1   8
BRANCH   6  11
ATOM     11  O   UNL     1      -0.682   1.547   1.184  0.00  0.00    -0.478 OA
BRANCH  11  12
ATOM     12  C   UNL     1      -0.013   1.086   0.008  0.00  0.00    +0.324 C 
BRANCH  12  13
ATOM     13  C   UNL     1      -0.742   1.585  -1.213  0.00  0.00    +0.248 C 
ATOM     14  O   UNL     1      -1.736   2.268  -1.088  0.00  0.00    -0.272 OA
ATOM     15  N   UNL     1      -0.288   1.272  -2.443  0.00  0.00    -0.327 N 
ATOM     16  H   UNL     1       0.507   0.726  -2.543  0.00  0.00    +0.145 HD
ATOM     17  H   UNL     1      -0.758   1.594  -3.229  0.00  0.00    +0.145 HD
ENDBRANCH  12  13
ENDBRANCH  11  12
ENDBRANCH   6  11
BRANCH   3  18
ATOM     18  C   UNL     1       1.527   0.031   6.144  0.00  0.00    -0.046 C 
BRANCH  18  19
ATOM     19  N   UNL     1       0.706   0.595   7.232  0.00  0.00    +0.384 N 
ATOM     20  H   UNL     1      -0.253   0.237   7.152  0.00  0.00    -0.085 HD
ATOM     21  H   UNL     1       0.697   1.619   7.154  0.00  0.00    -0.085 HD
BRANCH  19  22
ATOM     22  C   UNL     1       1.261   0.212   8.544  0.00  0.00    -0.068 C 
ATOM     23  C   UNL     1       0.728  -1.167   8.941  0.00  0.00    -0.013 C 
BRANCH  22  24
ATOM     24  C   UNL     1       0.835   1.244   9.590  0.00  0.00    -0.041 C 
ATOM     25  C   UNL     1      -0.693   1.290   9.668  0.00  0.00    +0.009 C 
ATOM     26  C   UNL     1      -1.119   2.322  10.714  0.00  0.00    -0.010 C 
ATOM     27  C   UNL     1      -0.550   1.930  12.079  0.00  0.00    +0.007 C 
ATOM     28  C   UNL     1       0.977   1.883  12.001  0.00  0.00    -0.010 C 
ATOM     29  C   UNL     1       1.403   0.851  10.955  0.00  0.00    +0.009 C 
ATOM     30  C   UNL     1       1.510   3.262  11.604  0.00  0.00    +0.007 C 
ATOM     31  C   UNL     1       0.941   3.654  10.239  0.00  0.00    -0.010 C 
ATOM     32  C   UNL     1      -0.586   3.701  10.317  0.00  0.00    +0.007 C 
ATOM     33  C   UNL     1       1.367   2.622   9.193  0.00  0.00    +0.009 C 
ENDBRANCH  22  24
ENDBRANCH  19  22
ENDBRANCH  18  19
ENDBRANCH   3  18
TORSDOF 9
