REMARK  Name = ZINC09730849
REMARK  9 active torsions:
REMARK  status: ('A' for Active; 'I' for Inactive)
REMARK    1  A    between atoms: C_1  and  C_2
REMARK    2  A    between atoms: C_2  and  C_4
REMARK    3  A    between atoms: C_2  and  S_21
REMARK    4  A    between atoms: N_6  and  C_7
REMARK    5  A    between atoms: C_10  and  S_13
REMARK    6  A    between atoms: S_13  and  N_16
REMARK    7  A    between atoms: S_21  and  C_22
REMARK    8  A    between atoms: C_24  and  C_28
REMARK    9  A    between atoms: N_26  and  N_27
REMARK                            x       y       z     vdW  Elec       q    Type
REMARK                         _______ _______ _______ _____ _____    ______ ____
ROOT
ATOM      1  C   UNL     1      -2.806   4.216   5.426  0.00  0.00    +0.230 C 
ATOM      2  O   UNL     1      -2.000   4.979   4.938  0.00  0.00    -0.274 OA
ATOM      3  N   UNL     1      -3.077   3.043   4.819  0.00  0.00    -0.285 N 
ATOM      4  H   UNL     1      -3.776   2.468   5.167  0.00  0.00    +0.155 HD
ENDROOT
BRANCH   3   5
ATOM      5  C   UNL     1      -2.351   2.657   3.688  0.00  0.00    +0.034 A 
ATOM      6  C   UNL     1      -1.014   3.011   3.565  0.00  0.00    +0.025 A 
ATOM      7  C   UNL     1      -0.299   2.627   2.447  0.00  0.00    +0.030 A 
ATOM      8  C   UNL     1      -0.914   1.891   1.451  0.00  0.00    +0.106 A 
ATOM      9  C   UNL     1      -2.247   1.541   1.568  0.00  0.00    +0.030 A 
ATOM     10  C   UNL     1      -2.965   1.917   2.686  0.00  0.00    +0.025 A 
BRANCH   8  11
ATOM     11  S   UNL     1       0.001   1.403   0.026  0.00  0.00    +0.061 S 
ATOM     12  O   UNL     1       1.076   2.324  -0.101  0.00  0.00    -0.153 OA
ATOM     13  O   UNL     1      -0.946   1.190  -1.011  0.00  0.00    -0.153 OA
BRANCH  11  14
ATOM     14  N   UNL     1       0.678  -0.071   0.360  0.00  0.00    -0.177 NA
ATOM     15  C   UNL     1       2.001  -0.290   0.963  0.00  0.00    +0.109 C 
ATOM     16  C   UNL     1       2.214  -1.815   1.060  0.00  0.00    +0.018 C 
ATOM     17  C   UNL     1       1.245  -2.368  -0.019  0.00  0.00    +0.018 C 
ATOM     18  C   UNL     1       0.057  -1.381   0.095  0.00  0.00    +0.109 C 
ENDBRANCH  11  14
ENDBRANCH   8  11
ENDBRANCH   3   5
BRANCH   1  20
ATOM     19  C   UNL     1      -4.905   5.108   6.399  0.00  0.00    +0.029 C 
ATOM     20  C   UNL     1      -3.504   4.578   6.712  0.00  0.00    +0.137 C 
BRANCH  20  21
ATOM     21  S   UNL     1      -2.555   5.855   7.574  0.00  0.00    -0.074 S 
BRANCH  21  22
ATOM     22  C   UNL     1      -3.486   5.974   9.065  0.00  0.00    +0.187 A 
ATOM     23  N   UNL     1      -4.561   5.279   9.353  0.00  0.00    -0.221 NA
ATOM     24  C   UNL     1      -5.004   5.635  10.584  0.00  0.00    +0.092 A 
ATOM     25  C   UNL     1      -4.173   6.592  11.066  0.00  0.00    +0.138 A 
ATOM     26  N   UNL     1      -3.213   6.807  10.107  0.00  0.00    -0.251 N 
BRANCH  24  27
ATOM     27  C   UNL     1      -6.192   5.080  11.278  0.00  0.00    +0.002 A 
ATOM     28  C   UNL     1      -6.538   5.538  12.548  0.00  0.00    +0.010 A 
ATOM     29  C   UNL     1      -7.647   5.022  13.187  0.00  0.00    +0.001 A 
ATOM     30  C   UNL     1      -8.409   4.044  12.573  0.00  0.00    +0.000 A 
ATOM     31  C   UNL     1      -8.068   3.582  11.315  0.00  0.00    +0.001 A 
ATOM     32  C   UNL     1      -6.964   4.094  10.665  0.00  0.00    +0.010 A 
ENDBRANCH  24  27
BRANCH  26  33
ATOM     33  N   UNL     1      -2.176   7.693  10.185  0.00  0.00    -0.296 N 
ATOM     34  H   UNL     1      -2.442   8.593   9.815  0.00  0.00    +0.163 HD
ATOM     35  H   UNL     1      -1.842   7.776  11.133  0.00  0.00    +0.163 HD
ENDBRANCH  26  33
ENDBRANCH  21  22
ENDBRANCH  20  21
ENDBRANCH   1  20
TORSDOF 8
