REMARK  Name = ZINC17376146
REMARK  17 active torsions:
REMARK  status: ('A' for Active; 'I' for Inactive)
REMARK    1  A    between atoms: C_1  and  C_2
REMARK    2  A    between atoms: C_2  and  C_8
REMARK    3  A    between atoms: N_3  and  N_4
REMARK    4  A    between atoms: N_4  and  C_5
REMARK    5  A    between atoms: C_5  and  N_7
REMARK    6  A    between atoms: C_8  and  C_9
REMARK    7  A    between atoms: C_9  and  C_10
REMARK    8  A    between atoms: C_10  and  C_11
REMARK    9  A    between atoms: C_11  and  C_12
REMARK   10  A    between atoms: C_12  and  C_13
REMARK   11  A    between atoms: C_13  and  C_14
REMARK   12  A    between atoms: C_14  and  C_15
REMARK   13  A    between atoms: C_15  and  C_16
REMARK   14  A    between atoms: C_16  and  C_22
REMARK   15  A    between atoms: N_17  and  N_18
REMARK   16  A    between atoms: N_18  and  C_19
REMARK   17  A    between atoms: C_19  and  N_21
REMARK                            x       y       z     vdW  Elec       q    Type
REMARK                         _______ _______ _______ _____ _____    ______ ____
ROOT
ATOM      1  C   UNL     1      -4.135  -3.071   2.186  0.00  0.00    +0.000 C 
ENDROOT
BRANCH   1   2
ATOM      2  C   UNL     1      -3.410  -2.537   0.949  0.00  0.00    +0.000 C 
BRANCH   2   3
ATOM      3  C   UNL     1      -3.431  -1.008   0.966  0.00  0.00    +0.006 C 
BRANCH   3   4
ATOM      4  C   UNL     1      -2.706  -0.474  -0.272  0.00  0.00    +0.052 C 
BRANCH   4   6
ATOM      5  C   UNL     1      -3.786   1.780  -1.025  0.00  0.00    +0.062 C 
ATOM      6  C   UNL     1      -2.728   1.033  -0.255  0.00  0.00    +0.034 C 
ATOM      7  N   UNL     1      -1.847   1.678   0.413  0.00  0.00    -0.190 NA
BRANCH   7   8
ATOM      8  N   UNL     1      -0.911   0.984   1.191  0.00  0.00    -0.219 N 
ATOM      9  H   UNL     1      -0.936   0.015   1.231  0.00  0.00    +0.176 HD
BRANCH   8  10
ATOM     10  C   UNL     1       0.028   1.663   1.881  0.00  0.00    +0.147 C 
ATOM     11  S   UNL     1       1.176   0.815   2.826  0.00  0.00    -0.017 S 
BRANCH  10  12
ATOM     12  N   UNL     1       0.063   3.009   1.826  0.00  0.00    -0.339 N 
ATOM     13  H   UNL     1      -0.588   3.490   1.290  0.00  0.00    +0.144 HD
ATOM     14  H   UNL     1       0.738   3.498   2.322  0.00  0.00    +0.144 HD
ENDBRANCH  10  12
ENDBRANCH   8  10
ENDBRANCH   7   8
ENDBRANCH   4   6
ENDBRANCH   3   4
ENDBRANCH   2   3
ENDBRANCH   1   2
BRANCH   1  15
ATOM     15  C   UNL     1      -4.113  -4.601   2.170  0.00  0.00    +0.000 C 
BRANCH  15  16
ATOM     16  C   UNL     1      -4.838  -5.135   3.407  0.00  0.00    +0.000 C 
BRANCH  16  17
ATOM     17  C   UNL     1      -4.816  -6.664   3.390  0.00  0.00    +0.006 C 
BRANCH  17  18
ATOM     18  C   UNL     1      -5.541  -7.198   4.627  0.00  0.00    +0.052 C 
BRANCH  18  19
ATOM     19  C   UNL     1      -5.520  -8.705   4.611  0.00  0.00    +0.034 C 
ATOM     20  N   UNL     1      -6.424  -9.351   3.975  0.00  0.00    -0.190 NA
ATOM     21  C   UNL     1      -4.435  -9.451   5.343  0.00  0.00    +0.062 C 
BRANCH  20  22
ATOM     22  N   UNL     1      -7.366  -8.659   3.202  0.00  0.00    -0.219 N 
ATOM     23  H   UNL     1      -7.290  -7.699   3.089  0.00  0.00    +0.176 HD
BRANCH  22  24
ATOM     24  C   UNL     1      -8.378  -9.329   2.615  0.00  0.00    +0.147 C 
ATOM     25  S   UNL     1      -9.529  -8.484   1.671  0.00  0.00    -0.017 S 
BRANCH  24  26
ATOM     26  N   UNL     1      -8.484 -10.663   2.772  0.00  0.00    -0.339 N 
ATOM     27  H   UNL     1      -7.831 -11.142   3.307  0.00  0.00    +0.144 HD
ATOM     28  H   UNL     1      -9.212 -11.145   2.349  0.00  0.00    +0.144 HD
ENDBRANCH  24  26
ENDBRANCH  22  24
ENDBRANCH  20  22
ENDBRANCH  18  19
ENDBRANCH  17  18
ENDBRANCH  16  17
ENDBRANCH  15  16
ENDBRANCH   1  15
TORSDOF 15
