REMARK  Name = ZINC13448030
REMARK  11 active torsions:
REMARK  status: ('A' for Active; 'I' for Inactive)
REMARK    1  A    between atoms: C_1  and  C_2
REMARK    2  A    between atoms: C_3  and  C_26
REMARK    3  A    between atoms: C_7  and  S_9
REMARK    4  A    between atoms: S_9  and  C_10
REMARK    5  A    between atoms: C_10  and  C_11
REMARK    6  A    between atoms: N_13  and  C_14
REMARK    7  A    between atoms: C_15  and  C_22
REMARK    8  A    between atoms: C_22  and  O_24
REMARK    9  A    between atoms: O_24  and  C_25
REMARK   10  A    between atoms: C_26  and  C_27
REMARK   11  A    between atoms: C_27  and  C_28
REMARK                            x       y       z     vdW  Elec       q    Type
REMARK                         _______ _______ _______ _____ _____    ______ ____
ROOT
ATOM      1  C   UNL     1      -0.369   3.440  -7.393  0.00  0.00    +0.228 C 
ATOM      2  O   UNL     1       0.827   3.281  -7.519  0.00  0.00    -0.275 OA
ATOM      3  N   UNL     1      -1.103   3.885  -8.432  0.00  0.00    -0.279 N 
ATOM      4  H   UNL     1      -2.059   4.012  -8.331  0.00  0.00    +0.155 HD
ENDROOT
BRANCH   3   5
ATOM      5  C   UNL     1      -0.491   4.159  -9.645  0.00  0.00    +0.086 A 
ATOM      6  C   UNL     1      -1.079   4.624 -10.809  0.00  0.00    +0.091 A 
ATOM      7  C   UNL     1      -0.204   4.835 -11.962  0.00  0.00    -0.021 A 
ATOM      8  C   UNL     1       1.087   4.540 -11.732  0.00  0.00    -0.004 A 
ATOM      9  S   UNL     1       1.133   4.012 -10.038  0.00  0.00    -0.077 S 
ATOM     10  C   UNL     1       1.940   4.771 -12.950  0.00  0.00    +0.043 C 
ATOM     11  C   UNL     1       0.936   4.848 -14.121  0.00  0.00    +0.010 C 
ATOM     12  C   UNL     1      -0.348   5.315 -13.405  0.00  0.00    +0.037 C 
BRANCH   6  13
ATOM     13  C   UNL     1      -2.516   4.892 -10.882  0.00  0.00    +0.342 C 
ATOM     14  O   UNL     1      -2.944   5.996 -10.602  0.00  0.00    -0.245 OA
BRANCH  13  15
ATOM     15  O   UNL     1      -3.366   3.916 -11.260  0.00  0.00    -0.464 OA
ATOM     16  C   UNL     1      -4.755   4.248 -11.309  0.00  0.00    +0.280 C 
ENDBRANCH  13  15
ENDBRANCH   6  13
ENDBRANCH   3   5
BRANCH   1  17
ATOM     17  C   UNL     1      -1.034   3.142  -6.074  0.00  0.00    +0.173 C 
BRANCH  17  18
ATOM     18  S   UNL     1       0.211   2.566  -4.886  0.00  0.00    -0.077 S 
BRANCH  18  25
ATOM     19  C   UNL     1      -0.013   1.086   0.008  0.00  0.00    +0.066 C 
ATOM     20  C   UNL     1      -0.742   1.585  -1.213  0.00  0.00    +0.049 A 
ATOM     21  C   UNL     1      -2.106   1.799  -1.173  0.00  0.00    +0.040 A 
ATOM     22  C   UNL     1      -2.742   2.262  -2.325  0.00  0.00    +0.277 A 
ATOM     23  O   UNL     1      -4.078   2.486  -2.329  0.00  0.00    -0.265 OA
ATOM     24  N   UNL     1      -2.019   2.481  -3.416  0.00  0.00    -0.183 NA
ATOM     25  C   UNL     1      -0.712   2.263  -3.415  0.00  0.00    +0.192 A 
ATOM     26  N   UNL     1      -0.080   1.829  -2.334  0.00  0.00    -0.227 NA
BRANCH  21  27
ATOM     27  C   UNL     1      -2.890   1.538   0.087  0.00  0.00    +0.054 C 
BRANCH  27  28
ATOM     28  C   UNL     1      -2.930   2.810   0.936  0.00  0.00    +0.130 C 
BRANCH  28  29
ATOM     29  C   UNL     1      -3.714   2.549   2.197  0.00  0.00    +0.356 C 
ATOM     30  O   UNL     1      -4.197   1.447   2.397  0.00  0.00    -0.246 OA
ATOM     31  O   UNL     1      -3.866   3.439   3.016  0.00  0.00    -0.246 OA
ENDBRANCH  28  29
ENDBRANCH  27  28
ENDBRANCH  21  27
ENDBRANCH  18  25
ENDBRANCH  17  18
ENDBRANCH   1  17
TORSDOF 9
