REMARK  Name = ZINC36138219
REMARK  1 active torsions:
REMARK  status: ('A' for Active; 'I' for Inactive)
REMARK    1  A    between atoms: C_6  and  N_7
REMARK                            x       y       z     vdW  Elec       q    Type
REMARK                         _______ _______ _______ _____ _____    ______ ____
ROOT
ATOM      1  N   UNL     1      -1.201  -0.727   0.065  0.00  0.00    -0.269 N 
ATOM      2  C   UNL     1      -1.184  -2.065  -0.099  0.00  0.00    +0.307 C 
ATOM      3  O   UNL     1      -0.123  -2.656  -0.163  0.00  0.00    -0.252 OA
ATOM      4  N   UNL     1      -2.342  -2.748  -0.193  0.00  0.00    -0.274 N 
ATOM      5  C   UNL     1      -2.369  -4.215  -0.198  0.00  0.00    +0.137 C 
ATOM      6  C   UNL     1      -3.094  -4.737  -1.421  0.00  0.00    +0.124 C 
ATOM      7  C   UNL     1      -2.124  -5.257  -2.448  0.00  0.00    -0.021 A 
ATOM      8  C   UNL     1      -1.014  -5.962  -2.008  0.00  0.00    +0.025 A 
ATOM      9  C   UNL     1      -0.101  -6.468  -2.913  0.00  0.00    +0.041 A 
ATOM     10  C   UNL     1      -0.298  -6.270  -4.268  0.00  0.00    +0.020 A 
ATOM     11  C   UNL     1      -1.400  -5.566  -4.706  0.00  0.00    +0.005 A 
ATOM     12  C   UNL     1      -2.317  -5.052  -3.798  0.00  0.00    -0.041 A 
ATOM     13  C   UNL     1      -3.485  -4.274  -4.344  0.00  0.00    +0.054 C 
ATOM     14  C   UNL     1      -4.616  -4.188  -3.320  0.00  0.00    +0.113 C 
ATOM     15  N   UNL     1      -4.008  -3.790  -2.034  0.00  0.00    -0.291 N 
ATOM     16  C   UNL     1      -4.324  -2.591  -1.526  0.00  0.00    +0.234 C 
ATOM     17  O   UNL     1      -5.195  -1.933  -2.054  0.00  0.00    -0.274 OA
ATOM     18  C   UNL     1      -3.639  -2.054  -0.289  0.00  0.00    +0.205 C 
ATOM     19 CL   UNL     1       1.286  -7.347  -2.352  0.00  0.00    -0.084 Cl
ATOM     20  H   UNL     1      -2.038  -0.272   0.248  0.00  0.00    +0.156 HD
ENDROOT
BRANCH   1  26
ATOM     21  C   UNL     1      -0.050   1.358  -0.338  0.00  0.00    +0.025 A 
ATOM     22  C   UNL     1       1.124   2.078  -0.429  0.00  0.00    +0.022 A 
ATOM     23  C   UNL     1       2.340   1.453  -0.212  0.00  0.00    +0.041 A 
ATOM     24  C   UNL     1       2.381   0.104   0.096  0.00  0.00    +0.022 A 
ATOM     25  C   UNL     1       1.209  -0.621   0.188  0.00  0.00    +0.025 A 
ATOM     26  C   UNL     1      -0.012   0.005  -0.028  0.00  0.00    +0.035 A 
ATOM     27 CL   UNL     1       3.815   2.361  -0.328  0.00  0.00    -0.084 Cl
ENDBRANCH   1  26
TORSDOF 1
