REMARK  Name = ZINC13265287
REMARK  7 active torsions:
REMARK  status: ('A' for Active; 'I' for Inactive)
REMARK    1  A    between atoms: C_6  and  C_7
REMARK    2  A    between atoms: C_7  and  C_9
REMARK    3  A    between atoms: C_7  and  N_12
REMARK    4  A    between atoms: C_9  and  C_10
REMARK    5  A    between atoms: N_12  and  S_13
REMARK    6  A    between atoms: S_13  and  C_16
REMARK    7  A    between atoms: C_18  and  C_23
REMARK                            x       y       z     vdW  Elec       q    Type
REMARK                         _______ _______ _______ _____ _____    ______ ____
ROOT
ATOM      1  N   UNL     1       3.201   3.091  -1.349  0.00  0.00    -0.182 NA
ATOM      2  H   UNL     1       2.725   3.524  -2.075  0.00  0.00    +0.149 HD
ENDROOT
BRANCH   1   3
ATOM      3  S   UNL     1       4.168   1.782  -1.659  0.00  0.00    +0.060 S 
ATOM      4  O   UNL     1       3.805   0.779  -0.720  0.00  0.00    -0.153 OA
ATOM      5  O   UNL     1       4.121   1.565  -3.062  0.00  0.00    -0.153 OA
BRANCH   3   6
ATOM      6  C   UNL     1       5.822   2.255  -1.277  0.00  0.00    +0.120 A 
ATOM      7  C   UNL     1       6.481   1.662  -0.220  0.00  0.00    +0.044 A 
ATOM      8  C   UNL     1       7.791   2.038   0.080  0.00  0.00    +0.065 A 
ATOM      9  C   UNL     1       8.427   3.012  -0.692  0.00  0.00    +0.016 A 
ATOM     10  C   UNL     1       7.758   3.597  -1.746  0.00  0.00    +0.018 A 
ATOM     11  C   UNL     1       6.460   3.216  -2.043  0.00  0.00    +0.044 A 
ATOM     12 BR   UNL     1       5.552   4.017  -3.496  0.00  0.00    -0.048 Br
BRANCH   8  13
ATOM     13  C   UNL     1       8.503   1.407   1.210  0.00  0.00    +0.387 C 
ATOM     14  O   UNL     1       7.947   0.559   1.881  0.00  0.00    -0.241 OA
ATOM     15  O   UNL     1       9.767   1.771   1.498  0.00  0.00    -0.241 OA
ENDBRANCH   8  13
ENDBRANCH   3   6
ENDBRANCH   1   3
BRANCH   1  16
ATOM     16  C   UNL     1       3.065   3.594   0.020  0.00  0.00    +0.117 C 
BRANCH  16  22
ATOM     17  C   UNL     1       3.761   5.825  -0.876  0.00  0.00    +0.008 A 
ATOM     18  C   UNL     1       4.434   7.026  -0.754  0.00  0.00    +0.038 A 
ATOM     19  C   UNL     1       5.163   7.297   0.392  0.00  0.00    +0.123 A 
ATOM     20  C   UNL     1       5.210   6.368   1.417  0.00  0.00    +0.038 A 
ATOM     21  C   UNL     1       4.531   5.170   1.296  0.00  0.00    +0.008 A 
ATOM     22  C   UNL     1       3.805   4.900   0.151  0.00  0.00    -0.028 A 
ATOM     23  F   UNL     1       5.827   8.468   0.509  0.00  0.00    -0.205 F 
ENDBRANCH  16  22
BRANCH  16  24
ATOM     24  C   UNL     1       1.585   3.812   0.338  0.00  0.00    +0.150 C 
BRANCH  24  25
ATOM     25  C   UNL     1       0.853   2.497   0.250  0.00  0.00    +0.358 C 
ATOM     26  O   UNL     1       1.429   1.511  -0.143  0.00  0.00    -0.246 OA
ATOM     27  O   UNL     1      -0.439   2.423   0.608  0.00  0.00    -0.246 OA
ENDBRANCH  24  25
ENDBRANCH  16  24
ENDBRANCH   1  16
TORSDOF 7
