REMARK  Name = ZINC29045417
REMARK  10 active torsions:
REMARK  status: ('A' for Active; 'I' for Inactive)
REMARK    1  A    between atoms: C_1  and  C_2
REMARK    2  A    between atoms: C_4  and  C_31
REMARK    3  A    between atoms: C_8  and  C_30
REMARK    4  A    between atoms: C_9  and  C_11
REMARK    5  A    between atoms: N_13  and  C_14
REMARK    6  A    between atoms: C_14  and  C_15
REMARK    7  A    between atoms: C_15  and  C_17
REMARK    8  A    between atoms: C_15  and  N_25
REMARK    9  A    between atoms: C_22  and  O_23
REMARK   10  A    between atoms: O_23  and  C_24
REMARK                            x       y       z     vdW  Elec       q    Type
REMARK                         _______ _______ _______ _____ _____    ______ ____
ROOT
ATOM      1  C   UNL     1      -2.039  -3.846   0.750  0.00  0.00    +0.251 C 
ATOM      2  O   UNL     1      -3.231  -3.608   0.704  0.00  0.00    -0.270 OA
ATOM      3  N   UNL     1      -1.610  -5.069   1.118  0.00  0.00    -0.312 N 
ATOM      4  H   UNL     1      -0.532  -5.284   1.160  0.00  0.00    +0.149 HD
ENDROOT
BRANCH   1  13
ATOM      5  C   UNL     1      -1.579   1.396  -0.889  0.00  0.00    +0.044 C 
ATOM      6  C   UNL     1      -0.262   0.691  -0.694  0.00  0.00    -0.039 A 
ATOM      7  C   UNL     1       0.913   1.346  -0.923  0.00  0.00    +0.027 A 
ATOM      8  C   UNL     1       2.128   0.699  -0.751  0.00  0.00    +0.040 A 
ATOM      9  N   UNL     1       2.165  -0.561  -0.362  0.00  0.00    -0.245 NA
ATOM     10  C   UNL     1       1.062  -1.235  -0.129  0.00  0.00    +0.110 A 
ATOM     11  C   UNL     1      -0.227  -0.665  -0.276  0.00  0.00    +0.014 A 
ATOM     12  C   UNL     1      -1.304  -1.519   0.013  0.00  0.00    -0.022 A 
ATOM     13  C   UNL     1      -1.067  -2.799   0.403  0.00  0.00    +0.079 A 
ATOM     14  S   UNL     1       0.715  -2.897   0.393  0.00  0.00    -0.064 S 
ATOM     15  C   UNL     1      -2.720  -1.018  -0.111  0.00  0.00    +0.046 C 
ATOM     16  C   UNL     1       3.414   1.441  -1.010  0.00  0.00    +0.065 C 
ENDBRANCH   1  13
BRANCH   3  17
ATOM     17  C   UNL     1      -2.579  -6.112   1.464  0.00  0.00    +0.094 C 
BRANCH  17  18
ATOM     18  C   UNL     1      -1.836  -7.355   1.957  0.00  0.00    -0.017 C 
BRANCH  18  19
ATOM     19  C   UNL     1      -2.825  -8.464   2.211  0.00  0.00    -0.018 A 
ATOM     20  C   UNL     1      -3.088  -9.394   1.225  0.00  0.00    +0.005 A 
ATOM     21  C   UNL     1      -3.992 -10.414   1.458  0.00  0.00    +0.000 A 
ATOM     22  C   UNL     1      -4.642 -10.500   2.676  0.00  0.00    +0.004 A 
ATOM     23  C   UNL     1      -4.385  -9.569   3.664  0.00  0.00    +0.046 A 
ATOM     24  C   UNL     1      -3.475  -8.547   3.433  0.00  0.00    +0.122 A 
BRANCH  24  25
ATOM     25  O   UNL     1      -3.220  -7.630   4.404  0.00  0.00    -0.495 OA
ATOM     26  C   UNL     1      -3.927  -7.779   5.637  0.00  0.00    +0.277 C 
ENDBRANCH  24  25
ENDBRANCH  18  19
BRANCH  18  27
ATOM     27  N   UNL     1      -0.870  -7.785   0.938  0.00  0.00    +0.385 N 
ATOM     28  C   UNL     1      -0.424  -9.181   1.181  0.00  0.00    -0.078 C 
ATOM     29  C   UNL     1       0.124  -9.624  -0.199  0.00  0.00    -0.020 C 
ATOM     30  C   UNL     1      -0.854  -8.954  -1.191  0.00  0.00    -0.020 C 
ATOM     31  C   UNL     1      -1.484  -7.787  -0.408  0.00  0.00    -0.078 C 
ATOM     32  H   UNL     1      -0.034  -7.073   0.998  0.00  0.00    -0.081 HD
ENDBRANCH  18  27
ENDBRANCH  17  18
ENDBRANCH   3  17
TORSDOF 6
