REMARK  Name = ZINC39449457
REMARK  2 active torsions:
REMARK  status: ('A' for Active; 'I' for Inactive)
REMARK    1  A    between atoms: C_4  and  O_26
REMARK    2  A    between atoms: C_5  and  C_7
REMARK                            x       y       z     vdW  Elec       q    Type
REMARK                         _______ _______ _______ _____ _____    ______ ____
ROOT
ATOM      1  C   UNL     1       1.227  -2.187  -0.022  0.00  0.00    +0.112 C 
ATOM      2  C   UNL     1       1.330  -2.694  -1.465  0.00  0.00    +0.108 C 
ATOM      3  C   UNL     1       0.050  -2.384  -2.195  0.00  0.00    +0.184 C 
ATOM      4  O   UNL     1       0.073  -2.187  -3.393  0.00  0.00    -0.290 OA
ATOM      5  C   UNL     1      -1.180  -2.321  -1.500  0.00  0.00    +0.122 A 
ATOM      6  C   UNL     1      -1.202  -2.488  -0.128  0.00  0.00    +0.082 A 
ATOM      7  C   UNL     1      -2.480  -2.430   0.594  0.00  0.00    +0.099 A 
ATOM      8  C   UNL     1      -3.656  -2.192  -0.151  0.00  0.00    +0.069 A 
ATOM      9  C   UNL     1      -4.882  -2.132   0.512  0.00  0.00    +0.037 A 
ATOM     10  C   UNL     1      -4.888  -2.311   1.886  0.00  0.00    +0.060 A 
ATOM     11  C   UNL     1      -3.691  -2.541   2.552  0.00  0.00    +0.131 A 
ATOM     12  N   UNL     1      -2.544  -2.594   1.909  0.00  0.00    -0.251 NA
ATOM     13 CL   UNL     1      -6.381  -2.246   2.769  0.00  0.00    -0.082 Cl
ATOM     14  C   UNL     1      -3.552  -2.016  -1.606  0.00  0.00    +0.271 A 
ATOM     15  O   UNL     1      -4.553  -1.808  -2.267  0.00  0.00    -0.266 OA
ATOM     16  N   UNL     1      -2.351  -2.084  -2.208  0.00  0.00    -0.237 N 
ATOM     17 BR   UNL     1      -2.256  -1.855  -4.042  0.00  0.00    +0.058 Br
ATOM     18  N   UNL     1      -0.022  -2.703   0.560  0.00  0.00    -0.333 N 
ATOM     19  H   UNL     1      -0.017  -3.181   1.404  0.00  0.00    +0.147 HD
ENDROOT
BRANCH   1  24
ATOM     20  C   UNL     1      -0.006   1.377   0.156  0.00  0.00    +0.001 A 
ATOM     21  C   UNL     1       1.170   2.088   0.002  0.00  0.00    +0.004 A 
ATOM     22  C   UNL     1       2.367   1.418  -0.160  0.00  0.00    +0.046 A 
ATOM     23  C   UNL     1       2.388   0.031  -0.168  0.00  0.00    +0.122 A 
ATOM     24  C   UNL     1       1.207  -0.680  -0.013  0.00  0.00    +0.014 A 
ATOM     25  C   UNL     1       0.012  -0.005   0.148  0.00  0.00    +0.009 A 
BRANCH  23  26
ATOM     26  O   UNL     1       3.565  -0.631  -0.327  0.00  0.00    -0.506 OA
ATOM     27  H   UNL     1       4.022  -0.825   0.503  0.00  0.00    +0.292 HD
ENDBRANCH  23  26
ENDBRANCH   1  24
TORSDOF 2
