REMARK  Name = ZINC10699554
REMARK  9 active torsions:
REMARK  status: ('A' for Active; 'I' for Inactive)
REMARK    1  A    between atoms: C_1  and  C_2
REMARK    2  A    between atoms: C_2  and  N_54
REMARK    3  A    between atoms: C_8  and  N_13
REMARK    4  A    between atoms: C_9  and  C_10
REMARK    5  A    between atoms: C_14  and  C_16
REMARK    6  A    between atoms: C_16  and  C_17
REMARK    7  A    between atoms: C_18  and  C_25
REMARK    8  A    between atoms: C_20  and  C_24
REMARK    9  A    between atoms: C_22  and  C_23
REMARK                            x       y       z     vdW  Elec       q    Type
REMARK                         _______ _______ _______ _____ _____    ______ ____
ROOT
ATOM      1  C   UNL     1       4.701  -4.034  -0.506  0.00  0.00    -0.074 C 
ATOM      2  C   UNL     1       3.240  -3.969  -0.053  0.00  0.00    +0.018 C 
ATOM      3  C   UNL     1       2.811  -2.506  -0.039  0.00  0.00    -0.027 A 
ATOM      4  C   UNL     1       3.743  -1.526  -0.042  0.00  0.00    -0.021 A 
ATOM      5  S   UNL     1       2.815  -0.021  -0.024  0.00  0.00    -0.079 S 
ATOM      6  C   UNL     1       1.212  -0.681  -0.013  0.00  0.00    +0.084 A 
ATOM      7  C   UNL     1       1.434  -2.052  -0.017  0.00  0.00    +0.068 A 
ATOM      8  C   UNL     1       5.228  -1.712  -0.054  0.00  0.00    -0.035 C 
ATOM      9  N   UNL     1       5.512  -3.119   0.323  0.00  0.00    +0.383 N 
ATOM     10  H   UNL     1       5.267  -3.256   1.310  0.00  0.00    -0.081 HD
ENDROOT
BRANCH   7  11
ATOM     11  C   UNL     1       0.318  -3.003  -0.004  0.00  0.00    +0.244 C 
ATOM     12  O   UNL     1      -0.158  -3.398  -1.052  0.00  0.00    -0.270 OA
ATOM     13  N   UNL     1      -0.180  -3.441   1.169  0.00  0.00    -0.325 N 
ATOM     14  H   UNL     1       0.199  -3.127   2.005  0.00  0.00    +0.145 HD
ATOM     15  H   UNL     1      -0.918  -4.071   1.178  0.00  0.00    +0.145 HD
ENDBRANCH   7  11
BRANCH   6  16
ATOM     16  N   UNL     1       0.002  -0.004   0.002  0.00  0.00    -0.279 N 
ATOM     17  C   UNL     1      -0.016   1.344   0.009  0.00  0.00    +0.222 C 
ATOM     18  O   UNL     1       1.026   1.964   0.003  0.00  0.00    -0.275 OA
ATOM     19  H   UNL     1      -0.831  -0.500   0.007  0.00  0.00    +0.155 HD
BRANCH  17  20
ATOM     20  C   UNL     1      -1.331   2.079   0.020  0.00  0.00    +0.131 C 
BRANCH  20  21
ATOM     21  C   UNL     1      -1.076   3.564   0.026  0.00  0.00    -0.033 A 
ATOM     22  C   UNL     1      -0.959   4.240   1.227  0.00  0.00    -0.046 A 
ATOM     23  C   UNL     1      -0.721   5.602   1.233  0.00  0.00    +0.007 A 
ATOM     24  C   UNL     1      -0.609   6.289   0.039  0.00  0.00    -0.050 A 
ATOM     25  C   UNL     1      -0.731   5.614  -1.161  0.00  0.00    +0.007 A 
ATOM     26  C   UNL     1      -0.965   4.252  -1.167  0.00  0.00    -0.046 A 
ATOM     27  C   UNL     1      -1.098   3.517  -2.476  0.00  0.00    +0.044 C 
ATOM     28  C   UNL     1      -0.353   7.774   0.046  0.00  0.00    +0.044 C 
ATOM     29  C   UNL     1      -1.087   3.491   2.529  0.00  0.00    +0.044 C 
ENDBRANCH  20  21
ENDBRANCH  17  20
ENDBRANCH   6  16
BRANCH   9  31
ATOM     30  C   UNL     1       7.330  -3.319  -1.340  0.00  0.00    -0.017 C 
ATOM     31  C   UNL     1       6.950  -3.411   0.140  0.00  0.00    -0.082 C 
ENDBRANCH   9  31
TORSDOF 5
