REMARK  Name = ZINC43548577
REMARK  13 active torsions:
REMARK  status: ('A' for Active; 'I' for Inactive)
REMARK    1  A    between atoms: C_1  and  C_2
REMARK    2  A    between atoms: C_2  and  C_3
REMARK    3  A    between atoms: C_3  and  C_4
REMARK    4  A    between atoms: C_4  and  N_5
REMARK    5  A    between atoms: C_12  and  C_35
REMARK    6  A    between atoms: C_15  and  C_25
REMARK    7  A    between atoms: C_17  and  O_24
REMARK    8  A    between atoms: C_21  and  C_23
REMARK    9  A    between atoms: C_25  and  C_27
REMARK   10  A    between atoms: C_25  and  C_28
REMARK   11  A    between atoms: N_30  and  C_31
REMARK   12  A    between atoms: N_30  and  C_32
REMARK   13  A    between atoms: C_32  and  C_33
REMARK                            x       y       z     vdW  Elec       q    Type
REMARK                         _______ _______ _______ _____ _____    ______ ____
ROOT
ATOM      1  N   UNL     1       1.082  -3.943  -1.180  0.00  0.00    -0.325 N 
ATOM      2  C   UNL     1       1.272  -5.255  -1.584  0.00  0.00    +0.136 A 
ATOM      3  N   UNL     1       1.611  -5.704  -2.772  0.00  0.00    -0.340 N 
ATOM      4  C   UNL     1       1.759  -7.005  -3.018  0.00  0.00    +0.031 A 
ATOM      5  C   UNL     1       1.535  -7.814  -1.953  0.00  0.00    +0.013 A 
ATOM      6  S   UNL     1       1.132  -6.664  -0.669  0.00  0.00    -0.059 S 
ATOM      7  C   UNL     1       1.622  -9.301  -1.910  0.00  0.00    +0.051 C 
ATOM      8  C   UNL     1       1.669  -9.833  -3.345  0.00  0.00    -0.022 C 
ATOM      9  C   UNL     1       0.289  -9.745  -3.995  0.00  0.00    +0.008 C 
ATOM     10  C   UNL     1       0.361 -10.353  -5.399  0.00  0.00    +0.007 C 
ATOM     11  C   UNL     1       1.396  -9.603  -6.237  0.00  0.00    +0.029 C 
ATOM     12  C   UNL     1       2.768  -9.674  -5.561  0.00  0.00    +0.123 C 
ATOM     13  C   UNL     1       2.667  -9.017  -4.174  0.00  0.00    +0.033 C 
ATOM     14  C   UNL     1       2.144  -7.588  -4.368  0.00  0.00    +0.039 C 
ATOM     15  C   UNL     1       3.237  -6.727  -5.004  0.00  0.00    +0.014 C 
ATOM     16  C   UNL     1       2.108 -11.299  -3.326  0.00  0.00    +0.012 C 
ATOM     17  H   UNL     1       1.196  -3.219  -1.815  0.00  0.00    +0.148 HD
ATOM     18  H   UNL     1       1.758  -5.069  -3.491  0.00  0.00    +0.167 HD
ENDROOT
BRANCH  12  19
ATOM     19  O   UNL     1       3.163 -11.040  -5.421  0.00  0.00    -0.391 OA
ATOM     20  H   UNL     1       3.235 -11.517  -6.259  0.00  0.00    +0.210 HD
ENDBRANCH  12  19
BRANCH  11  21
ATOM     21  C   UNL     1       1.484 -10.240  -7.625  0.00  0.00    +0.078 C 
ATOM     22  C   UNL     1       2.519  -9.491  -8.466  0.00  0.00    +0.017 C 
BRANCH  21  23
ATOM     23  C   UNL     1       0.138 -10.162  -8.300  0.00  0.00    +0.219 C 
ATOM     24  O   UNL     1      -0.706  -9.396  -7.883  0.00  0.00    -0.275 OA
ATOM     25  N   UNL     1      -0.128 -10.942  -9.366  0.00  0.00    -0.301 N 
ATOM     26  C   UNL     1       0.921 -11.796  -9.928  0.00  0.00    +0.132 C 
BRANCH  25  27
ATOM     27  C   UNL     1      -1.466 -10.935  -9.963  0.00  0.00    +0.134 C 
BRANCH  27  28
ATOM     28  C   UNL     1      -1.532  -9.880 -11.036  0.00  0.00    -0.016 C 
ATOM     29  C   UNL     1      -1.903 -10.203 -12.250  0.00  0.00    +0.005 C 
ENDBRANCH  27  28
ENDBRANCH  25  27
ENDBRANCH  21  23
ENDBRANCH  11  21
BRANCH   1  30
ATOM     30  C   UNL     1       0.708  -3.650   0.206  0.00  0.00    +0.103 C 
BRANCH  30  31
ATOM     31  C   UNL     1       0.562  -2.138   0.386  0.00  0.00    +0.018 C 
BRANCH  31  33
ATOM     32  C   UNL     1       0.026  -0.319   2.013  0.00  0.00    +0.004 C 
ATOM     33  C   UNL     1       0.172  -1.831   1.833  0.00  0.00    -0.002 C 
ENDBRANCH  31  33
ENDBRANCH  30  31
ENDBRANCH   1  30
TORSDOF 8
