REMARK  Name = ZINC13201244
REMARK  8 active torsions:
REMARK  status: ('A' for Active; 'I' for Inactive)
REMARK    1  A    between atoms: C_1  and  C_2
REMARK    2  A    between atoms: C_2  and  N_3
REMARK    3  A    between atoms: C_9  and  C_28
REMARK    4  A    between atoms: C_13  and  S_14
REMARK    5  A    between atoms: S_14  and  C_15
REMARK    6  A    between atoms: C_15  and  C_16
REMARK    7  A    between atoms: N_18  and  C_19
REMARK    8  A    between atoms: C_22  and  C_25
REMARK                            x       y       z     vdW  Elec       q    Type
REMARK                         _______ _______ _______ _____ _____    ______ ____
ROOT
ATOM      1  S   UNL     1      -1.139   1.352  -1.432  0.00  0.00    -0.078 S 
ENDROOT
BRANCH   1  12
ATOM      2  N   UNL     1      -0.549   0.806  -4.004  0.00  0.00    -0.288 N 
ATOM      3  C   UNL     1       0.206   0.330  -5.021  0.00  0.00    +0.262 A 
ATOM      4  O   UNL     1      -0.166   0.416  -6.177  0.00  0.00    -0.267 OA
ATOM      5  C   UNL     1       1.491  -0.301  -4.678  0.00  0.00    +0.065 A 
ATOM      6  C   UNL     1       2.333  -0.826  -5.658  0.00  0.00    +0.016 A 
ATOM      7  C   UNL     1       3.517  -1.403  -5.298  0.00  0.00    +0.016 A 
ATOM      8  C   UNL     1       3.896  -1.475  -3.951  0.00  0.00    +0.065 A 
ATOM      9  C   UNL     1       3.072  -0.959  -2.959  0.00  0.00    +0.043 A 
ATOM     10  C   UNL     1       1.857  -0.365  -3.315  0.00  0.00    +0.080 A 
ATOM     11  N   UNL     1       1.023   0.150  -2.382  0.00  0.00    -0.223 NA
ATOM     12  C   UNL     1      -0.116   0.707  -2.713  0.00  0.00    +0.173 A 
BRANCH   8  13
ATOM     13  C   UNL     1       5.183  -2.105  -3.583  0.00  0.00    +0.387 C 
ATOM     14  O   UNL     1       5.515  -2.170  -2.417  0.00  0.00    -0.241 OA
ATOM     15  O   UNL     1       5.985  -2.607  -4.541  0.00  0.00    -0.241 OA
ENDBRANCH   8  13
BRANCH   2  17
ATOM     16  C   UNL     1      -1.634   2.938  -4.513  0.00  0.00    +0.027 C 
ATOM     17  C   UNL     1      -1.839   1.438  -4.292  0.00  0.00    +0.124 C 
ENDBRANCH   2  17
ENDBRANCH   1  12
BRANCH   1  18
ATOM     18  C   UNL     1      -0.121   0.959   0.012  0.00  0.00    +0.173 C 
BRANCH  18  19
ATOM     19  C   UNL     1      -0.818   1.433   1.262  0.00  0.00    +0.227 C 
ATOM     20  O   UNL     1      -1.896   1.982   1.184  0.00  0.00    -0.275 OA
ATOM     21  N   UNL     1      -0.242   1.246   2.466  0.00  0.00    -0.285 N 
ATOM     22  H   UNL     1       0.583   0.740   2.536  0.00  0.00    +0.155 HD
BRANCH  21  23
ATOM     23  C   UNL     1      -0.831   1.780   3.611  0.00  0.00    +0.033 A 
ATOM     24  C   UNL     1      -1.512   2.991   3.541  0.00  0.00    +0.024 A 
ATOM     25  C   UNL     1      -2.100   3.519   4.668  0.00  0.00    +0.015 A 
ATOM     26  C   UNL     1      -2.002   2.842   5.887  0.00  0.00    +0.037 A 
ATOM     27  C   UNL     1      -1.313   1.628   5.955  0.00  0.00    +0.015 A 
ATOM     28  C   UNL     1      -0.732   1.103   4.823  0.00  0.00    +0.024 A 
BRANCH  26  29
ATOM     29  C   UNL     1      -2.626   3.407   7.099  0.00  0.00    +0.242 C 
ATOM     30  O   UNL     1      -2.541   2.817   8.159  0.00  0.00    -0.270 OA
ATOM     31  N   UNL     1      -3.291   4.578   7.032  0.00  0.00    -0.325 N 
ATOM     32  H   UNL     1      -3.359   5.049   6.186  0.00  0.00    +0.145 HD
ATOM     33  H   UNL     1      -3.701   4.949   7.828  0.00  0.00    +0.145 HD
ENDBRANCH  26  29
ENDBRANCH  21  23
ENDBRANCH  18  19
ENDBRANCH   1  18
TORSDOF 7
