REMARK  Name = ZINC09842248
REMARK  10 active torsions:
REMARK  status: ('A' for Active; 'I' for Inactive)
REMARK    1  A    between atoms: C_1  and  C_2
REMARK    2  A    between atoms: C_4  and  C_8
REMARK    3  A    between atoms: C_5  and  C_7
REMARK    4  A    between atoms: C_8  and  C_10
REMARK    5  A    between atoms: C_10  and  C_11
REMARK    6  A    between atoms: C_11  and  C_12
REMARK    7  A    between atoms: C_12  and  O_14
REMARK    8  A    between atoms: O_14  and  C_15
REMARK    9  A    between atoms: C_15  and  C_16
REMARK   10  A    between atoms: C_22  and  C_25
REMARK                            x       y       z     vdW  Elec       q    Type
REMARK                         _______ _______ _______ _____ _____    ______ ____
ROOT
ATOM      1  C   UNL     1       2.462   0.920  -0.017  0.00  0.00    +0.328 C 
ENDROOT
BRANCH   1   2
ATOM      2  C   UNL     1       1.147   1.655   0.000  0.00  0.00    +0.256 C 
ATOM      3  O   UNL     1       1.130   2.868   0.007  0.00  0.00    -0.272 OA
ATOM      4  N   UNL     1      -0.011   0.966   0.007  0.00  0.00    -0.266 N 
ATOM      5  C   UNL     1      -1.228   1.647   0.017  0.00  0.00    +0.143 A 
ATOM      6  C   UNL     1      -2.420   0.928   0.013  0.00  0.00    +0.082 A 
ATOM      7  C   UNL     1      -3.621   1.617   0.028  0.00  0.00    +0.037 A 
ATOM      8  C   UNL     1      -3.588   3.005   0.035  0.00  0.00    +0.074 A 
ATOM      9  C   UNL     1      -2.368   3.653   0.033  0.00  0.00    +0.125 A 
ATOM     10  N   UNL     1      -1.239   2.970   0.024  0.00  0.00    -0.238 NA
ATOM     11 CL   UNL     1      -2.401  -0.807  -0.004  0.00  0.00    -0.080 Cl
ATOM     12  H   UNL     1       0.002  -0.004   0.002  0.00  0.00    +0.156 HD
BRANCH   8  13
ATOM     13  C   UNL     1      -4.870   3.797   0.046  0.00  0.00    +0.419 C 
ATOM     14  F   UNL     1      -4.573   5.165   0.053  0.00  0.00    -0.166 F 
ATOM     15  F   UNL     1      -5.619   3.488  -1.094  0.00  0.00    -0.166 F 
ATOM     16  F   UNL     1      -5.607   3.475   1.190  0.00  0.00    -0.166 F 
ENDBRANCH   8  13
ENDBRANCH   1   2
BRANCH   1  17
ATOM     17  O   UNL     1       3.553   1.878  -0.022  0.00  0.00    -0.455 OA
BRANCH  17  18
ATOM     18  C   UNL     1       4.800   1.382  -0.036  0.00  0.00    +0.308 C 
ATOM     19  O   UNL     1       4.974   0.187  -0.044  0.00  0.00    -0.251 OA
BRANCH  18  20
ATOM     20  C   UNL     1       5.982   2.316  -0.043  0.00  0.00    +0.128 C 
BRANCH  20  21
ATOM     21  C   UNL     1       7.277   1.501  -0.059  0.00  0.00    +0.091 C 
BRANCH  21  22
ATOM     22  C   UNL     1       8.459   2.435  -0.066  0.00  0.00    +0.164 C 
ATOM     23  O   UNL     1       8.284   3.636  -0.058  0.00  0.00    -0.292 OA
BRANCH  22  27
ATOM     24  C   UNL     1      11.896  -1.332  -0.120  0.00  0.00    +0.051 C 
ATOM     25  C   UNL     1      11.352   0.073  -0.106  0.00  0.00    -0.012 A 
ATOM     26  C   UNL     1      10.066   0.472  -0.092  0.00  0.00    +0.022 A 
ATOM     27  C   UNL     1       9.819   1.894  -0.082  0.00  0.00    +0.028 A 
ATOM     28  C   UNL     1      10.928   2.722  -0.093  0.00  0.00    -0.003 A 
ATOM     29  S   UNL     1      12.254   1.609  -0.106  0.00  0.00    -0.098 S 
ATOM     30  C   UNL     1      10.971   4.228  -0.092  0.00  0.00    +0.052 C 
ENDBRANCH  22  27
ENDBRANCH  21  22
ENDBRANCH  20  21
ENDBRANCH  18  20
ENDBRANCH  17  18
ENDBRANCH   1  17
TORSDOF 8
