REMARK  Name = ZINC06446958
REMARK  6 active torsions:
REMARK  status: ('A' for Active; 'I' for Inactive)
REMARK    1  A    between atoms: C_8  and  C_25
REMARK    2  A    between atoms: N_9  and  C_10
REMARK    3  A    between atoms: C_10  and  C_11
REMARK    4  A    between atoms: N_13  and  N_14
REMARK    5  A    between atoms: C_15  and  C_16
REMARK    6  A    between atoms: C_20  and  N_22
REMARK                            x       y       z     vdW  Elec       q    Type
REMARK                         _______ _______ _______ _____ _____    ______ ____
ROOT
ATOM      1  C   UNL     1       1.183   1.781   0.000  0.00  0.00    +0.002 A 
ATOM      2  C   UNL     1      -0.013   1.076   0.008  0.00  0.00    +0.002 A 
ATOM      3  C   UNL     1      -1.218   1.744   0.017  0.00  0.00    +0.028 A 
ATOM      4  C   UNL     1      -1.236   3.132   0.030  0.00  0.00    +0.070 A 
ATOM      5  C   UNL     1      -0.025   3.847   0.022  0.00  0.00    +0.090 A 
ATOM      6  C   UNL     1       1.187   3.147   0.007  0.00  0.00    +0.030 A 
ATOM      7  N   UNL     1      -0.338   5.165   0.032  0.00  0.00    -0.226 NA
ATOM      8  C   UNL     1      -1.640   5.307   0.045  0.00  0.00    +0.168 A 
ATOM      9  N   UNL     1      -2.241   4.078   0.044  0.00  0.00    -0.313 N 
ENDROOT
BRANCH   8  10
ATOM     10  C   UNL     1      -2.354   6.603   0.059  0.00  0.00    +0.190 A 
ATOM     11  C   UNL     1      -1.789   7.973   0.067  0.00  0.00    +0.191 A 
ATOM     12  N   UNL     1      -2.865   8.725   0.077  0.00  0.00    -0.033 NA
ATOM     13  O   UNL     1      -3.848   8.022   0.083  0.00  0.00    -0.240 OA
ATOM     14  N   UNL     1      -3.650   6.830   0.074  0.00  0.00    -0.044 NA
ATOM     15  N   UNL     1      -0.457   8.364   0.064  0.00  0.00    -0.339 N 
ATOM     16  H   UNL     1       0.245   7.694   0.054  0.00  0.00    +0.144 HD
ATOM     17  H   UNL     1      -0.227   9.306   0.070  0.00  0.00    +0.144 HD
ENDBRANCH   8  10
BRANCH   9  18
ATOM     18  C   UNL     1      -3.682   3.814   0.056  0.00  0.00    +0.221 C 
BRANCH  18  19
ATOM     19  C   UNL     1      -4.189   3.732  -1.361  0.00  0.00    +0.252 C 
ATOM     20  O   UNL     1      -3.422   3.879  -2.289  0.00  0.00    -0.272 OA
ATOM     21  N   UNL     1      -5.495   3.495  -1.597  0.00  0.00    -0.206 N 
ATOM     22  H   UNL     1      -6.109   3.378  -0.854  0.00  0.00    +0.177 HD
BRANCH  21  23
ATOM     23  N   UNL     1      -5.966   3.418  -2.914  0.00  0.00    -0.188 NA
ATOM     24  C   UNL     1      -7.224   3.191  -3.141  0.00  0.00    +0.142 C 
BRANCH  24  25
ATOM     25  C   UNL     1      -7.720   3.110  -4.526  0.00  0.00    +0.043 A 
ATOM     26  C   UNL     1      -9.072   2.865  -4.775  0.00  0.00    +0.013 A 
ATOM     27  C   UNL     1      -9.530   2.791  -6.074  0.00  0.00    +0.003 A 
ATOM     28  C   UNL     1      -8.654   2.959  -7.133  0.00  0.00    +0.037 A 
ATOM     29  C   UNL     1      -7.314   3.202  -6.900  0.00  0.00    +0.173 A 
ATOM     30  C   UNL     1      -6.838   3.284  -5.601  0.00  0.00    +0.218 A 
ATOM     31  O   UNL     1      -5.522   3.529  -5.372  0.00  0.00    -0.285 OA
BRANCH  29  32
ATOM     32  N   UNL     1      -6.386   3.381  -8.040  0.00  0.00    +0.060 N 
ATOM     33  O   UNL     1      -6.804   3.313  -9.182  0.00  0.00    -0.126 OA
ATOM     34  O   UNL     1      -5.204   3.595  -7.835  0.00  0.00    -0.126 OA
ENDBRANCH  29  32
ENDBRANCH  24  25
ENDBRANCH  21  23
ENDBRANCH  18  19
ENDBRANCH   9  18
TORSDOF 6
