REMARK  Name = ZINC13099280
REMARK  5 active torsions:
REMARK  status: ('A' for Active; 'I' for Inactive)
REMARK    1  A    between atoms: C_2  and  S_20
REMARK    2  A    between atoms: C_5  and  N_8
REMARK    3  A    between atoms: N_9  and  C_10
REMARK    4  A    between atoms: C_11  and  N_18
REMARK    5  A    between atoms: S_20  and  N_23
REMARK                            x       y       z     vdW  Elec       q    Type
REMARK                         _______ _______ _______ _____ _____    ______ ____
ROOT
ATOM      1  N   UNL     1       1.251  -2.050  -0.010  0.00  0.00    -0.147 NA
ATOM      2  N   UNL     1       0.147  -2.717  -0.012  0.00  0.00    -0.140 NA
ENDROOT
BRANCH   2   3
ATOM      3  C   UNL     1       0.173  -4.068  -0.022  0.00  0.00    +0.188 A 
ATOM      4  C   UNL     1      -1.010  -4.808   0.089  0.00  0.00    +0.129 A 
ATOM      5  N   UNL     1      -0.943  -6.175   0.075  0.00  0.00    -0.322 N 
ATOM      6  C   UNL     1       0.241  -6.801  -0.043  0.00  0.00    +0.159 A 
ATOM      7  N   UNL     1       1.393  -6.119  -0.151  0.00  0.00    -0.301 N 
ATOM      8  C   UNL     1       1.402  -4.771  -0.151  0.00  0.00    +0.281 A 
ATOM      9  O   UNL     1       2.451  -4.162  -0.255  0.00  0.00    -0.265 OA
ATOM     10  S   UNL     1       0.281  -8.513  -0.057  0.00  0.00    -0.013 S 
ATOM     11  H   UNL     1       2.230  -6.602  -0.235  0.00  0.00    +0.171 HD
ATOM     12  H   UNL     1      -1.757  -6.697   0.152  0.00  0.00    +0.169 HD
BRANCH   4  13
ATOM     13  N   UNL     1      -2.214  -4.176   0.210  0.00  0.00    -0.343 N 
ATOM     14  H   UNL     1      -2.262  -3.209   0.146  0.00  0.00    +0.144 HD
ATOM     15  H   UNL     1      -3.021  -4.693   0.360  0.00  0.00    +0.144 HD
ENDBRANCH   4  13
ENDBRANCH   2   3
BRANCH   1  20
ATOM     16  C   UNL     1      -0.016   1.376   0.017  0.00  0.00    +0.046 A 
ATOM     17  C   UNL     1       1.171   2.087   0.019  0.00  0.00    +0.107 A 
ATOM     18  C   UNL     1       2.384   1.423   0.011  0.00  0.00    +0.046 A 
ATOM     19  C   UNL     1       2.419   0.043   0.001  0.00  0.00    +0.048 A 
ATOM     20  C   UNL     1       1.225  -0.683  -0.000  0.00  0.00    +0.114 A 
ATOM     21  C   UNL     1       0.003  -0.004   0.008  0.00  0.00    +0.048 A 
ATOM     22 BR   UNL     1      -1.621  -0.974   0.005  0.00  0.00    -0.048 Br
ATOM     23 BR   UNL     1       4.079  -0.864  -0.011  0.00  0.00    -0.048 Br
BRANCH  17  24
ATOM     24  S   UNL     1       1.137   3.849   0.031  0.00  0.00    +0.056 S 
ATOM     25  O   UNL     1       2.373   4.283  -0.520  0.00  0.00    -0.153 OA
ATOM     26  O   UNL     1      -0.117   4.235  -0.514  0.00  0.00    -0.153 OA
BRANCH  24  27
ATOM     27  N   UNL     1       1.131   4.328   1.616  0.00  0.00    -0.204 NA
ATOM     28  H   UNL     1       1.536   5.173   1.869  0.00  0.00    +0.144 HD
ATOM     29  H   UNL     1       0.724   3.764   2.292  0.00  0.00    +0.144 HD
ENDBRANCH  24  27
ENDBRANCH  17  24
ENDBRANCH   1  20
TORSDOF 5
