REMARK  Name = ZINC08992422
REMARK  7 active torsions:
REMARK  status: ('A' for Active; 'I' for Inactive)
REMARK    1  A    between atoms: C_1  and  C_2
REMARK    2  A    between atoms: C_5  and  N_17
REMARK    3  A    between atoms: C_14  and  C_16
REMARK    4  A    between atoms: N_17  and  C_18
REMARK    5  A    between atoms: C_24  and  C_26
REMARK    6  A    between atoms: C_26  and  N_65
REMARK    7  A    between atoms: C_29  and  C_32
REMARK                            x       y       z     vdW  Elec       q    Type
REMARK                         _______ _______ _______ _____ _____    ______ ____
ROOT
ATOM      1  N   UNL     1       3.938   4.579   1.700  0.00  0.00    -0.265 N 
ATOM      2  C   UNL     1       3.709   4.080   2.931  0.00  0.00    +0.204 C 
ATOM      3  O   UNL     1       2.787   3.313   3.112  0.00  0.00    -0.277 OA
ENDROOT
BRANCH   1   7
ATOM      4  C   UNL     1       2.608   2.859  -1.994  0.00  0.00    +0.028 C 
ATOM      5  C   UNL     1       2.461   2.059  -0.698  0.00  0.00    +0.081 C 
ATOM      6  C   UNL     1       3.430   2.602   0.360  0.00  0.00    +0.050 C 
ATOM      7  C   UNL     1       3.161   4.094   0.556  0.00  0.00    +0.115 C 
ATOM      8  C   UNL     1       1.697   4.338   0.811  0.00  0.00    -0.005 A 
ATOM      9  C   UNL     1       1.311   5.517   1.427  0.00  0.00    +0.007 A 
ATOM     10  C   UNL     1      -0.024   5.771   1.671  0.00  0.00    +0.000 A 
ATOM     11  C   UNL     1      -0.986   4.848   1.303  0.00  0.00    +0.002 A 
ATOM     12  C   UNL     1      -0.609   3.669   0.691  0.00  0.00    +0.024 A 
ATOM     13  C   UNL     1       0.733   3.413   0.439  0.00  0.00    +0.041 A 
ATOM     14  N   UNL     1       1.096   2.207  -0.175  0.00  0.00    -0.268 N 
ATOM     15  C   UNL     1       0.206   1.201  -0.289  0.00  0.00    +0.217 C 
ATOM     16  O   UNL     1      -0.873   1.281   0.259  0.00  0.00    -0.276 OA
ATOM     17  C   UNL     1       0.554  -0.025  -1.093  0.00  0.00    +0.109 C 
ENDBRANCH   1   7
BRANCH   1  18
ATOM     18  C   UNL     1       4.918   5.561   1.514  0.00  0.00    +0.037 A 
ATOM     19  C   UNL     1       4.798   6.792   2.146  0.00  0.00    +0.023 A 
ATOM     20  C   UNL     1       5.770   7.756   1.966  0.00  0.00    +0.002 A 
ATOM     21  C   UNL     1       6.856   7.501   1.148  0.00  0.00    +0.000 A 
ATOM     22  C   UNL     1       6.975   6.279   0.513  0.00  0.00    +0.002 A 
ATOM     23  C   UNL     1       6.010   5.308   0.694  0.00  0.00    +0.023 A 
ENDBRANCH   1  18
BRANCH   2  24
ATOM     24  C   UNL     1       4.599   4.474   4.081  0.00  0.00    +0.019 C 
BRANCH  24  30
ATOM     25  C   UNL     1       4.321   2.262   5.025  0.00  0.00    -0.077 C 
ATOM     26  C   UNL     1       3.787   1.495   6.236  0.00  0.00    -0.006 C 
ATOM     27  C   UNL     1       4.604   1.873   7.475  0.00  0.00    +0.071 C 
ATOM     28  C   UNL     1       4.526   3.387   7.686  0.00  0.00    -0.006 C 
ATOM     29  C   UNL     1       5.039   4.099   6.432  0.00  0.00    -0.077 C 
ATOM     30  N   UNL     1       4.196   3.713   5.281  0.00  0.00    +0.385 N 
ATOM     31  H   UNL     1       3.216   3.929   5.499  0.00  0.00    -0.081 HD
BRANCH  27  32
ATOM     32  C   UNL     1       4.045   1.166   8.682  0.00  0.00    +0.213 C 
ATOM     33  O   UNL     1       3.624   1.810   9.621  0.00  0.00    -0.276 OA
ATOM     34  N   UNL     1       4.011  -0.180   8.720  0.00  0.00    -0.329 N 
ATOM     35  H   UNL     1       4.348  -0.695   7.970  0.00  0.00    +0.145 HD
ATOM     36  H   UNL     1       3.651  -0.635   9.498  0.00  0.00    +0.145 HD
ENDBRANCH  27  32
ENDBRANCH  24  30
ENDBRANCH   2  24
TORSDOF 5
