REMARK  Name = ZINC10141796
REMARK  6 active torsions:
REMARK  status: ('A' for Active; 'I' for Inactive)
REMARK    1  A    between atoms: C_1  and  C_2
REMARK    2  A    between atoms: C_5  and  N_9
REMARK    3  A    between atoms: C_10  and  C_12
REMARK    4  A    between atoms: C_12  and  O_13
REMARK    5  A    between atoms: O_13  and  C_14
REMARK    6  A    between atoms: C_14  and  C_16
REMARK                            x       y       z     vdW  Elec       q    Type
REMARK                         _______ _______ _______ _____ _____    ______ ____
ROOT
ATOM      1  N   UNL     1       6.404   5.877  -0.118  0.00  0.00    -0.281 N 
ATOM      2  C   UNL     1       5.487   5.123   0.521  0.00  0.00    +0.255 C 
ATOM      3  O   UNL     1       4.575   5.654   1.118  0.00  0.00    -0.272 OA
ATOM      4  H   UNL     1       7.087   5.453  -0.662  0.00  0.00    +0.155 HD
ENDROOT
BRANCH   1   9
ATOM      5  C   UNL     1       6.271  11.529   0.375  0.00  0.00    +0.044 C 
ATOM      6  C   UNL     1       6.307  10.028   0.244  0.00  0.00    -0.048 A 
ATOM      7  C   UNL     1       7.474   9.339   0.516  0.00  0.00    +0.020 A 
ATOM      8  C   UNL     1       7.510   7.963   0.398  0.00  0.00    +0.040 A 
ATOM      9  C   UNL     1       6.371   7.271   0.004  0.00  0.00    +0.062 A 
ATOM     10  C   UNL     1       5.202   7.967  -0.275  0.00  0.00    +0.040 A 
ATOM     11  C   UNL     1       5.171   9.343  -0.148  0.00  0.00    +0.020 A 
ATOM     12 BR   UNL     1       3.651   7.032  -0.820  0.00  0.00    -0.048 Br
ATOM     13 BR   UNL     1       9.107   7.022   0.771  0.00  0.00    -0.048 Br
ENDBRANCH   1   9
BRANCH   2  14
ATOM     14  C   UNL     1       5.596   3.620   0.492  0.00  0.00    +0.328 C 
BRANCH  14  15
ATOM     15  O   UNL     1       4.498   3.042   1.247  0.00  0.00    -0.451 OA
BRANCH  15  16
ATOM     16  C   UNL     1       4.448   1.697   1.320  0.00  0.00    +0.362 C 
ATOM     17  O   UNL     1       5.298   1.027   0.769  0.00  0.00    -0.243 OA
BRANCH  16  18
ATOM     18  C   UNL     1       3.361   1.039   2.071  0.00  0.00    +0.187 A 
ATOM     19  C   UNL     1       3.369  -0.355   2.250  0.00  0.00    +0.149 A 
ATOM     20  N   UNL     1       2.386  -0.936   2.927  0.00  0.00    -0.237 NA
ATOM     21  C   UNL     1       1.407  -0.205   3.428  0.00  0.00    +0.132 A 
ATOM     22  C   UNL     1       1.399   1.172   3.251  0.00  0.00    +0.131 A 
ATOM     23  N   UNL     1       2.368   1.762   2.581  0.00  0.00    -0.244 NA
ATOM     24  N   UNL     1       4.396  -1.116   1.724  0.00  0.00    -0.341 N 
ATOM     25  H   UNL     1       4.443  -2.066   1.916  0.00  0.00    +0.144 HD
ATOM     26  H   UNL     1       5.070  -0.701   1.163  0.00  0.00    +0.144 HD
ENDBRANCH  16  18
ENDBRANCH  15  16
ENDBRANCH  14  15
ENDBRANCH   2  14
TORSDOF 5
