REMARK  Name = ZINC44658337
REMARK  7 active torsions:
REMARK  status: ('A' for Active; 'I' for Inactive)
REMARK    1  A    between atoms: C_1  and  C_2
REMARK    2  A    between atoms: C_2  and  C_4
REMARK    3  A    between atoms: C_2  and  S_11
REMARK    4  A    between atoms: N_9  and  C_10
REMARK    5  A    between atoms: S_11  and  C_12
REMARK    6  A    between atoms: C_16  and  C_25
REMARK    7  A    between atoms: N_17  and  C_18
REMARK                            x       y       z     vdW  Elec       q    Type
REMARK                         _______ _______ _______ _____ _____    ______ ____
ROOT
ATOM      1  C   UNL     1      -1.866  -0.095   1.417  0.00  0.00    +0.242 C 
ATOM      2  N   UNL     1      -1.795   1.365   1.585  0.00  0.00    -0.237 N 
ATOM      3  N   UNL     1      -1.625   1.601   2.954  0.00  0.00    -0.169 NA
ATOM      4  C   UNL     1      -1.585   0.481   3.627  0.00  0.00    +0.151 C 
ATOM      5  N   UNL     1      -1.725  -0.627   2.783  0.00  0.00    -0.254 N 
ATOM      6  H   UNL     1      -1.854   2.034   0.884  0.00  0.00    +0.171 HD
ENDROOT
BRANCH   4   7
ATOM      7  C   UNL     1      -1.424   0.400   5.019  0.00  0.00    +0.022 C 
ATOM      8  C   UNL     1      -1.383   1.459   5.926  0.00  0.00    +0.006 A 
ATOM      9  C   UNL     1      -1.482   2.857   5.765  0.00  0.00    +0.010 A 
ATOM     10  C   UNL     1      -1.407   3.668   6.852  0.00  0.00    +0.001 A 
ATOM     11  C   UNL     1      -1.233   3.152   8.138  0.00  0.00    +0.002 A 
ATOM     12  C   UNL     1      -1.130   1.820   8.366  0.00  0.00    +0.026 A 
ATOM     13  C   UNL     1      -1.200   0.910   7.280  0.00  0.00    +0.043 A 
ATOM     14  N   UNL     1      -1.129  -0.406   7.238  0.00  0.00    -0.380 N 
ATOM     15  C   UNL     1      -1.264  -0.854   5.849  0.00  0.00    +0.152 C 
ATOM     16  H   UNL     1      -1.009  -0.986   8.006  0.00  0.00    +0.160 HD
ENDBRANCH   4   7
BRANCH   5  17
ATOM     17  C   UNL     1      -1.730  -1.973   3.160  0.00  0.00    +0.038 A 
ATOM     18  C   UNL     1      -2.930  -2.612   3.443  0.00  0.00    +0.025 A 
ATOM     19  C   UNL     1      -2.932  -3.942   3.816  0.00  0.00    +0.022 A 
ATOM     20  C   UNL     1      -1.739  -4.637   3.907  0.00  0.00    +0.041 A 
ATOM     21  C   UNL     1      -0.542  -4.003   3.626  0.00  0.00    +0.022 A 
ATOM     22  C   UNL     1      -0.535  -2.675   3.247  0.00  0.00    +0.025 A 
ATOM     23 CL   UNL     1      -1.745  -6.309   4.377  0.00  0.00    -0.084 Cl
ENDBRANCH   5  17
BRANCH   1  24
ATOM     24  S   UNL     1      -0.509  -0.680   0.365  0.00  0.00    -0.105 S 
BRANCH  24  26
ATOM     25  C   UNL     1       1.010   1.435   1.200  0.00  0.00    +0.029 C 
ATOM     26  C   UNL     1       0.985  -0.094   1.211  0.00  0.00    +0.133 C 
BRANCH  26  27
ATOM     27  C   UNL     1       2.204  -0.622   0.499  0.00  0.00    +0.233 C 
ATOM     28  O   UNL     1       2.141  -0.917  -0.675  0.00  0.00    -0.274 OA
ATOM     29  N   UNL     1       3.366  -0.765   1.168  0.00  0.00    -0.239 N 
ATOM     30  C   UNL     1       4.456  -1.237   0.532  0.00  0.00    +0.306 C 
ATOM     31  O   UNL     1       4.392  -1.533  -0.645  0.00  0.00    -0.252 OA
ATOM     32  N   UNL     1       5.617  -1.380   1.201  0.00  0.00    -0.302 N 
ATOM     33  C   UNL     1       6.803  -1.893   0.509  0.00  0.00    +0.129 C 
ATOM     34  H   UNL     1       3.417  -0.529   2.107  0.00  0.00    +0.159 HD
ATOM     35  H   UNL     1       5.668  -1.144   2.140  0.00  0.00    +0.150 HD
ENDBRANCH  26  27
ENDBRANCH  24  26
ENDBRANCH   1  24
TORSDOF 5
