REMARK  Name = ZINC27894173
REMARK  5 active torsions:
REMARK  status: ('A' for Active; 'I' for Inactive)
REMARK    1  A    between atoms: C_10  and  C_11
REMARK    2  A    between atoms: N_16  and  C_19
REMARK    3  A    between atoms: C_19  and  C_20
REMARK    4  A    between atoms: C_23  and  C_33
REMARK    5  A    between atoms: C_26  and  C_28
REMARK                            x       y       z     vdW  Elec       q    Type
REMARK                         _______ _______ _______ _____ _____    ______ ____
ROOT
ATOM      1  C   UNL     1      -1.571   7.294   1.500  0.00  0.00    +0.247 C 
ATOM      2  O   UNL     1      -2.620   7.848   1.235  0.00  0.00    -0.270 OA
ATOM      3  N   UNL     1      -1.079   6.351   0.671  0.00  0.00    -0.301 N 
ATOM      4  C   UNL     1      -1.838   5.915  -0.510  0.00  0.00    +0.089 C 
ATOM      5  C   UNL     1      -1.921   4.385  -0.497  0.00  0.00    -0.059 C 
ATOM      6  N   UNL     1      -0.568   3.825  -0.387  0.00  0.00    +0.387 N 
ATOM      7  C   UNL     1       0.066   4.210   0.882  0.00  0.00    -0.059 C 
ATOM      8  C   UNL     1       0.231   5.732   0.925  0.00  0.00    +0.089 C 
ATOM      9  H   UNL     1       0.036   4.246  -1.204  0.00  0.00    -0.081 HD
ENDROOT
BRANCH   1  19
ATOM     10  C   UNL     1      -2.709   7.579   6.473  0.00  0.00    +0.001 A 
ATOM     11  C   UNL     1      -3.424   7.236   5.328  0.00  0.00    +0.001 A 
ATOM     12  C   UNL     1      -2.832   7.255   4.101  0.00  0.00    +0.009 A 
ATOM     13  C   UNL     1      -1.486   7.629   3.985  0.00  0.00    -0.006 A 
ATOM     14  C   UNL     1      -0.757   7.973   5.149  0.00  0.00    -0.017 A 
ATOM     15  C   UNL     1      -1.400   7.943   6.399  0.00  0.00    +0.008 A 
ATOM     16  C   UNL     1       0.595   8.344   5.035  0.00  0.00    +0.008 A 
ATOM     17  C   UNL     1       1.197   8.365   3.813  0.00  0.00    +0.001 A 
ATOM     18  C   UNL     1       0.499   8.025   2.661  0.00  0.00    +0.014 A 
ATOM     19  C   UNL     1      -0.836   7.654   2.727  0.00  0.00    +0.045 A 
ENDBRANCH   1  19
BRANCH   6  20
ATOM     20  C   UNL     1      -0.588   2.364  -0.543  0.00  0.00    +0.021 C 
BRANCH  20  21
ATOM     21  C   UNL     1       0.824   1.853  -0.670  0.00  0.00    +0.219 C 
ATOM     22  O   UNL     1       1.756   2.630  -0.638  0.00  0.00    -0.276 OA
ATOM     23  N   UNL     1       1.052   0.534  -0.824  0.00  0.00    -0.184 N 
ATOM     24  C   UNL     1       2.374  -0.095  -0.971  0.00  0.00    +0.172 C 
ATOM     25  C   UNL     1       2.049  -1.595  -1.107  0.00  0.00    +0.090 C 
ATOM     26  C   UNL     1       0.540  -1.651  -1.030  0.00  0.00    +0.075 C 
ATOM     27  N   UNL     1       0.073  -0.457  -0.876  0.00  0.00    -0.180 NA
BRANCH  26  28
ATOM     28  C   UNL     1      -0.268  -2.871  -1.117  0.00  0.00    +0.035 A 
ATOM     29  C   UNL     1      -1.643  -3.013  -1.057  0.00  0.00    +0.017 A 
ATOM     30  C   UNL     1      -2.175  -4.277  -1.163  0.00  0.00    +0.008 A 
ATOM     31  C   UNL     1      -1.341  -5.338  -1.322  0.00  0.00    +0.046 A 
ATOM     32  S   UNL     1       0.266  -4.561  -1.335  0.00  0.00    -0.095 S 
ENDBRANCH  26  28
BRANCH  24  33
ATOM     33  C   UNL     1       3.218   0.153   0.253  0.00  0.00    +0.128 A 
ATOM     34  C   UNL     1       4.538   0.411   0.260  0.00  0.00    +0.046 A 
ATOM     35  C   UNL     1       4.916   0.577   1.612  0.00  0.00    +0.041 A 
ATOM     36  C   UNL     1       3.804   0.410   2.351  0.00  0.00    +0.195 A 
ATOM     37  O   UNL     1       2.777   0.160   1.522  0.00  0.00    -0.466 OA
ENDBRANCH  24  33
ENDBRANCH  20  21
ENDBRANCH   6  20
TORSDOF 5
