REMARK  Name = ZINC50440312
REMARK  5 active torsions:
REMARK  status: ('A' for Active; 'I' for Inactive)
REMARK    1  A    between atoms: C_3  and  S_14
REMARK    2  A    between atoms: C_4  and  C_10
REMARK    3  A    between atoms: C_6  and  N_7
REMARK    4  A    between atoms: N_11  and  O_12
REMARK    5  A    between atoms: S_14  and  C_15
REMARK                            x       y       z     vdW  Elec       q    Type
REMARK                         _______ _______ _______ _____ _____    ______ ____
ROOT
ATOM      1  C   UNL     1      -0.019   1.300  -0.054  0.00  0.00    +0.034 A 
ATOM      2  C   UNL     1       1.138   2.046   0.048  0.00  0.00    +0.018 A 
ATOM      3  C   UNL     1       2.372   1.412   0.111  0.00  0.00    +0.026 A 
ATOM      4  C   UNL     1       2.435   0.012   0.071  0.00  0.00    +0.034 A 
ATOM      5  C   UNL     1       1.258  -0.729  -0.032  0.00  0.00    +0.045 A 
ATOM      6  C   UNL     1       0.041  -0.083  -0.094  0.00  0.00    +0.127 A 
ENDROOT
BRANCH   4   7
ATOM      7  C   UNL     1       3.742  -0.675   0.136  0.00  0.00    +0.164 C 
ATOM      8  N   UNL     1       3.965  -1.563   1.062  0.00  0.00    -0.071 NA
ATOM      9  N   UNL     1       4.730  -0.374  -0.786  0.00  0.00    -0.340 N 
ATOM     10  H   UNL     1       4.564   0.288  -1.476  0.00  0.00    +0.144 HD
ATOM     11  H   UNL     1       5.588  -0.825  -0.743  0.00  0.00    +0.144 HD
BRANCH   8  12
ATOM     12  O   UNL     1       2.925  -1.942   1.944  0.00  0.00    -0.408 OA
ATOM     13  H   UNL     1       3.163  -2.661   2.547  0.00  0.00    +0.328 HD
ENDBRANCH   8  12
ENDBRANCH   4   7
BRANCH   6  14
ATOM     14  N   UNL     1      -1.207  -0.872  -0.203  0.00  0.00    +0.056 N 
ATOM     15  O   UNL     1      -2.275  -0.308  -0.257  0.00  0.00    -0.126 OA
ATOM     16  O   UNL     1      -1.158  -2.079  -0.238  0.00  0.00    -0.126 OA
ENDBRANCH   6  14
BRANCH   3  17
ATOM     17  S   UNL     1       3.850   2.362   0.240  0.00  0.00    -0.049 S 
BRANCH  17  18
ATOM     18  C   UNL     1       4.315   2.198   1.932  0.00  0.00    +0.196 A 
ATOM     19  N   UNL     1       5.354   2.885   2.386  0.00  0.00    -0.230 NA
ATOM     20  C   UNL     1       5.732   2.787   3.651  0.00  0.00    +0.119 A 
ATOM     21  C   UNL     1       5.031   1.957   4.505  0.00  0.00    +0.092 A 
ATOM     22  C   UNL     1       3.942   1.247   3.998  0.00  0.00    +0.274 A 
ATOM     23  N   UNL     1       3.615   1.395   2.720  0.00  0.00    -0.183 NA
ATOM     24  O   UNL     1       3.227   0.422   4.799  0.00  0.00    -0.266 OA
ENDBRANCH  17  18
ENDBRANCH   3  17
TORSDOF 5
