REMARK  Name = ZINC39007620
REMARK  9 active torsions:
REMARK  status: ('A' for Active; 'I' for Inactive)
REMARK    1  A    between atoms: C_1  and  C_2
REMARK    2  A    between atoms: C_2  and  C_3
REMARK    3  A    between atoms: C_8  and  N_9
REMARK    4  A    between atoms: C_10  and  C_12
REMARK    5  A    between atoms: C_12  and  S_13
REMARK    6  A    between atoms: S_13  and  C_14
REMARK    7  A    between atoms: C_18  and  C_22
REMARK    8  A    between atoms: N_20  and  N_21
REMARK    9  A    between atoms: C_25  and  C_28
REMARK                            x       y       z     vdW  Elec       q    Type
REMARK                         _______ _______ _______ _____ _____    ______ ____
ROOT
ATOM      1  C   UNL     1      -5.705   0.285   5.909  0.00  0.00    +0.214 C 
ATOM      2  N   UNL     1      -6.564  -0.298   4.853  0.00  0.00    -0.228 NA
ATOM      3  N   UNL     1      -7.508   0.778   4.512  0.00  0.00    -0.234 NA
ATOM      4  C   UNL     1      -6.666   2.000   4.588  0.00  0.00    +0.185 C 
ATOM      5  N   UNL     1      -5.769   1.752   5.742  0.00  0.00    -0.197 NA
ATOM      6  H   UNL     1      -6.017  -0.567   4.050  0.00  0.00    +0.143 HD
ATOM      7  H   UNL     1      -8.266   0.818   5.176  0.00  0.00    +0.143 HD
ENDROOT
BRANCH   4   8
ATOM      8  C   UNL     1      -7.536   3.234   4.840  0.00  0.00    +0.187 C 
ATOM      9  C   UNL     1      -8.563   3.400   3.734  0.00  0.00    +0.034 C 
ATOM     10  C   UNL     1      -8.256   4.592   3.185  0.00  0.00    +0.091 C 
ATOM     11  N   UNL     1      -7.189   5.145   3.820  0.00  0.00    -0.154 NA
ATOM     12  N   UNL     1      -6.732   4.464   4.745  0.00  0.00    -0.176 NA
BRANCH  10  13
ATOM     13  C   UNL     1      -8.981   5.212   2.049  0.00  0.00    +0.002 A 
ATOM     14  C   UNL     1     -10.069   4.558   1.473  0.00  0.00    +0.011 A 
ATOM     15  C   UNL     1     -10.739   5.139   0.416  0.00  0.00    +0.020 A 
ATOM     16  C   UNL     1     -10.332   6.369  -0.073  0.00  0.00    +0.041 A 
ATOM     17  C   UNL     1      -9.252   7.022   0.495  0.00  0.00    +0.020 A 
ATOM     18  C   UNL     1      -8.579   6.452   1.557  0.00  0.00    +0.011 A 
ATOM     19 CL   UNL     1     -11.179   7.094  -1.404  0.00  0.00    -0.084 Cl
ENDBRANCH  10  13
ENDBRANCH   4   8
BRANCH   5  20
ATOM     20  N   UNL     1      -4.446   2.307   5.502  0.00  0.00    -0.264 NA
ATOM     21  H   UNL     1      -3.807   2.049   6.239  0.00  0.00    +0.137 HD
ATOM     22  H   UNL     1      -4.093   2.022   4.600  0.00  0.00    +0.137 HD
ENDBRANCH   5  20
BRANCH   1  23
ATOM     23  S   UNL     1      -3.997  -0.290   5.709  0.00  0.00    -0.115 S 
BRANCH  23  24
ATOM     24  C   UNL     1      -4.017  -1.971   6.391  0.00  0.00    +0.168 C 
BRANCH  24  26
ATOM     25  N   UNL     1      -2.388  -3.771   6.865  0.00  0.00    -0.285 N 
ATOM     26  C   UNL     1      -2.617  -2.527   6.398  0.00  0.00    +0.227 C 
ATOM     27  O   UNL     1      -1.695  -1.856   5.984  0.00  0.00    -0.275 OA
ATOM     28  H   UNL     1      -3.132  -4.333   7.132  0.00  0.00    +0.155 HD
BRANCH  25  34
ATOM     29  C   UNL     1      -0.727  -5.108   8.000  0.00  0.00    -0.026 A 
ATOM     30  C   UNL     1       0.566  -5.584   8.092  0.00  0.00    +0.005 A 
ATOM     31  C   UNL     1       1.513  -5.203   7.160  0.00  0.00    +0.000 A 
ATOM     32  C   UNL     1       1.169  -4.345   6.131  0.00  0.00    +0.002 A 
ATOM     33  C   UNL     1      -0.122  -3.866   6.032  0.00  0.00    +0.023 A 
ATOM     34  C   UNL     1      -1.077  -4.250   6.965  0.00  0.00    +0.037 A 
BRANCH  29  36
ATOM     35  C   UNL     1      -2.545  -6.723   8.485  0.00  0.00    +0.009 C 
ATOM     36  C   UNL     1      -1.758  -5.523   9.017  0.00  0.00    +0.033 C 
ENDBRANCH  29  36
ENDBRANCH  25  34
ENDBRANCH  24  26
ENDBRANCH  23  24
ENDBRANCH   1  23
TORSDOF 8
