REMARK  Name = ZINC07000309
REMARK  4 active torsions:
REMARK  status: ('A' for Active; 'I' for Inactive)
REMARK    1  A    between atoms: C_1  and  C_2
REMARK    2  A    between atoms: C_7  and  N_8
REMARK    3  A    between atoms: N_8  and  C_9
REMARK    4  A    between atoms: C_10  and  C_12
REMARK                            x       y       z     vdW  Elec       q    Type
REMARK                         _______ _______ _______ _____ _____    ______ ____
ROOT
ATOM      1  N   UNL     1       1.223   1.506  -4.419  0.00  0.00    -0.269 N 
ATOM      2  C   UNL     1       0.224   2.168  -5.261  0.00  0.00    +0.138 C 
ATOM      3  C   UNL     1       0.959   1.268  -3.119  0.00  0.00    +0.273 C 
ATOM      4  O   UNL     1      -0.140   1.522  -2.667  0.00  0.00    -0.268 OA
ENDROOT
BRANCH   3   5
ATOM      5  C   UNL     1       2.009   0.698  -2.241  0.00  0.00    +0.171 A 
ATOM      6  C   UNL     1       1.932   0.487  -0.849  0.00  0.00    +0.027 A 
ATOM      7  C   UNL     1       3.132  -0.046  -0.519  0.00  0.00    +0.141 A 
ATOM      8  O   UNL     1       3.835  -0.131  -1.647  0.00  0.00    -0.359 OA
ATOM      9  N   UNL     1       3.205   0.285  -2.598  0.00  0.00    -0.073 NA
ATOM     10  C   UNL     1       3.517  -0.436   0.884  0.00  0.00    +0.077 C 
ATOM     11  C   UNL     1       2.544   0.241   1.857  0.00  0.00    +0.008 C 
ATOM     12  C   UNL     1       1.101  -0.019   1.411  0.00  0.00    +0.005 C 
ATOM     13  C   UNL     1       0.818   0.759   0.118  0.00  0.00    +0.041 C 
ENDBRANCH   3   5
BRANCH   1  20
ATOM     14  C   UNL     1       3.374   3.367  -4.338  0.00  0.00    +0.045 C 
ATOM     15  C   UNL     1       3.528   1.996  -4.946  0.00  0.00    -0.029 A 
ATOM     16  C   UNL     1       4.740   1.611  -5.485  0.00  0.00    +0.005 A 
ATOM     17  C   UNL     1       4.882   0.354  -6.043  0.00  0.00    +0.000 A 
ATOM     18  C   UNL     1       3.812  -0.522  -6.063  0.00  0.00    +0.002 A 
ATOM     19  C   UNL     1       2.599  -0.145  -5.521  0.00  0.00    +0.024 A 
ATOM     20  C   UNL     1       2.451   1.119  -4.965  0.00  0.00    +0.039 A 
ENDBRANCH   1  20
TORSDOF 2
