REMARK  Name = ZINC64015370
REMARK  6 active torsions:
REMARK  status: ('A' for Active; 'I' for Inactive)
REMARK    1  A    between atoms: C_1  and  C_2
REMARK    2  A    between atoms: C_2  and  C_3
REMARK    3  A    between atoms: C_5  and  C_8
REMARK    4  A    between atoms: C_23  and  C_25
REMARK    5  A    between atoms: C_28  and  O_32
REMARK    6  A    between atoms: O_32  and  C_33
REMARK                            x       y       z     vdW  Elec       q    Type
REMARK                         _______ _______ _______ _____ _____    ______ ____
ROOT
ATOM      1  C   UNL     1       3.634  -1.413  -3.289  0.00  0.00    +0.269 C 
ATOM      2  O   UNL     1       4.645  -1.248  -2.636  0.00  0.00    -0.268 OA
ATOM      3  N   UNL     1       3.706  -1.972  -4.513  0.00  0.00    -0.286 N 
ATOM      4  C   UNL     1       2.514  -2.005  -5.367  0.00  0.00    +0.113 C 
ATOM      5  C   UNL     1       2.815  -1.291  -6.697  0.00  0.00    +0.052 C 
ATOM      6  C   UNL     1       4.160  -1.792  -7.162  0.00  0.00    -0.035 C 
ATOM      7  C   UNL     1       4.551  -2.306  -8.322  0.00  0.00    -0.001 A 
ATOM      8  C   UNL     1       3.852  -2.474  -9.606  0.00  0.00    +0.010 A 
ATOM      9  C   UNL     1       4.560  -3.070 -10.601  0.00  0.00    +0.001 A 
ATOM     10  C   UNL     1       5.878  -3.511 -10.450  0.00  0.00    +0.002 A 
ATOM     11  C   UNL     1       6.601  -3.390  -9.308  0.00  0.00    +0.026 A 
ATOM     12  C   UNL     1       5.966  -2.771  -8.192  0.00  0.00    +0.043 A 
ATOM     13  N   UNL     1       6.423  -2.509  -7.003  0.00  0.00    -0.375 N 
ATOM     14  C   UNL     1       5.386  -1.797  -6.256  0.00  0.00    +0.131 C 
ATOM     15  C   UNL     1       4.982  -2.535  -4.982  0.00  0.00    +0.136 C 
ATOM     16  H   UNL     1       7.302  -2.747  -6.668  0.00  0.00    +0.160 HD
ENDROOT
BRANCH  15  17
ATOM     17  C   UNL     1       6.042  -2.346  -3.928  0.00  0.00    +0.011 A 
ATOM     18  C   UNL     1       6.901  -1.266  -3.999  0.00  0.00    +0.012 A 
ATOM     19  C   UNL     1       7.874  -1.089  -3.034  0.00  0.00    +0.046 A 
ATOM     20  C   UNL     1       7.989  -1.997  -1.991  0.00  0.00    +0.123 A 
ATOM     21  C   UNL     1       7.126  -3.081  -1.919  0.00  0.00    +0.084 A 
ATOM     22  C   UNL     1       6.150  -3.251  -2.885  0.00  0.00    +0.132 A 
ATOM     23  F   UNL     1       5.305  -4.303  -2.813  0.00  0.00    -0.205 F 
BRANCH  20  24
ATOM     24  O   UNL     1       8.945  -1.825  -1.041  0.00  0.00    -0.495 OA
ATOM     25  C   UNL     1       9.005  -2.798   0.003  0.00  0.00    +0.277 C 
ENDBRANCH  20  24
ENDBRANCH  15  17
BRANCH   1  28
ATOM     26  C   UNL     1       0.782  -0.100  -1.390  0.00  0.00    +0.138 A 
ATOM     27  C   UNL     1       2.107  -0.276  -1.541  0.00  0.00    +0.080 A 
ATOM     28  C   UNL     1       2.320  -1.001  -2.738  0.00  0.00    +0.168 A 
ATOM     29  N   UNL     1       1.147  -1.242  -3.274  0.00  0.00    -0.073 NA
ATOM     30  O   UNL     1       0.161  -0.681  -2.427  0.00  0.00    -0.359 OA
BRANCH  26  32
ATOM     31  C   UNL     1      -0.041   2.101  -0.600  0.00  0.00    +0.012 C 
ATOM     32  C   UNL     1       0.111   0.620  -0.249  0.00  0.00    +0.074 C 
ENDBRANCH  26  32
ENDBRANCH   1  28
TORSDOF 4
