REMARK  Name = ZINC61075022
REMARK  3 active torsions:
REMARK  status: ('A' for Active; 'I' for Inactive)
REMARK    1  A    between atoms: C_4  and  C_7
REMARK    2  A    between atoms: C_10  and  C_16
REMARK    3  A    between atoms: C_27  and  C_28
REMARK                            x       y       z     vdW  Elec       q    Type
REMARK                         _______ _______ _______ _____ _____    ______ ____
ROOT
ATOM      1  C   UNL     1       1.337  -9.469   2.288  0.00  0.00    +0.248 C 
ATOM      2  O   UNL     1       0.270  -8.892   2.197  0.00  0.00    -0.270 OA
ATOM      3  N   UNL     1       2.384  -9.072   1.537  0.00  0.00    -0.281 N 
ATOM      4  C   UNL     1       3.709  -9.680   1.694  0.00  0.00    +0.144 C 
ATOM      5  C   UNL     1       4.764  -8.603   1.704  0.00  0.00    -0.027 A 
ATOM      6  C   UNL     1       6.051  -8.961   2.085  0.00  0.00    +0.005 A 
ATOM      7  C   UNL     1       7.062  -8.022   2.105  0.00  0.00    +0.000 A 
ATOM      8  C   UNL     1       6.791  -6.715   1.742  0.00  0.00    +0.000 A 
ATOM      9  C   UNL     1       5.513  -6.358   1.367  0.00  0.00    +0.004 A 
ATOM     10  C   UNL     1       4.491  -7.301   1.352  0.00  0.00    -0.040 A 
ATOM     11  C   UNL     1       3.115  -6.832   0.959  0.00  0.00    +0.067 C 
ATOM     12  C   UNL     1       2.241  -8.014   0.523  0.00  0.00    +0.167 C 
ENDROOT
BRANCH   1  16
ATOM     13  C   UNL     1       1.839 -14.348   3.450  0.00  0.00    +0.175 A 
ATOM     14  C   UNL     1       1.720 -12.965   3.601  0.00  0.00    +0.050 A 
ATOM     15  C   UNL     1       1.578 -11.887   2.715  0.00  0.00    +0.027 A 
ATOM     16  C   UNL     1       1.486 -10.601   3.219  0.00  0.00    +0.038 A 
ATOM     17  C   UNL     1       1.532 -10.355   4.607  0.00  0.00    +0.015 A 
ATOM     18  C   UNL     1       1.667 -11.359   5.501  0.00  0.00    +0.032 A 
ATOM     19  C   UNL     1       1.767 -12.698   5.050  0.00  0.00    +0.114 A 
ATOM     20  N   UNL     1       1.903 -13.860   5.649  0.00  0.00    -0.078 NA
ATOM     21  O   UNL     1       1.943 -14.883   4.674  0.00  0.00    -0.353 OA
BRANCH  13  25
ATOM     22  C   UNL     1       1.854 -16.473  -0.223  0.00  0.00    +0.000 A 
ATOM     23  C   UNL     1       2.474 -15.239  -0.139  0.00  0.00    +0.001 A 
ATOM     24  C   UNL     1       2.474 -14.542   1.051  0.00  0.00    +0.011 A 
ATOM     25  C   UNL     1       1.844 -15.085   2.175  0.00  0.00    +0.021 A 
ATOM     26  C   UNL     1       1.219 -16.333   2.082  0.00  0.00    +0.011 A 
ATOM     27  C   UNL     1       1.229 -17.018   0.885  0.00  0.00    +0.001 A 
ENDBRANCH  13  25
ENDBRANCH   1  16
BRANCH  12  28
ATOM     28  C   UNL     1       0.800  -7.582   0.436  0.00  0.00    +0.231 C 
ATOM     29  O   UNL     1       0.518  -6.402   0.458  0.00  0.00    -0.274 OA
ATOM     30  N   UNL     1      -0.176  -8.506   0.335  0.00  0.00    -0.328 N 
ATOM     31  H   UNL     1       0.050  -9.449   0.318  0.00  0.00    +0.145 HD
ATOM     32  H   UNL     1      -1.103  -8.228   0.279  0.00  0.00    +0.145 HD
ENDBRANCH  12  28
TORSDOF 3
