REMARK  Name = ZINC38634774
REMARK  3 active torsions:
REMARK  status: ('A' for Active; 'I' for Inactive)
REMARK    1  A    between atoms: C_3  and  S_6
REMARK    2  A    between atoms: S_6  and  N_9
REMARK    3  A    between atoms: N_21  and  C_22
REMARK                            x       y       z     vdW  Elec       q    Type
REMARK                         _______ _______ _______ _____ _____    ______ ____
ROOT
ATOM      1  N   UNL     1       3.818   2.202   1.153  0.00  0.00    -0.143 NA
ATOM      2  C   UNL     1       3.678   3.502   1.847  0.00  0.00    +0.140 C 
ATOM      3  C   UNL     1       4.623   3.342   3.065  0.00  0.00    +0.179 C 
ATOM      4  O   UNL     1       5.710   2.563   2.514  0.00  0.00    -0.356 OA
ATOM      5  C   UNL     1       5.093   1.630   1.613  0.00  0.00    +0.145 C 
ATOM      6  C   UNL     1       6.014   1.395   0.415  0.00  0.00    +0.072 C 
ATOM      7  C   UNL     1       5.339   0.425  -0.561  0.00  0.00    +0.113 C 
ATOM      8  N   UNL     1       4.965  -0.794   0.167  0.00  0.00    -0.285 N 
ATOM      9  C   UNL     1       4.146  -0.669   1.381  0.00  0.00    +0.113 C 
ATOM     10  C   UNL     1       4.831   0.310   2.339  0.00  0.00    +0.072 C 
ATOM     11  C   UNL     1       5.364  -2.005  -0.270  0.00  0.00    +0.306 C 
ATOM     12  O   UNL     1       6.168  -2.089  -1.178  0.00  0.00    -0.252 OA
ATOM     13  N   UNL     1       4.872  -3.123   0.299  0.00  0.00    -0.269 N 
ATOM     14  H   UNL     1       4.306  -3.059   1.084  0.00  0.00    +0.156 HD
ENDROOT
BRANCH  13  15
ATOM     15  C   UNL     1       5.178  -4.377  -0.242  0.00  0.00    +0.036 A 
ATOM     16  C   UNL     1       6.428  -4.607  -0.801  0.00  0.00    +0.025 A 
ATOM     17  C   UNL     1       6.729  -5.845  -1.335  0.00  0.00    +0.023 A 
ATOM     18  C   UNL     1       5.785  -6.857  -1.313  0.00  0.00    +0.059 A 
ATOM     19  C   UNL     1       4.537  -6.631  -0.756  0.00  0.00    +0.061 A 
ATOM     20  C   UNL     1       4.234  -5.395  -0.215  0.00  0.00    +0.044 A 
ATOM     21 CL   UNL     1       3.356  -7.902  -0.731  0.00  0.00    -0.082 Cl
ATOM     22 CL   UNL     1       6.165  -8.411  -1.986  0.00  0.00    -0.082 Cl
ENDBRANCH  13  15
BRANCH   1  23
ATOM     23  S   UNL     1       2.753   1.526   0.080  0.00  0.00    +0.070 S 
ATOM     24  O   UNL     1       3.285   0.258  -0.275  0.00  0.00    -0.152 OA
ATOM     25  O   UNL     1       2.459   2.527  -0.885  0.00  0.00    -0.152 OA
BRANCH  23  28
ATOM     26  C   UNL     1      -0.858   1.596   1.933  0.00  0.00    +0.010 A 
ATOM     27  C   UNL     1       0.229   2.062   1.218  0.00  0.00    +0.036 A 
ATOM     28  C   UNL     1       1.256   1.217   0.958  0.00  0.00    +0.143 A 
ATOM     29  S   UNL     1       0.699  -0.291   1.734  0.00  0.00    -0.077 S 
ATOM     30  C   UNL     1      -0.865   0.307   2.353  0.00  0.00    +0.047 A 
ENDBRANCH  23  28
ENDBRANCH   1  23
TORSDOF 3
