REMARK  Name = ZINC67120815
REMARK  9 active torsions:
REMARK  status: ('A' for Active; 'I' for Inactive)
REMARK    1  A    between atoms: C_1  and  C_2
REMARK    2  A    between atoms: C_3  and  C_9
REMARK    3  A    between atoms: C_4  and  C_8
REMARK    4  A    between atoms: N_5  and  C_7
REMARK    5  A    between atoms: C_9  and  N_10
REMARK    6  A    between atoms: N_10  and  C_11
REMARK    7  A    between atoms: C_11  and  C_12
REMARK    8  A    between atoms: C_20  and  C_27
REMARK    9  A    between atoms: C_23  and  C_26
REMARK                            x       y       z     vdW  Elec       q    Type
REMARK                         _______ _______ _______ _____ _____    ______ ____
ROOT
ATOM      1  C   UNL     1       2.829   0.461  -4.880  0.00  0.00    -0.018 A 
ATOM      2  C   UNL     1       3.489   1.667  -4.685  0.00  0.00    +0.009 A 
ATOM      3  C   UNL     1       4.800   1.778  -5.110  0.00  0.00    +0.042 A 
ATOM      4  C   UNL     1       5.410   0.683  -5.715  0.00  0.00    +0.099 A 
ATOM      5  N   UNL     1       4.747  -0.450  -5.883  0.00  0.00    -0.349 N 
ATOM      6  C   UNL     1       3.497  -0.586  -5.482  0.00  0.00    +0.089 A 
ATOM      7  N   UNL     1       6.728   0.780  -6.147  0.00  0.00    -0.312 N 
ATOM      8  C   UNL     1       7.441  -0.394  -6.675  0.00  0.00    +0.137 C 
ATOM      9  C   UNL     1       8.070  -0.013  -8.020  0.00  0.00    +0.133 C 
ATOM     10  O   UNL     1       8.842   1.179  -7.858  0.00  0.00    -0.371 OA
ATOM     11  C   UNL     1       8.079   2.322  -7.465  0.00  0.00    +0.133 C 
ATOM     12  C   UNL     1       7.449   2.062  -6.096  0.00  0.00    +0.137 C 
ATOM     13  C   UNL     1       8.995   3.545  -7.385  0.00  0.00    +0.039 C 
ATOM     14  C   UNL     1       6.965   0.229  -9.050  0.00  0.00    +0.039 C 
ATOM     15  H   UNL     1       5.192  -1.200  -6.308  0.00  0.00    +0.167 HD
ENDROOT
BRANCH   1  16
ATOM     16  C   UNL     1       1.399   0.295  -4.433  0.00  0.00    +0.118 C 
BRANCH  16  17
ATOM     17  N   UNL     1       1.373  -0.193  -3.048  0.00  0.00    -0.308 NA
ATOM     18  H   UNL     1       1.888   0.423  -2.437  0.00  0.00    +0.123 HD
BRANCH  17  19
ATOM     19  C   UNL     1      -0.008  -0.367  -2.577  0.00  0.00    +0.120 C 
BRANCH  19  22
ATOM     20  C   UNL     1      -0.006   1.432   0.031  0.00  0.00    +0.068 C 
ATOM     21  C   UNL     1       0.005  -0.074  -0.004  0.00  0.00    +0.065 A 
ATOM     22  C   UNL     1       0.005  -0.868  -1.155  0.00  0.00    +0.010 A 
ATOM     23  C   UNL     1       0.018  -2.164  -0.768  0.00  0.00    +0.040 A 
ATOM     24  N   UNL     1       0.026  -2.190   0.581  0.00  0.00    -0.271 N 
ATOM     25  N   UNL     1       0.023  -0.866   1.038  0.00  0.00    -0.176 NA
ATOM     26  C   UNL     1       0.041  -3.391   1.420  0.00  0.00    +0.172 C 
ATOM     27  C   UNL     1       0.022  -3.364  -1.680  0.00  0.00    +0.065 C 
ENDBRANCH  19  22
ENDBRANCH  17  19
ENDBRANCH  16  17
ENDBRANCH   1  16
TORSDOF 4
