REMARK  Name = ZINC34944460
REMARK  16 active torsions:
REMARK  status: ('A' for Active; 'I' for Inactive)
REMARK    1  A    between atoms: C_1  and  C_2
REMARK    2  A    between atoms: C_2  and  C_3
REMARK    3  A    between atoms: C_3  and  C_5
REMARK    4  A    between atoms: C_3  and  N_6
REMARK    5  A    between atoms: N_6  and  C_7
REMARK    6  A    between atoms: C_7  and  C_8
REMARK    7  A    between atoms: C_8  and  C_9
REMARK    8  A    between atoms: N_11  and  C_12
REMARK    9  A    between atoms: N_11  and  C_20
REMARK   10  A    between atoms: C_12  and  C_13
REMARK   11  A    between atoms: C_13  and  C_14
REMARK   12  A    between atoms: C_20  and  C_21
REMARK   13  A    between atoms: N_29  and  C_30
REMARK   14  A    between atoms: C_33  and  C_36
REMARK   15  A    between atoms: C_36  and  C_37
REMARK   16  A    between atoms: C_36  and  C_38
REMARK                            x       y       z     vdW  Elec       q    Type
REMARK                         _______ _______ _______ _____ _____    ______ ____
ROOT
ATOM      1  C   UNL     1      -4.689  -0.064  -1.006  0.00  0.00    +0.119 C 
ENDROOT
BRANCH   1   2
ATOM      2  N   UNL     1      -3.365  -0.689  -1.074  0.00  0.00    -0.282 N 
ATOM      3  C   UNL     1      -3.056  -1.502  -2.103  0.00  0.00    +0.307 C 
ATOM      4  O   UNL     1      -3.903  -1.792  -2.925  0.00  0.00    -0.252 OA
ATOM      5  N   UNL     1      -1.807  -1.994  -2.220  0.00  0.00    -0.269 N 
ATOM      6  H   UNL     1      -1.157  -1.841  -1.517  0.00  0.00    +0.156 HD
BRANCH   5   7
ATOM      7  C   UNL     1      -1.447  -2.727  -3.357  0.00  0.00    +0.035 A 
ATOM      8  C   UNL     1      -2.001  -2.412  -4.591  0.00  0.00    +0.023 A 
ATOM      9  C   UNL     1      -1.644  -3.136  -5.712  0.00  0.00    +0.006 A 
ATOM     10  C   UNL     1      -0.736  -4.174  -5.606  0.00  0.00    -0.045 A 
ATOM     11  C   UNL     1      -0.183  -4.490  -4.378  0.00  0.00    +0.006 A 
ATOM     12  C   UNL     1      -0.531  -3.766  -3.255  0.00  0.00    +0.023 A 
BRANCH  10  13
ATOM     13  C   UNL     1      -0.348  -4.962  -6.830  0.00  0.00    +0.013 C 
ATOM     14  C   UNL     1       1.159  -4.838  -7.061  0.00  0.00    +0.012 C 
ATOM     15  C   UNL     1      -0.714  -6.433  -6.627  0.00  0.00    +0.012 C 
ENDBRANCH  10  13
ENDBRANCH   5   7
BRANCH   2  16
ATOM     16  C   UNL     1      -2.378  -0.428  -0.023  0.00  0.00    +0.074 C 
ATOM     17  C   UNL     1      -2.176   1.081   0.124  0.00  0.00    +0.028 C 
BRANCH  16  19
ATOM     18  C   UNL     1      -2.940  -2.533   1.200  0.00  0.00    +0.006 C 
ATOM     19  C   UNL     1      -2.879  -1.008   1.302  0.00  0.00    +0.019 C 
ENDBRANCH  16  19
ENDBRANCH   2  16
ENDBRANCH   1   2
BRANCH   1  20
ATOM     20  C   UNL     1      -4.654   1.284  -1.728  0.00  0.00    +0.115 C 
BRANCH  20  21
ATOM     21  C   UNL     1      -6.016   1.926  -1.659  0.00  0.00    +0.217 C 
ATOM     22  O   UNL     1      -6.905   1.396  -1.026  0.00  0.00    -0.276 OA
ATOM     23  N   UNL     1      -6.246   3.090  -2.300  0.00  0.00    -0.297 N 
BRANCH  23  24
ATOM     24  C   UNL     1      -7.524   3.783  -2.123  0.00  0.00    +0.113 C 
BRANCH  24  25
ATOM     25  C   UNL     1      -7.421   4.750  -0.941  0.00  0.00    +0.054 C 
BRANCH  25  26
ATOM     26  C   UNL     1      -8.736   5.463  -0.759  0.00  0.00    -0.046 A 
ATOM     27  C   UNL     1      -8.974   6.653  -1.421  0.00  0.00    +0.004 A 
ATOM     28  C   UNL     1     -10.180   7.308  -1.254  0.00  0.00    +0.000 A 
ATOM     29  C   UNL     1     -11.148   6.771  -0.426  0.00  0.00    +0.000 A 
ATOM     30  C   UNL     1     -10.911   5.581   0.235  0.00  0.00    +0.000 A 
ATOM     31  C   UNL     1      -9.706   4.924   0.065  0.00  0.00    +0.004 A 
ENDBRANCH  25  26
ENDBRANCH  24  25
ENDBRANCH  23  24
BRANCH  23  32
ATOM     32  C   UNL     1      -5.218   3.660  -3.173  0.00  0.00    +0.142 C 
BRANCH  32  33
ATOM     33  C   UNL     1      -5.507   3.283  -4.603  0.00  0.00    -0.030 A 
ATOM     34  C   UNL     1      -4.996   2.110  -5.125  0.00  0.00    +0.005 A 
ATOM     35  C   UNL     1      -5.261   1.764  -6.437  0.00  0.00    +0.000 A 
ATOM     36  C   UNL     1      -6.038   2.590  -7.226  0.00  0.00    +0.000 A 
ATOM     37  C   UNL     1      -6.551   3.763  -6.704  0.00  0.00    +0.000 A 
ATOM     38  C   UNL     1      -6.289   4.107  -5.391  0.00  0.00    +0.005 A 
ENDBRANCH  32  33
ENDBRANCH  23  32
ENDBRANCH  20  21
ENDBRANCH   1  20
TORSDOF 12
