REMARK  Name = ZINC63328748
REMARK  6 active torsions:
REMARK  status: ('A' for Active; 'I' for Inactive)
REMARK    1  A    between atoms: C_1  and  C_2
REMARK    2  A    between atoms: C_2  and  C_4
REMARK    3  A    between atoms: C_2  and  N_14
REMARK    4  A    between atoms: C_4  and  C_5
REMARK    5  A    between atoms: C_15  and  C_17
REMARK    6  A    between atoms: C_25  and  C_27
REMARK                            x       y       z     vdW  Elec       q    Type
REMARK                         _______ _______ _______ _____ _____    ______ ____
ROOT
ATOM      1  N   UNL     1       0.711  -0.489   1.189  0.00  0.00    -0.308 N 
ATOM      2  C   UNL     1       0.051  -0.633   2.355  0.00  0.00    +0.244 C 
ATOM      3  O   UNL     1      -1.132  -0.361   2.423  0.00  0.00    -0.270 OA
ATOM      4  H   UNL     1       1.654  -0.707   1.135  0.00  0.00    +0.149 HD
ENDROOT
BRANCH   2   5
ATOM      5  C   UNL     1       0.765  -1.122   3.551  0.00  0.00    +0.039 A 
ATOM      6  C   UNL     1       2.130  -1.431   3.474  0.00  0.00    +0.015 A 
ATOM      7  C   UNL     1       2.801  -1.883   4.569  0.00  0.00    +0.030 A 
ATOM      8  C   UNL     1       2.128  -2.043   5.787  0.00  0.00    +0.089 A 
ATOM      9  C   UNL     1       0.758  -1.735   5.872  0.00  0.00    +0.067 A 
ATOM     10  C   UNL     1       0.082  -1.271   4.757  0.00  0.00    +0.040 A 
ATOM     11  N   UNL     1       0.390  -1.992   7.179  0.00  0.00    -0.335 N 
ATOM     12  H   UNL     1      -0.494  -1.880   7.561  0.00  0.00    +0.167 HD
ATOM     13  C   UNL     1       1.498  -2.432   7.831  0.00  0.00    +0.213 A 
ATOM     14  N   UNL     1       2.515  -2.462   7.017  0.00  0.00    -0.224 NA
BRANCH  13  15
ATOM     15  C   UNL     1       1.545  -2.828   9.284  0.00  0.00    +0.450 C 
ATOM     16  F   UNL     1       2.877  -2.898   9.706  0.00  0.00    -0.163 F 
ATOM     17  F   UNL     1       0.864  -1.874  10.049  0.00  0.00    -0.163 F 
ATOM     18  F   UNL     1       0.938  -4.077   9.447  0.00  0.00    -0.163 F 
ENDBRANCH  13  15
ENDBRANCH   2   5
BRANCH   1  20
ATOM     19  C   UNL     1      -0.019   1.526   0.010  0.00  0.00    +0.028 C 
ATOM     20  C   UNL     1       0.002  -0.004   0.002  0.00  0.00    +0.074 C 
BRANCH  20  21
ATOM     21  C   UNL     1       0.718  -0.497  -1.257  0.00  0.00    +0.055 C 
BRANCH  21  22
ATOM     22  C   UNL     1       0.632  -2.000  -1.327  0.00  0.00    -0.040 C 
ATOM     23  C   UNL     1      -0.283  -2.731  -2.005  0.00  0.00    -0.001 A 
ATOM     24  C   UNL     1      -1.427  -2.360  -2.845  0.00  0.00    +0.010 A 
ATOM     25  C   UNL     1      -2.177  -3.338  -3.402  0.00  0.00    +0.001 A 
ATOM     26  C   UNL     1      -1.890  -4.695  -3.196  0.00  0.00    +0.002 A 
ATOM     27  C   UNL     1      -0.855  -5.114  -2.437  0.00  0.00    +0.026 A 
ATOM     28  C   UNL     1       0.000  -4.170  -1.804  0.00  0.00    +0.043 A 
ATOM     29  N   UNL     1       1.049  -4.323  -1.032  0.00  0.00    -0.380 N 
ATOM     30  C   UNL     1       1.554  -2.997  -0.661  0.00  0.00    +0.144 C 
ATOM     31  H   UNL     1       1.429  -5.171  -0.756  0.00  0.00    +0.160 HD
ENDBRANCH  21  22
ENDBRANCH  20  21
ENDBRANCH   1  20
TORSDOF 5
