REMARK  Name = ZINC02341117
REMARK  11 active torsions:
REMARK  status: ('A' for Active; 'I' for Inactive)
REMARK    1  A    between atoms: C_1  and  C_2
REMARK    2  A    between atoms: C_2  and  C_3
REMARK    3  A    between atoms: C_3  and  O_4
REMARK    4  A    between atoms: O_4  and  C_5
REMARK    5  A    between atoms: C_8  and  C_13
REMARK    6  A    between atoms: C_10  and  O_11
REMARK    7  A    between atoms: O_11  and  C_12
REMARK    8  A    between atoms: C_16  and  C_32
REMARK    9  A    between atoms: N_18  and  C_26
REMARK   10  A    between atoms: C_21  and  N_25
REMARK   11  A    between atoms: C_22  and  C_23
REMARK                            x       y       z     vdW  Elec       q    Type
REMARK                         _______ _______ _______ _____ _____    ______ ____
ROOT
ATOM      1  C   UNL     1       5.886   0.660  -0.968  0.00  0.00    +0.101 C 
ATOM      2  C   UNL     1       4.488   0.556  -0.413  0.00  0.00    +0.050 A 
ATOM      3  C   UNL     1       3.930  -0.435   0.384  0.00  0.00    +0.068 A 
ATOM      4  N   UNL     1       2.683  -0.110   0.632  0.00  0.00    -0.168 NA
ATOM      5  N   UNL     1       2.404   1.105  -0.015  0.00  0.00    -0.200 N 
ATOM      6  C   UNL     1       3.529   1.501  -0.649  0.00  0.00    +0.230 A 
ATOM      7  O   UNL     1       3.759   2.607  -1.398  0.00  0.00    -0.423 OA
ATOM      8  C   UNL     1       5.041   2.908  -1.691  0.00  0.00    +0.200 C 
ATOM      9  C   UNL     1       6.073   2.053  -1.514  0.00  0.00    +0.098 C 
ATOM     10  C   UNL     1       4.637  -1.669   0.884  0.00  0.00    +0.068 C 
ENDROOT
BRANCH   1  14
ATOM     11  C   UNL     1       6.404  -2.199  -4.106  0.00  0.00    +0.162 A 
ATOM     12  C   UNL     1       5.411  -1.237  -4.199  0.00  0.00    +0.050 A 
ATOM     13  C   UNL     1       5.242  -0.318  -3.180  0.00  0.00    +0.008 A 
ATOM     14  C   UNL     1       6.070  -0.348  -2.073  0.00  0.00    -0.031 A 
ATOM     15  C   UNL     1       7.063  -1.306  -1.974  0.00  0.00    +0.054 A 
ATOM     16  C   UNL     1       7.233  -2.233  -2.989  0.00  0.00    +0.162 A 
BRANCH  16  17
ATOM     17  O   UNL     1       8.209  -3.176  -2.894  0.00  0.00    -0.491 OA
ATOM     18  C   UNL     1       9.022  -3.151  -1.719  0.00  0.00    +0.277 C 
ENDBRANCH  16  17
BRANCH  11  19
ATOM     19  O   UNL     1       6.568  -3.107  -5.105  0.00  0.00    -0.488 OA
BRANCH  19  20
ATOM     20  C   UNL     1       5.680  -3.012  -6.221  0.00  0.00    +0.229 C 
BRANCH  20  22
ATOM     21  C   UNL     1       5.065  -4.006  -8.429  0.00  0.00    +0.007 C 
ATOM     22  C   UNL     1       6.015  -4.109  -7.234  0.00  0.00    +0.038 C 
ENDBRANCH  20  22
ENDBRANCH  19  20
ENDBRANCH  11  19
ENDBRANCH   1  14
BRANCH   5  23
ATOM     23  C   UNL     1       1.180   1.787   0.000  0.00  0.00    +0.069 A 
ATOM     24  C   UNL     1      -0.013   1.076   0.008  0.00  0.00    +0.028 A 
ATOM     25  C   UNL     1      -1.218   1.751   0.017  0.00  0.00    +0.002 A 
ATOM     26  C   UNL     1      -1.237   3.133   0.031  0.00  0.00    +0.000 A 
ATOM     27  C   UNL     1      -0.051   3.845   0.023  0.00  0.00    +0.002 A 
ATOM     28  C   UNL     1       1.157   3.175   0.008  0.00  0.00    +0.028 A 
ENDBRANCH   5  23
BRANCH   8  29
ATOM     29  N   UNL     1       5.313   4.153  -2.199  0.00  0.00    -0.328 N 
ATOM     30  H   UNL     1       4.593   4.789  -2.338  0.00  0.00    +0.145 HD
ATOM     31  H   UNL     1       6.225   4.399  -2.420  0.00  0.00    +0.145 HD
ENDBRANCH   8  29
BRANCH   9  32
ATOM     32  C   UNL     1       7.394   2.487  -1.858  0.00  0.00    +0.101 C 
ATOM     33  N   UNL     1       8.441   2.831  -2.130  0.00  0.00    -0.191 NA
ENDBRANCH   9  32
TORSDOF 8
