REMARK  Name = ZINC19831634
REMARK  4 active torsions:
REMARK  status: ('A' for Active; 'I' for Inactive)
REMARK    1  A    between atoms: C_1  and  N_2
REMARK    2  A    between atoms: N_2  and  C_3
REMARK    3  A    between atoms: N_2  and  C_4
REMARK    4  A    between atoms: C_10  and  C_12
REMARK                            x       y       z     vdW  Elec       q    Type
REMARK                         _______ _______ _______ _____ _____    ______ ____
ROOT
ATOM      1  C   UNL     1      -0.614   1.658  -2.679  0.00  0.00    +0.285 C 
ATOM      2  N   UNL     1      -0.673   1.461  -1.231  0.00  0.00    -0.148 N 
ATOM      3  C   UNL     1      -1.628   2.320  -0.708  0.00  0.00    +0.171 C 
ATOM      4  N   UNL     1      -2.163   3.026  -1.682  0.00  0.00    -0.157 NA
ATOM      5  N   UNL     1      -1.620   2.705  -2.927  0.00  0.00    -0.151 N 
ATOM      6  C   UNL     1      -1.950   3.244  -4.117  0.00  0.00    +0.270 C 
ATOM      7  O   UNL     1      -1.328   2.939  -5.117  0.00  0.00    -0.268 OA
ATOM      8  C   UNL     1      -1.808   2.240   0.766  0.00  0.00    +0.045 A 
ATOM      9  C   UNL     1      -2.688   2.973   1.582  0.00  0.00    +0.013 A 
ATOM     10  C   UNL     1      -2.712   2.758   2.941  0.00  0.00    +0.001 A 
ATOM     11  C   UNL     1      -1.878   1.823   3.528  0.00  0.00    +0.002 A 
ATOM     12  C   UNL     1      -1.004   1.093   2.737  0.00  0.00    +0.029 A 
ATOM     13  C   UNL     1      -0.978   1.303   1.386  0.00  0.00    +0.119 A 
ATOM     14  S   UNL     1      -0.043   0.607   0.052  0.00  0.00    +0.079 S 
ATOM     15  O   UNL     1      -0.443  -0.749  -0.094  0.00  0.00    -0.150 OA
ATOM     16  O   UNL     1       1.310   1.010   0.216  0.00  0.00    -0.150 OA
ENDROOT
BRANCH   6  17
ATOM     17  C   UNL     1      -3.069   4.205  -4.208  0.00  0.00    +0.053 A 
ATOM     18  C   UNL     1      -3.703   4.655  -3.048  0.00  0.00    +0.014 A 
ATOM     19  C   UNL     1      -4.743   5.556  -3.140  0.00  0.00    +0.001 A 
ATOM     20  C   UNL     1      -5.167   6.006  -4.378  0.00  0.00    +0.001 A 
ATOM     21  C   UNL     1      -4.548   5.560  -5.532  0.00  0.00    +0.016 A 
ATOM     22  C   UNL     1      -3.502   4.662  -5.455  0.00  0.00    +0.030 A 
ATOM     23 BR   UNL     1      -2.657   4.053  -7.034  0.00  0.00    -0.050 Br
ENDBRANCH   6  17
BRANCH   1  25
ATOM     24  C   UNL     1      -2.384   0.080  -3.168  0.00  0.00    +0.108 C 
ATOM     25  N   UNL     1      -0.971   0.420  -3.384  0.00  0.00    -0.272 NA
ATOM     26  C   UNL     1      -0.667   0.524  -4.818  0.00  0.00    +0.108 C 
ENDBRANCH   1  25
TORSDOF 2
