REMARK  Name = ZINC40728032
REMARK  6 active torsions:
REMARK  status: ('A' for Active; 'I' for Inactive)
REMARK    1  A    between atoms: C_1  and  C_2
REMARK    2  A    between atoms: C_7  and  C_9
REMARK    3  A    between atoms: C_7  and  C_10
REMARK    4  A    between atoms: C_14  and  N_32
REMARK    5  A    between atoms: C_15  and  N_19
REMARK    6  A    between atoms: N_22  and  C_25
REMARK                            x       y       z     vdW  Elec       q    Type
REMARK                         _______ _______ _______ _____ _____    ______ ____
ROOT
ATOM      1  C   UNL     1      -0.644   1.020   0.733  0.00  0.00    +0.013 C 
ATOM      2  C   UNL     1      -0.545  -0.501   0.537  0.00  0.00    -0.014 C 
ATOM      3  C   UNL     1      -1.935  -1.158   0.310  0.00  0.00    +0.030 C 
ATOM      4  C   UNL     1      -1.486  -2.501  -0.320  0.00  0.00    +0.076 C 
ATOM      5  C   UNL     1      -0.942  -3.371   0.810  0.00  0.00    +0.029 C 
ATOM      6  C   UNL     1       0.175  -2.719   1.604  0.00  0.00    -0.033 C 
ATOM      7  C   UNL     1       0.105  -1.208   1.725  0.00  0.00    +0.014 C 
ATOM      8  C   UNL     1       0.111  -3.296   3.041  0.00  0.00    +0.011 C 
ATOM      9  C   UNL     1       1.535  -3.140   1.029  0.00  0.00    +0.011 C 
ATOM     10  N   UNL     1      -0.379  -2.141  -1.229  0.00  0.00    -0.310 N 
ATOM     11  C   UNL     1       0.210  -0.879  -0.757  0.00  0.00    +0.113 C 
ATOM     12  C   UNL     1       0.030  -2.864  -2.344  0.00  0.00    +0.147 A 
ATOM     13  C   UNL     1       1.012  -2.355  -3.197  0.00  0.00    +0.106 A 
ATOM     14  C   UNL     1       1.386  -3.121  -4.302  0.00  0.00    +0.147 A 
ATOM     15  N   UNL     1       0.797  -4.299  -4.499  0.00  0.00    -0.219 NA
ATOM     16  C   UNL     1      -0.125  -4.742  -3.669  0.00  0.00    +0.225 A 
ATOM     17  N   UNL     1      -0.503  -4.053  -2.612  0.00  0.00    -0.219 NA
ENDROOT
BRANCH  14  18
ATOM     18  N   UNL     1       2.357  -2.662  -5.183  0.00  0.00    -0.311 N 
ATOM     19  C   UNL     1       3.761  -3.071  -5.029  0.00  0.00    +0.125 C 
ATOM     20  C   UNL     1       4.237  -3.694  -6.347  0.00  0.00    +0.124 C 
ATOM     21  N   UNL     1       3.880  -2.791  -7.449  0.00  0.00    -0.327 N 
ATOM     22  C   UNL     1       2.477  -2.382  -7.604  0.00  0.00    +0.124 C 
ATOM     23  C   UNL     1       1.999  -1.763  -6.289  0.00  0.00    +0.125 C 
BRANCH  21  24
ATOM     24  C   UNL     1       4.856  -2.329  -8.335  0.00  0.00    +0.031 A 
ATOM     25  C   UNL     1       6.195  -2.626  -8.111  0.00  0.00    +0.023 A 
ATOM     26  C   UNL     1       7.158  -2.169  -8.989  0.00  0.00    +0.003 A 
ATOM     27  C   UNL     1       6.793  -1.415 -10.089  0.00  0.00    +0.020 A 
ATOM     28  C   UNL     1       5.460  -1.117 -10.315  0.00  0.00    +0.043 A 
ATOM     29  C   UNL     1       4.491  -1.577  -9.443  0.00  0.00    +0.043 A 
ATOM     30 CL   UNL     1       5.006  -0.170 -11.697  0.00  0.00    -0.083 Cl
ENDBRANCH  21  24
ENDBRANCH  14  18
BRANCH  13  31
ATOM     31  N   UNL     1       1.606  -1.106  -2.950  0.00  0.00    -0.353 N 
ATOM     32  H   UNL     1       1.399  -0.624  -2.135  0.00  0.00    +0.143 HD
ATOM     33  H   UNL     1       2.222  -0.727  -3.596  0.00  0.00    +0.143 HD
ENDBRANCH  13  31
TORSDOF 3
