REMARK  Name = ZINC08767045
REMARK  11 active torsions:
REMARK  status: ('A' for Active; 'I' for Inactive)
REMARK    1  A    between atoms: C_1  and  C_2
REMARK    2  A    between atoms: C_2  and  O_3
REMARK    3  A    between atoms: O_3  and  C_4
REMARK    4  A    between atoms: C_4  and  C_6
REMARK    5  A    between atoms: C_7  and  C_38
REMARK    6  A    between atoms: C_14  and  C_15
REMARK    7  A    between atoms: C_18  and  N_20
REMARK    8  A    between atoms: C_25  and  N_67
REMARK    9  A    between atoms: C_27  and  C_29
REMARK   10  A    between atoms: C_32  and  O_36
REMARK   11  A    between atoms: O_36  and  C_37
REMARK                            x       y       z     vdW  Elec       q    Type
REMARK                         _______ _______ _______ _____ _____    ______ ____
ROOT
ATOM      1  C   UNL     1      -2.830   1.352   1.554  0.00  0.00    +0.085 C 
ATOM      2  C   UNL     1      -4.163   1.534   1.797  0.00  0.00    +0.053 C 
ATOM      3  N   UNL     1      -4.988   1.873   0.816  0.00  0.00    -0.228 NA
ATOM      4  C   UNL     1      -4.630   2.059  -0.431  0.00  0.00    +0.178 A 
ATOM      5  N   UNL     1      -3.340   1.926  -0.888  0.00  0.00    -0.275 N 
ATOM      6  C   UNL     1      -3.104   2.145  -2.188  0.00  0.00    +0.268 A 
ATOM      7  O   UNL     1      -1.980   2.042  -2.647  0.00  0.00    -0.266 OA
ATOM      8  C   UNL     1      -4.199   2.499  -3.014  0.00  0.00    +0.084 A 
ATOM      9  C   UNL     1      -4.221   2.773  -4.366  0.00  0.00    +0.067 C 
ATOM     10  S   UNL     1      -5.540   2.497  -1.838  0.00  0.00    -0.046 S 
ATOM     11  C   UNL     1      -2.332   1.547   0.140  0.00  0.00    +0.162 C 
ATOM     12  C   UNL     1      -4.700   1.349   3.193  0.00  0.00    +0.066 C 
ENDROOT
BRANCH  11  13
ATOM     13  C   UNL     1      -1.271   2.616   0.166  0.00  0.00    -0.019 A 
ATOM     14  C   UNL     1       0.065   2.263   0.227  0.00  0.00    +0.009 A 
ATOM     15  C   UNL     1       1.040   3.241   0.246  0.00  0.00    +0.047 A 
ATOM     16  C   UNL     1       0.678   4.580   0.208  0.00  0.00    +0.134 A 
ATOM     17  C   UNL     1      -0.663   4.933   0.152  0.00  0.00    +0.060 A 
ATOM     18  C   UNL     1      -1.634   3.950   0.134  0.00  0.00    +0.025 A 
ATOM     19 BR   UNL     1      -1.160   6.757   0.101  0.00  0.00    -0.047 Br
BRANCH  16  20
ATOM     20  O   UNL     1       1.636   5.544   0.226  0.00  0.00    -0.494 OA
ATOM     21  C   UNL     1       2.996   5.107   0.284  0.00  0.00    +0.277 C 
ENDBRANCH  16  20
ENDBRANCH  11  13
BRANCH   9  22
ATOM     22  C   UNL     1      -3.075   2.545  -5.148  0.00  0.00    +0.131 A 
ATOM     23  C   UNL     1      -2.912   2.900  -6.478  0.00  0.00    +0.051 A 
ATOM     24  C   UNL     1      -1.630   2.487  -6.848  0.00  0.00    +0.066 A 
ATOM     25  C   UNL     1      -1.065   1.896  -5.755  0.00  0.00    +0.189 A 
ATOM     26  O   UNL     1      -1.940   1.935  -4.739  0.00  0.00    -0.442 OA
BRANCH  25  27
ATOM     27  N   UNL     1       0.201   1.347  -5.704  0.00  0.00    -0.305 N 
ATOM     28  C   UNL     1       0.371   0.320  -6.742  0.00  0.00    +0.089 C 
ATOM     29  C   UNL     1       1.808  -0.206  -6.703  0.00  0.00    -0.060 C 
ATOM     30  C   UNL     1       1.919   0.270  -4.333  0.00  0.00    -0.060 C 
ATOM     31  C   UNL     1       0.483   0.796  -4.371  0.00  0.00    +0.089 C 
ATOM     32  C   UNL     1       3.437  -1.341  -5.316  0.00  0.00    -0.096 C 
ATOM     33  N   UNL     1       2.071  -0.777  -5.365  0.00  0.00    +0.380 N 
ATOM     34  H   UNL     1       1.394  -1.526  -5.183  0.00  0.00    -0.082 HD
ENDBRANCH  25  27
ENDBRANCH   9  22
BRANCH   1  35
ATOM     35  C   UNL     1      -1.951   0.994   2.587  0.00  0.00    +0.339 C 
ATOM     36  O   UNL     1      -2.372   0.841   3.720  0.00  0.00    -0.245 OA
BRANCH  35  37
ATOM     37  O   UNL     1      -0.637   0.818   2.325  0.00  0.00    -0.462 OA
BRANCH  37  39
ATOM     38  C   UNL     1       1.643   0.302   2.938  0.00  0.00    +0.048 C 
ATOM     39  C   UNL     1       0.201   0.455   3.425  0.00  0.00    +0.229 C 
ENDBRANCH  37  39
ENDBRANCH  35  37
ENDBRANCH   1  35
TORSDOF 7
