REMARK  Name = ZINC33063463
REMARK  7 active torsions:
REMARK  status: ('A' for Active; 'I' for Inactive)
REMARK    1  A    between atoms: C_4  and  C_7
REMARK    2  A    between atoms: C_8  and  S_9
REMARK    3  A    between atoms: S_9  and  N_12
REMARK    4  A    between atoms: N_12  and  C_13
REMARK    5  A    between atoms: C_16  and  C_19
REMARK    6  A    between atoms: N_21  and  C_22
REMARK    7  A    between atoms: C_26  and  C_28
REMARK                            x       y       z     vdW  Elec       q    Type
REMARK                         _______ _______ _______ _____ _____    ______ ____
ROOT
ATOM      1  C   UNL     1       6.508  -4.454   1.635  0.00  0.00    +0.074 A 
ATOM      2  C   UNL     1       7.532  -4.533   0.695  0.00  0.00    +0.027 A 
ATOM      3  C   UNL     1       8.643  -5.305   0.950  0.00  0.00    +0.015 A 
ATOM      4  C   UNL     1       8.742  -6.009   2.153  0.00  0.00    +0.037 A 
ATOM      5  C   UNL     1       7.712  -5.927   3.095  0.00  0.00    +0.015 A 
ATOM      6  C   UNL     1       6.606  -5.150   2.837  0.00  0.00    +0.027 A 
ENDROOT
BRANCH   4   7
ATOM      7  C   UNL     1       9.931  -6.838   2.429  0.00  0.00    +0.248 C 
ATOM      8  O   UNL     1      10.826  -6.908   1.609  0.00  0.00    -0.270 OA
ATOM      9  N   UNL     1      10.025  -7.516   3.589  0.00  0.00    -0.281 N 
ATOM     10  H   UNL     1       9.344  -7.407   4.272  0.00  0.00    +0.155 HD
BRANCH   9  11
ATOM     11  C   UNL     1      11.106  -8.378   3.811  0.00  0.00    +0.035 A 
ATOM     12  C   UNL     1      12.363  -8.057   3.311  0.00  0.00    +0.026 A 
ATOM     13  C   UNL     1      13.434  -8.903   3.526  0.00  0.00    +0.041 A 
ATOM     14  C   UNL     1      13.262 -10.076   4.239  0.00  0.00    +0.136 A 
ATOM     15  C   UNL     1      12.002 -10.406   4.745  0.00  0.00    +0.073 A 
ATOM     16  C   UNL     1      10.923  -9.546   4.531  0.00  0.00    +0.039 A 
ATOM     17  F   UNL     1      14.312 -10.901   4.446  0.00  0.00    -0.205 F 
BRANCH  15  18
ATOM     18  C   UNL     1      11.813 -11.657   5.508  0.00  0.00    +0.244 C 
ATOM     19  O   UNL     1      12.755 -12.402   5.696  0.00  0.00    -0.270 OA
ATOM     20  N   UNL     1      10.597 -11.972   5.995  0.00  0.00    -0.325 N 
ATOM     21  H   UNL     1       9.845 -11.378   5.844  0.00  0.00    +0.145 HD
ATOM     22  H   UNL     1      10.473 -12.794   6.495  0.00  0.00    +0.145 HD
ENDBRANCH  15  18
ENDBRANCH   9  11
ENDBRANCH   4   7
BRANCH   1  23
ATOM     23  N   UNL     1       5.386  -3.674   1.375  0.00  0.00    -0.098 NA
BRANCH  23  24
ATOM     24  S   UNL     1       5.267  -2.846  -0.054  0.00  0.00    +0.085 S 
ATOM     25  O   UNL     1       5.167  -3.821  -1.082  0.00  0.00    -0.149 OA
ATOM     26  O   UNL     1       6.290  -1.859  -0.038  0.00  0.00    -0.149 OA
BRANCH  24  28
ATOM     27  C   UNL     1       3.719  -0.655  -0.024  0.00  0.00    +0.028 C 
ATOM     28  C   UNL     1       3.733  -1.980  -0.029  0.00  0.00    +0.159 C 
BRANCH  27  32
ATOM     29  C   UNL     1       0.019   1.430   0.036  0.00  0.00    +0.000 A 
ATOM     30  C   UNL     1       1.208   2.137   0.023  0.00  0.00    +0.001 A 
ATOM     31  C   UNL     1       2.413   1.466   0.003  0.00  0.00    +0.008 A 
ATOM     32  C   UNL     1       2.431   0.071  -0.002  0.00  0.00    -0.024 A 
ATOM     33  C   UNL     1       1.228  -0.636   0.012  0.00  0.00    +0.008 A 
ATOM     34  C   UNL     1       0.030   0.047   0.031  0.00  0.00    +0.001 A 
ENDBRANCH  27  32
ENDBRANCH  24  28
ENDBRANCH  23  24
ENDBRANCH   1  23
TORSDOF 7
