REMARK  Name = ZINC09673029
REMARK  3 active torsions:
REMARK  status: ('A' for Active; 'I' for Inactive)
REMARK    1  A    between atoms: C_6  and  C_7
REMARK    2  A    between atoms: C_7  and  N_8
REMARK    3  A    between atoms: C_11  and  C_19
REMARK                            x       y       z     vdW  Elec       q    Type
REMARK                         _______ _______ _______ _____ _____    ______ ____
ROOT
ATOM      1  N   UNL     1       2.298   3.711   0.927  0.00  0.00    -0.265 N 
ATOM      2  C   UNL     1       1.152   3.075   0.456  0.00  0.00    +0.051 A 
ATOM      3  C   UNL     1      -0.062   3.741   0.502  0.00  0.00    +0.037 A 
ATOM      4  C   UNL     1      -1.223   3.115   0.041  0.00  0.00    +0.039 A 
ATOM      5  C   UNL     1      -1.163   1.818  -0.475  0.00  0.00    +0.014 A 
ATOM      6  C   UNL     1       0.043   1.154  -0.519  0.00  0.00    +0.017 A 
ATOM      7  C   UNL     1       1.197   1.776  -0.061  0.00  0.00    +0.030 A 
ATOM      8  S   UNL     1       2.746   0.932  -0.126  0.00  0.00    -0.114 S 
ATOM      9  C   UNL     1       3.930   2.297  -0.332  0.00  0.00    +0.170 C 
ATOM     10  C   UNL     1       3.554   3.410   0.606  0.00  0.00    +0.230 C 
ATOM     11  O   UNL     1       4.444   4.071   1.098  0.00  0.00    -0.274 OA
ENDROOT
BRANCH   4  12
ATOM     12  C   UNL     1      -2.513   3.828   0.093  0.00  0.00    +0.247 C 
ATOM     13  O   UNL     1      -2.540   5.042   0.027  0.00  0.00    -0.270 OA
ATOM     14  N   UNL     1      -3.662   3.134   0.213  0.00  0.00    -0.297 N 
ATOM     15  C   UNL     1      -4.960   3.817   0.139  0.00  0.00    +0.113 C 
ATOM     16  C   UNL     1      -5.779   3.468   1.381  0.00  0.00    +0.084 C 
ATOM     17  C   UNL     1      -5.870   1.947   1.516  0.00  0.00    +0.173 C 
ATOM     18  C   UNL     1      -4.469   1.352   1.672  0.00  0.00    +0.084 C 
ATOM     19  C   UNL     1      -3.639   1.680   0.428  0.00  0.00    +0.113 C 
ATOM     20  O   UNL     1      -6.666   1.612   2.660  0.00  0.00    -0.346 OA
ATOM     21  C   UNL     1      -7.785   0.834   2.190  0.00  0.00    +0.191 C 
ATOM     22  C   UNL     1      -7.288   0.291   0.827  0.00  0.00    +0.191 C 
ATOM     23  O   UNL     1      -6.492   1.399   0.342  0.00  0.00    -0.346 OA
ENDBRANCH   4  12
BRANCH   1  24
ATOM     24  C   UNL     1       2.102   4.818   1.866  0.00  0.00    +0.148 C 
BRANCH  24  30
ATOM     25  C   UNL     1       0.694   4.047   3.786  0.00  0.00    +0.006 A 
ATOM     26  C   UNL     1       0.556   3.541   5.064  0.00  0.00    +0.020 A 
ATOM     27  C   UNL     1       1.680   3.269   5.825  0.00  0.00    +0.041 A 
ATOM     28  C   UNL     1       2.940   3.499   5.303  0.00  0.00    +0.020 A 
ATOM     29  C   UNL     1       3.076   4.000   4.022  0.00  0.00    +0.006 A 
ATOM     30  C   UNL     1       1.953   4.272   3.263  0.00  0.00    -0.030 A 
ATOM     31 CL   UNL     1       1.508   2.639   7.434  0.00  0.00    -0.084 Cl
ENDBRANCH  24  30
ENDBRANCH   1  24
TORSDOF 3
