REMARK  Name = ZINC08801628
REMARK  7 active torsions:
REMARK  status: ('A' for Active; 'I' for Inactive)
REMARK    1  A    between atoms: C_1  and  N_2
REMARK    2  A    between atoms: C_9  and  C_11
REMARK    3  A    between atoms: C_11  and  C_13
REMARK    4  A    between atoms: C_11  and  N_54
REMARK    5  A    between atoms: C_13  and  N_14
REMARK    6  A    between atoms: N_14  and  S_15
REMARK    7  A    between atoms: S_15  and  C_18
REMARK                            x       y       z     vdW  Elec       q    Type
REMARK                         _______ _______ _______ _____ _____    ______ ____
ROOT
ATOM      1  C   UNL     1       2.788   4.713   3.644  0.00  0.00    -0.022 C 
ENDROOT
BRANCH   1  10
ATOM      2  C   UNL     1       7.150   2.322   7.772  0.00  0.00    +0.129 C 
ATOM      3  N   UNL     1       6.981   3.712   7.328  0.00  0.00    -0.332 N 
ATOM      4  C   UNL     1       8.156   4.167   6.553  0.00  0.00    +0.109 C 
ATOM      5  C   UNL     1       7.537   5.180   5.563  0.00  0.00    +0.056 C 
ATOM      6  C   UNL     1       6.102   4.706   5.451  0.00  0.00    -0.025 A 
ATOM      7  C   UNL     1       5.851   3.844   6.512  0.00  0.00    +0.033 A 
ATOM      8  C   UNL     1       4.591   3.260   6.627  0.00  0.00    +0.023 A 
ATOM      9  C   UNL     1       3.607   3.546   5.704  0.00  0.00    +0.004 A 
ATOM     10  C   UNL     1       3.866   4.405   4.652  0.00  0.00    -0.059 A 
ATOM     11  C   UNL     1       5.116   4.986   4.529  0.00  0.00    +0.007 A 
ENDBRANCH   1  10
BRANCH   1  17
ATOM     12  C   UNL     1       1.879   5.821   5.595  0.00  0.00    -0.078 C 
ATOM     13  C   UNL     1       0.589   6.351   6.224  0.00  0.00    -0.019 C 
ATOM     14  C   UNL     1      -0.356   5.179   6.504  0.00  0.00    -0.004 C 
ATOM     15  C   UNL     1      -0.631   4.432   5.196  0.00  0.00    -0.019 C 
ATOM     16  C   UNL     1       0.695   3.957   4.596  0.00  0.00    -0.078 C 
ATOM     17  N   UNL     1       1.548   5.134   4.328  0.00  0.00    +0.385 N 
ATOM     18  H   UNL     1       1.037   5.785   3.720  0.00  0.00    -0.081 HD
ENDBRANCH   1  17
BRANCH   1  19
ATOM     19  C   UNL     1       2.507   3.467   2.802  0.00  0.00    +0.095 C 
BRANCH  19  20
ATOM     20  N   UNL     1       1.409   3.744   1.872  0.00  0.00    -0.191 NA
ATOM     21  H   UNL     1       0.850   4.526   2.001  0.00  0.00    +0.148 HD
BRANCH  20  22
ATOM     22  S   UNL     1       1.123   2.721   0.601  0.00  0.00    +0.065 S 
ATOM     23  O   UNL     1       2.374   2.507  -0.037  0.00  0.00    -0.153 OA
ATOM     24  O   UNL     1      -0.006   3.238  -0.089  0.00  0.00    -0.153 OA
BRANCH  22  25
ATOM     25  C   UNL     1       0.632   1.171   1.280  0.00  0.00    +0.144 A 
ATOM     26  C   UNL     1      -0.612   0.730   1.587  0.00  0.00    +0.038 A 
ATOM     27  C   UNL     1      -0.762  -0.538   2.117  0.00  0.00    +0.030 A 
ATOM     28  C   UNL     1       0.341  -1.303   2.313  0.00  0.00    +0.080 A 
ATOM     29  S   UNL     1       1.644  -0.225   1.742  0.00  0.00    -0.057 S 
ATOM     30 CL   UNL     1       0.456  -2.913   2.953  0.00  0.00    -0.076 Cl
ENDBRANCH  22  25
ENDBRANCH  20  22
ENDBRANCH  19  20
ENDBRANCH   1  19
TORSDOF 6
