REMARK  Name = ZINC39883887
REMARK  7 active torsions:
REMARK  status: ('A' for Active; 'I' for Inactive)
REMARK    1  A    between atoms: C_1  and  C_2
REMARK    2  A    between atoms: C_6  and  C_12
REMARK    3  A    between atoms: C_10  and  C_11
REMARK    4  A    between atoms: C_12  and  C_13
REMARK    5  A    between atoms: C_18  and  C_21
REMARK    6  A    between atoms: C_24  and  S_27
REMARK    7  A    between atoms: S_27  and  N_30
REMARK                            x       y       z     vdW  Elec       q    Type
REMARK                         _______ _______ _______ _____ _____    ______ ____
ROOT
ATOM      1  C   UNL     1       1.489  -5.643  -1.072  0.00  0.00    +0.223 C 
ATOM      2  O   UNL     1       2.400  -4.971  -0.638  0.00  0.00    -0.275 OA
ATOM      3  N   UNL     1       1.744  -6.648  -1.933  0.00  0.00    -0.264 N 
ATOM      4  C   UNL     1       3.050  -6.915  -2.323  0.00  0.00    +0.165 A 
ATOM      5  N   UNL     1       3.503  -7.838  -3.150  0.00  0.00    -0.225 NA
ATOM      6  C   UNL     1       4.797  -7.953  -3.411  0.00  0.00    +0.080 A 
ATOM      7  C   UNL     1       5.680  -7.097  -2.814  0.00  0.00    +0.076 A 
ATOM      8  S   UNL     1       4.564  -6.093  -1.843  0.00  0.00    -0.060 S 
ATOM      9  H   UNL     1       1.015  -7.185  -2.281  0.00  0.00    +0.157 HD
ENDROOT
BRANCH   6  10
ATOM     10  C   UNL     1       5.282  -8.999  -4.344  0.00  0.00    +0.001 A 
ATOM     11  C   UNL     1       6.645  -9.120  -4.612  0.00  0.00    +0.012 A 
ATOM     12  C   UNL     1       7.091 -10.095  -5.480  0.00  0.00    +0.029 A 
ATOM     13  C   UNL     1       6.189 -10.952  -6.084  0.00  0.00    +0.106 A 
ATOM     14  C   UNL     1       4.835 -10.837  -5.823  0.00  0.00    +0.029 A 
ATOM     15  C   UNL     1       4.378  -9.869  -4.951  0.00  0.00    +0.012 A 
BRANCH  13  16
ATOM     16  S   UNL     1       6.765 -12.195  -7.192  0.00  0.00    +0.061 S 
ATOM     17  O   UNL     1       5.676 -12.515  -8.046  0.00  0.00    -0.153 OA
ATOM     18  O   UNL     1       8.018 -11.745  -7.691  0.00  0.00    -0.153 OA
BRANCH  16  19
ATOM     19  N   UNL     1       7.074 -13.549  -6.291  0.00  0.00    -0.177 NA
ATOM     20  C   UNL     1       8.395 -13.721  -5.728  0.00  0.00    +0.109 C 
ATOM     21  C   UNL     1       9.296 -14.472  -6.738  0.00  0.00    +0.017 C 
ATOM     22  C   UNL     1       8.887 -15.881  -6.839  0.00  0.00    +0.001 C 
ATOM     23  C   UNL     1       7.471 -16.088  -7.370  0.00  0.00    +0.001 C 
ATOM     24  C   UNL     1       6.489 -15.981  -6.230  0.00  0.00    +0.017 C 
ATOM     25  C   UNL     1       5.988 -14.528  -6.091  0.00  0.00    +0.109 C 
ENDBRANCH  16  19
ENDBRANCH  13  16
ENDBRANCH   6  10
BRANCH   1  26
ATOM     26  C   UNL     1       0.071  -5.354  -0.650  0.00  0.00    +0.135 C 
BRANCH  26  32
ATOM     27  C   UNL     1      -0.018   1.503   0.010  0.00  0.00    +0.044 C 
ATOM     28  C   UNL     1       0.002  -0.004   0.002  0.00  0.00    -0.044 A 
ATOM     29  C   UNL     1       0.006  -0.684  -1.207  0.00  0.00    +0.004 A 
ATOM     30  C   UNL     1       0.024  -2.051  -1.233  0.00  0.00    +0.012 A 
ATOM     31  C   UNL     1       0.039  -2.764  -0.035  0.00  0.00    +0.024 A 
ATOM     32  C   UNL     1       0.060  -4.191   0.309  0.00  0.00    +0.007 A 
ATOM     33  C   UNL     1       0.068  -4.252   1.648  0.00  0.00    +0.200 A 
ATOM     34  O   UNL     1       0.054  -3.012   2.168  0.00  0.00    -0.462 OA
ATOM     35  C   UNL     1       0.036  -2.082   1.192  0.00  0.00    +0.138 A 
ATOM     36  C   UNL     1       0.023  -0.693   1.196  0.00  0.00    -0.005 A 
ATOM     37  C   UNL     1       0.025   0.060   2.502  0.00  0.00    +0.048 C 
ENDBRANCH  26  32
ENDBRANCH   1  26
TORSDOF 5
