REMARK  Name = ZINC13362215
REMARK  7 active torsions:
REMARK  status: ('A' for Active; 'I' for Inactive)
REMARK    1  A    between atoms: C_1  and  C_2
REMARK    2  A    between atoms: C_17  and  C_38
REMARK    3  A    between atoms: C_25  and  C_27
REMARK    4  A    between atoms: C_25  and  C_28
REMARK    5  A    between atoms: C_29  and  C_31
REMARK    6  A    between atoms: C_31  and  S_32
REMARK    7  A    between atoms: S_32  and  C_33
REMARK                            x       y       z     vdW  Elec       q    Type
REMARK                         _______ _______ _______ _____ _____    ______ ____
ROOT
ATOM      1  C   UNL     1      -0.842   1.320  -0.345  0.00  0.00    +0.012 C 
ATOM      2  C   UNL     1      -0.725  -0.210  -0.375  0.00  0.00    -0.026 C 
ATOM      3  C   UNL     1      -2.128  -0.780  -0.608  0.00  0.00    +0.007 C 
ATOM      4  C   UNL     1      -3.068  -0.357   0.521  0.00  0.00    +0.001 C 
ATOM      5  C   UNL     1      -2.520  -0.835   1.866  0.00  0.00    +0.000 C 
ATOM      6  C   UNL     1      -1.123  -0.253   2.099  0.00  0.00    +0.004 C 
ATOM      7  C   UNL     1      -0.203  -0.699   0.966  0.00  0.00    -0.005 C 
ATOM      8  C   UNL     1       1.225  -0.207   1.188  0.00  0.00    +0.004 C 
ATOM      9  C   UNL     1       2.108  -0.825   0.104  0.00  0.00    +0.004 C 
ATOM     10  C   UNL     1       1.681  -0.352  -1.288  0.00  0.00    -0.004 C 
ATOM     11  C   UNL     1       0.192  -0.542  -1.524  0.00  0.00    -0.001 C 
ATOM     12  C   UNL     1      -0.092  -1.883  -2.183  0.00  0.00    +0.005 C 
ATOM     13  C   UNL     1       0.409  -1.847  -3.639  0.00  0.00    +0.010 C 
ATOM     14  C   UNL     1       1.752  -1.157  -3.690  0.00  0.00    +0.002 C 
ATOM     15  C   UNL     1       2.425  -1.223  -2.299  0.00  0.00    +0.001 C 
ATOM     16  C   UNL     1       3.850  -0.731  -2.614  0.00  0.00    +0.007 C 
ATOM     17  C   UNL     1       4.168  -1.450  -3.955  0.00  0.00    +0.037 C 
ATOM     18  C   UNL     1       2.807  -1.792  -4.589  0.00  0.00    +0.093 C 
ATOM     19  C   UNL     1       2.651  -3.308  -4.752  0.00  0.00    +0.146 C 
ATOM     20  N   UNL     1       3.429  -3.547  -5.997  0.00  0.00    -0.270 N 
ATOM     21  C   UNL     1       3.267  -2.316  -6.788  0.00  0.00    +0.133 C 
ATOM     22  O   UNL     1       2.733  -1.290  -5.931  0.00  0.00    -0.348 OA
ATOM     23  C   UNL     1       4.620  -1.877  -7.350  0.00  0.00    +0.063 C 
ATOM     24  C   UNL     1       2.295  -2.572  -7.943  0.00  0.00    +0.063 C 
ATOM     25  C   UNL     1       4.124  -4.650  -6.324  0.00  0.00    +0.228 C 
ATOM     26  O   UNL     1       4.715  -4.703  -7.382  0.00  0.00    -0.275 OA
ATOM     27  C   UNL     1       1.580   0.297  -4.153  0.00  0.00    +0.014 C 
ENDROOT
BRANCH  25  28
ATOM     28  C   UNL     1       4.170  -5.821  -5.376  0.00  0.00    +0.173 C 
BRANCH  28  29
ATOM     29  S   UNL     1       5.180  -7.144  -6.098  0.00  0.00    -0.083 S 
BRANCH  29  30
ATOM     30  C   UNL     1       5.136  -8.422  -4.887  0.00  0.00    +0.128 C 
ATOM     31  N   UNL     1       4.467  -8.309  -3.749  0.00  0.00    -0.366 N 
ATOM     32  C   UNL     1       4.631  -9.542  -2.965  0.00  0.00    +0.133 C 
ATOM     33  C   UNL     1       5.532 -10.419  -3.858  0.00  0.00    +0.124 C 
ATOM     34  N   UNL     1       5.764  -9.578  -5.042  0.00  0.00    -0.324 N 
ATOM     35  H   UNL     1       6.295  -9.829  -5.814  0.00  0.00    +0.148 HD
ATOM     36  H   UNL     1       3.950  -7.534  -3.477  0.00  0.00    +0.161 HD
ENDBRANCH  29  30
ENDBRANCH  28  29
ENDBRANCH  25  28
TORSDOF 3
