REMARK  Name = ZINC22840531
REMARK  10 active torsions:
REMARK  status: ('A' for Active; 'I' for Inactive)
REMARK    1  A    between atoms: C_1  and  C_2
REMARK    2  A    between atoms: C_5  and  C_8
REMARK    3  A    between atoms: C_10  and  C_13
REMARK    4  A    between atoms: C_13  and  N_14
REMARK    5  A    between atoms: N_17  and  C_20
REMARK    6  A    between atoms: C_20  and  C_21
REMARK    7  A    between atoms: N_23  and  C_24
REMARK    8  A    between atoms: C_25  and  C_32
REMARK    9  A    between atoms: C_27  and  C_31
REMARK   10  A    between atoms: C_29  and  C_30
REMARK                            x       y       z     vdW  Elec       q    Type
REMARK                         _______ _______ _______ _____ _____    ______ ____
ROOT
ATOM      1  N   UNL     1       1.711   4.704  -0.253  0.00  0.00    -0.297 NA
ATOM      2  C   UNL     1       1.006   3.592   0.401  0.00  0.00    +0.066 C 
ATOM      3  C   UNL     1       1.046   2.362  -0.508  0.00  0.00    -0.063 C 
ATOM      4  N   UNL     1       0.424   2.689  -1.799  0.00  0.00    +0.387 N 
ATOM      5  C   UNL     1       1.129   3.800  -2.453  0.00  0.00    -0.063 C 
ATOM      6  C   UNL     1       1.089   5.031  -1.544  0.00  0.00    +0.066 C 
ATOM      7  H   UNL     1      -0.611   3.009  -1.606  0.00  0.00    -0.081 HD
ENDROOT
BRANCH   1   8
ATOM      8  C   UNL     1       1.760   5.883   0.622  0.00  0.00    +0.183 C 
BRANCH   8  11
ATOM      9  C   UNL     1       4.233   5.358   3.177  0.00  0.00    +0.202 A 
ATOM     10  N   UNL     1       3.906   5.771   1.931  0.00  0.00    -0.190 NA
ATOM     11  C   UNL     1       2.614   5.580   1.826  0.00  0.00    +0.242 A 
ATOM     12  O   UNL     1       2.195   5.072   2.989  0.00  0.00    -0.336 OA
ATOM     13  N   UNL     1       3.132   4.945   3.748  0.00  0.00    -0.056 NA
BRANCH   9  18
ATOM     14  C   UNL     1       9.494   5.404   5.521  0.00  0.00    +0.044 C 
ATOM     15  C   UNL     1       8.117   5.392   4.908  0.00  0.00    -0.050 A 
ATOM     16  C   UNL     1       7.041   4.925   5.640  0.00  0.00    +0.004 A 
ATOM     17  C   UNL     1       5.778   4.912   5.083  0.00  0.00    +0.012 A 
ATOM     18  C   UNL     1       5.589   5.370   3.781  0.00  0.00    +0.022 A 
ATOM     19  C   UNL     1       6.678   5.835   3.047  0.00  0.00    +0.012 A 
ATOM     20  C   UNL     1       7.935   5.848   3.615  0.00  0.00    +0.004 A 
ENDBRANCH   9  18
ENDBRANCH   8  11
ENDBRANCH   1   8
BRANCH   4  21
ATOM     21  C   UNL     1       0.375   1.510  -2.674  0.00  0.00    +0.019 C 
BRANCH  21  22
ATOM     22  C   UNL     1      -0.479   1.813  -3.878  0.00  0.00    +0.201 C 
ATOM     23  O   UNL     1      -0.996   2.904  -3.996  0.00  0.00    -0.278 OA
ATOM     24  N   UNL     1      -0.669   0.872  -4.823  0.00  0.00    -0.287 N 
ATOM     25  H   UNL     1      -0.153  -0.097  -4.747  0.00  0.00    +0.155 HD
BRANCH  24  26
ATOM     26  C   UNL     1      -1.522   1.126  -5.903  0.00  0.00    +0.039 A 
ATOM     27  C   UNL     1      -2.819   1.570  -5.675  0.00  0.00    -0.029 A 
ATOM     28  C   UNL     1      -3.657   1.825  -6.743  0.00  0.00    +0.008 A 
ATOM     29  C   UNL     1      -3.211   1.628  -8.037  0.00  0.00    -0.050 A 
ATOM     30  C   UNL     1      -1.922   1.182  -8.266  0.00  0.00    +0.008 A 
ATOM     31  C   UNL     1      -1.077   0.930  -7.203  0.00  0.00    -0.029 A 
ATOM     32  C   UNL     1       0.327   0.444  -7.455  0.00  0.00    +0.045 C 
ATOM     33  C   UNL     1      -4.130   1.902  -9.199  0.00  0.00    +0.044 C 
ATOM     34  C   UNL     1      -3.308   1.779  -4.265  0.00  0.00    +0.045 C 
ENDBRANCH  24  26
ENDBRANCH  21  22
ENDBRANCH   4  21
TORSDOF 6
