REMARK  Name = ZINC35919888
REMARK  4 active torsions:
REMARK  status: ('A' for Active; 'I' for Inactive)
REMARK    1  A    between atoms: C_1  and  C_2
REMARK    2  A    between atoms: N_17  and  C_20
REMARK    3  A    between atoms: N_23  and  S_25
REMARK    4  A    between atoms: S_25  and  C_28
REMARK                            x       y       z     vdW  Elec       q    Type
REMARK                         _______ _______ _______ _____ _____    ______ ____
ROOT
ATOM      1  C   UNL     1      -1.242  -0.045  -2.295  0.00  0.00    +0.007 C 
ATOM      2  C   UNL     1      -0.589  -0.763  -1.113  0.00  0.00    -0.011 C 
ATOM      3  C   UNL     1      -0.631  -2.275  -1.348  0.00  0.00    +0.022 C 
ATOM      4  C   UNL     1       0.053  -2.989  -0.179  0.00  0.00    +0.107 C 
ATOM      5  N   UNL     1      -0.578  -2.556   1.075  0.00  0.00    -0.315 N 
ATOM      6  C   UNL     1      -0.672  -1.117   1.359  0.00  0.00    +0.107 C 
ATOM      7  C   UNL     1      -1.349  -0.424   0.172  0.00  0.00    +0.022 C 
ATOM      8  C   UNL     1      -1.076  -3.486   1.973  0.00  0.00    +0.131 A 
ATOM      9  C   UNL     1      -0.250  -4.025   2.966  0.00  0.00    +0.030 A 
ATOM     10  C   UNL     1      -0.781  -4.940   3.841  0.00  0.00    +0.054 A 
ATOM     11  N   UNL     1      -2.058  -5.293   3.706  0.00  0.00    -0.219 NA
ATOM     12  C   UNL     1      -2.817  -4.770   2.757  0.00  0.00    +0.220 A 
ATOM     13  N   UNL     1      -2.344  -3.874   1.905  0.00  0.00    -0.199 NA
ATOM     14  N   UNL     1      -4.139  -5.166   2.657  0.00  0.00    -0.303 N 
ATOM     15  C   UNL     1      -5.017  -4.614   1.613  0.00  0.00    +0.089 C 
ATOM     16  C   UNL     1      -5.706  -5.778   0.893  0.00  0.00    -0.060 C 
ATOM     17  N   UNL     1      -6.393  -6.623   1.878  0.00  0.00    +0.380 N 
ATOM     18  C   UNL     1      -5.412  -7.242   2.778  0.00  0.00    -0.060 C 
ATOM     19  C   UNL     1      -4.706  -6.154   3.588  0.00  0.00    +0.089 C 
ATOM     20  C   UNL     1      -7.144  -7.675   1.179  0.00  0.00    -0.096 C 
ATOM     21  C   UNL     1       0.012  -5.555   4.962  0.00  0.00    +0.073 C 
ATOM     22  C   UNL     1       1.512  -5.433   4.695  0.00  0.00    +0.116 C 
ATOM     23  N   UNL     1       1.791  -4.048   4.283  0.00  0.00    -0.172 NA
ATOM     24  C   UNL     1       1.188  -3.583   3.028  0.00  0.00    +0.149 C 
ATOM     25  H   UNL     1      -7.033  -6.058   2.417  0.00  0.00    -0.082 HD
ENDROOT
BRANCH  23  26
ATOM     26  S   UNL     1       2.747  -3.053   5.199  0.00  0.00    +0.061 S 
ATOM     27  O   UNL     1       2.377  -1.721   4.873  0.00  0.00    -0.153 OA
ATOM     28  O   UNL     1       2.699  -3.554   6.527  0.00  0.00    -0.153 OA
BRANCH  26  29
ATOM     29  C   UNL     1       4.405  -3.265   4.641  0.00  0.00    +0.106 A 
ATOM     30  C   UNL     1       5.208  -4.234   5.213  0.00  0.00    +0.030 A 
ATOM     31  C   UNL     1       6.509  -4.401   4.776  0.00  0.00    +0.022 A 
ATOM     32  C   UNL     1       7.007  -3.598   3.765  0.00  0.00    +0.041 A 
ATOM     33  C   UNL     1       6.202  -2.629   3.192  0.00  0.00    +0.022 A 
ATOM     34  C   UNL     1       4.900  -2.467   3.626  0.00  0.00    +0.030 A 
ATOM     35 CL   UNL     1       8.640  -3.807   3.215  0.00  0.00    -0.084 Cl
ENDBRANCH  26  29
ENDBRANCH  23  26
TORSDOF 2
