REMARK  Name = ZINC40781422
REMARK  5 active torsions:
REMARK  status: ('A' for Active; 'I' for Inactive)
REMARK    1  A    between atoms: C_5  and  C_7
REMARK    2  A    between atoms: N_9  and  N_10
REMARK    3  A    between atoms: C_12  and  N_25
REMARK    4  A    between atoms: C_13  and  N_17
REMARK    5  A    between atoms: N_17  and  C_18
REMARK                            x       y       z     vdW  Elec       q    Type
REMARK                         _______ _______ _______ _____ _____    ______ ____
ROOT
ATOM      1  N   UNL     1       0.070  -4.331  -0.945  0.00  0.00    -0.247 N 
ATOM      2  C   UNL     1      -1.106  -5.027  -0.691  0.00  0.00    +0.161 A 
ATOM      3  C   UNL     1      -1.081  -6.407  -0.481  0.00  0.00    +0.107 A 
ATOM      4  C   UNL     1      -2.291  -7.057  -0.231  0.00  0.00    +0.149 A 
ATOM      5  N   UNL     1      -3.413  -6.342  -0.202  0.00  0.00    -0.219 NA
ATOM      6  C   UNL     1      -3.392  -5.041  -0.406  0.00  0.00    +0.225 A 
ATOM      7  N   UNL     1      -2.272  -4.388  -0.640  0.00  0.00    -0.217 NA
ATOM      8  H   UNL     1       0.916  -4.804  -0.980  0.00  0.00    +0.172 HD
ENDROOT
BRANCH   1  11
ATOM      9  C   UNL     1       1.174  -2.270  -1.394  0.00  0.00    +0.262 C 
ATOM     10  O   UNL     1       2.234  -2.864  -1.439  0.00  0.00    -0.269 OA
ATOM     11  N   UNL     1       0.034  -2.946  -1.148  0.00  0.00    -0.231 N 
ATOM     12  H   UNL     1      -0.812  -2.472  -1.113  0.00  0.00    +0.173 HD
BRANCH   9  17
ATOM     13  C   UNL     1      -0.109   1.240  -1.761  0.00  0.00    +0.001 A 
ATOM     14  C   UNL     1       1.064   1.931  -2.014  0.00  0.00    +0.001 A 
ATOM     15  C   UNL     1       2.272   1.260  -2.064  0.00  0.00    +0.021 A 
ATOM     16  C   UNL     1       2.316  -0.106  -1.864  0.00  0.00    +0.053 A 
ATOM     17  C   UNL     1       1.136  -0.809  -1.609  0.00  0.00    +0.056 A 
ATOM     18  C   UNL     1      -0.080  -0.124  -1.559  0.00  0.00    +0.014 A 
ATOM     19 CL   UNL     1       3.833  -0.947  -1.929  0.00  0.00    -0.083 Cl
ENDBRANCH   9  17
ENDBRANCH   1  11
BRANCH   3  20
ATOM     20  N   UNL     1       0.127  -7.122  -0.520  0.00  0.00    -0.353 N 
ATOM     21  H   UNL     1       0.960  -6.657  -0.696  0.00  0.00    +0.143 HD
ATOM     22  H   UNL     1       0.129  -8.081  -0.372  0.00  0.00    +0.143 HD
ENDBRANCH   3  20
BRANCH   4  23
ATOM     23  N   UNL     1      -2.323  -8.431  -0.015  0.00  0.00    -0.297 N 
ATOM     24  H   UNL     1      -1.494  -8.930   0.057  0.00  0.00    +0.154 HD
BRANCH  23  25
ATOM     25  C   UNL     1      -3.549  -9.092   0.099  0.00  0.00    +0.047 A 
ATOM     26  C   UNL     1      -4.689  -8.550  -0.483  0.00  0.00    +0.024 A 
ATOM     27  C   UNL     1      -5.899  -9.206  -0.369  0.00  0.00    +0.002 A 
ATOM     28  C   UNL     1      -5.977 -10.401   0.323  0.00  0.00    +0.001 A 
ATOM     29  C   UNL     1      -4.846 -10.943   0.903  0.00  0.00    +0.017 A 
ATOM     30  C   UNL     1      -3.630 -10.296   0.789  0.00  0.00    +0.039 A 
ATOM     31 BR   UNL     1      -2.081 -11.042   1.576  0.00  0.00    -0.048 Br
ENDBRANCH  23  25
ENDBRANCH   4  23
TORSDOF 5
