REMARK  Name = ZINC00274848
REMARK  6 active torsions:
REMARK  status: ('A' for Active; 'I' for Inactive)
REMARK    1  A    between atoms: C_1  and  C_2
REMARK    2  A    between atoms: C_7  and  C_8
REMARK    3  A    between atoms: C_11  and  C_27
REMARK    4  A    between atoms: N_13  and  C_21
REMARK    5  A    between atoms: C_16  and  N_20
REMARK    6  A    between atoms: C_17  and  C_18
REMARK                            x       y       z     vdW  Elec       q    Type
REMARK                         _______ _______ _______ _____ _____    ______ ____
ROOT
ATOM      1  C   UNL     1      -1.276  -2.162  -0.002  0.00  0.00    +0.102 C 
ATOM      2  C   UNL     1       0.095  -2.721   0.279  0.00  0.00    +0.050 A 
ATOM      3  C   UNL     1       0.467  -4.023   0.589  0.00  0.00    +0.068 A 
ATOM      4  N   UNL     1       1.769  -4.051   0.751  0.00  0.00    -0.168 NA
ATOM      5  N   UNL     1       2.270  -2.756   0.548  0.00  0.00    -0.200 N 
ATOM      6  C   UNL     1       1.224  -1.951   0.259  0.00  0.00    +0.230 A 
ATOM      7  O   UNL     1       1.200  -0.623  -0.013  0.00  0.00    -0.423 OA
ATOM      8  C   UNL     1       0.002  -0.004   0.002  0.00  0.00    +0.200 C 
ATOM      9  C   UNL     1      -1.181  -0.657   0.015  0.00  0.00    +0.098 C 
ATOM     10  C   UNL     1      -0.465  -5.201   0.717  0.00  0.00    +0.068 C 
ENDROOT
BRANCH   1  17
ATOM     11  C   UNL     1      -3.691  -3.732  -0.222  0.00  0.00    +0.044 C 
ATOM     12  C   UNL     1      -2.905  -3.381  -1.459  0.00  0.00    -0.046 A 
ATOM     13  C   UNL     1      -3.341  -3.808  -2.700  0.00  0.00    +0.003 A 
ATOM     14  C   UNL     1      -2.618  -3.491  -3.833  0.00  0.00    +0.000 A 
ATOM     15  C   UNL     1      -1.459  -2.744  -3.728  0.00  0.00    +0.000 A 
ATOM     16  C   UNL     1      -1.024  -2.314  -2.488  0.00  0.00    +0.005 A 
ATOM     17  C   UNL     1      -1.749  -2.631  -1.354  0.00  0.00    -0.032 A 
ENDBRANCH   1  17
BRANCH   5  18
ATOM     18  C   UNL     1       3.614  -2.367   0.629  0.00  0.00    +0.069 A 
ATOM     19  C   UNL     1       4.109  -1.389  -0.223  0.00  0.00    +0.028 A 
ATOM     20  C   UNL     1       5.433  -1.005  -0.137  0.00  0.00    +0.002 A 
ATOM     21  C   UNL     1       6.268  -1.601   0.790  0.00  0.00    +0.000 A 
ATOM     22  C   UNL     1       5.779  -2.578   1.637  0.00  0.00    +0.002 A 
ATOM     23  C   UNL     1       4.455  -2.963   1.560  0.00  0.00    +0.028 A 
ENDBRANCH   5  18
BRANCH   8  24
ATOM     24  N   UNL     1      -0.017   1.369   0.010  0.00  0.00    -0.328 N 
ATOM     25  H   UNL     1       0.817   1.865   0.004  0.00  0.00    +0.145 HD
ATOM     26  H   UNL     1      -0.863   1.842   0.016  0.00  0.00    +0.145 HD
ENDBRANCH   8  24
BRANCH   9  27
ATOM     27  C   UNL     1      -2.391   0.110   0.042  0.00  0.00    +0.101 C 
ATOM     28  N   UNL     1      -3.350   0.718   0.063  0.00  0.00    -0.191 NA
ENDBRANCH   9  27
TORSDOF 4
