REMARK  Name = ZINC13078774
REMARK  11 active torsions:
REMARK  status: ('A' for Active; 'I' for Inactive)
REMARK    1  A    between atoms: C_1  and  C_2
REMARK    2  A    between atoms: C_4  and  C_29
REMARK    3  A    between atoms: C_6  and  S_9
REMARK    4  A    between atoms: C_7  and  C_8
REMARK    5  A    between atoms: S_9  and  N_12
REMARK    6  A    between atoms: N_12  and  N_13
REMARK    7  A    between atoms: C_14  and  C_16
REMARK    8  A    between atoms: C_16  and  N_17
REMARK    9  A    between atoms: N_17  and  C_18
REMARK   10  A    between atoms: N_17  and  S_19
REMARK   11  A    between atoms: S_19  and  C_22
REMARK                            x       y       z     vdW  Elec       q    Type
REMARK                         _______ _______ _______ _____ _____    ______ ____
ROOT
ATOM      1  N   UNL     1      -4.422   0.304  -1.567  0.00  0.00    -0.231 N 
ATOM      2  C   UNL     1      -3.280   0.868  -1.125  0.00  0.00    +0.243 C 
ATOM      3  O   UNL     1      -3.324   1.788  -0.337  0.00  0.00    -0.273 OA
ATOM      4  H   UNL     1      -4.387  -0.432  -2.197  0.00  0.00    +0.171 HD
ENDROOT
BRANCH   1   5
ATOM      5  N   UNL     1      -5.660   0.782  -1.116  0.00  0.00    -0.108 NA
ATOM      6  H   UNL     1      -5.847   0.821  -0.165  0.00  0.00    +0.172 HD
BRANCH   5   7
ATOM      7  S   UNL     1      -6.802   1.282  -2.206  0.00  0.00    +0.074 S 
ATOM      8  O   UNL     1      -7.985   1.542  -1.464  0.00  0.00    -0.152 OA
ATOM      9  O   UNL     1      -6.181   2.266  -3.022  0.00  0.00    -0.152 OA
BRANCH   7  15
ATOM     10  C   UNL     1      -8.688  -3.533  -2.965  0.00  0.00    +0.044 C 
ATOM     11  C   UNL     1      -8.037  -2.304  -3.545  0.00  0.00    -0.045 A 
ATOM     12  C   UNL     1      -7.723  -2.260  -4.888  0.00  0.00    +0.018 A 
ATOM     13  C   UNL     1      -7.119  -1.121  -5.423  0.00  0.00    +0.065 A 
ATOM     14  C   UNL     1      -6.837  -0.033  -4.594  0.00  0.00    +0.044 A 
ATOM     15  C   UNL     1      -7.156  -0.090  -3.254  0.00  0.00    +0.111 A 
ATOM     16  C   UNL     1      -7.750  -1.225  -2.729  0.00  0.00    -0.021 A 
ATOM     17  C   UNL     1      -8.090  -1.282  -1.262  0.00  0.00    +0.046 C 
BRANCH  13  18
ATOM     18  C   UNL     1      -6.779  -1.067  -6.860  0.00  0.00    +0.387 C 
ATOM     19  O   UNL     1      -6.254  -0.074  -7.323  0.00  0.00    -0.241 OA
ATOM     20  O   UNL     1      -7.053  -2.118  -7.657  0.00  0.00    -0.241 OA
ENDBRANCH  13  18
ENDBRANCH   7  15
ENDBRANCH   5   7
ENDBRANCH   1   5
BRANCH   2  21
ATOM     21  C   UNL     1      -1.949   0.354  -1.610  0.00  0.00    +0.206 C 
BRANCH  21  22
ATOM     22  N   UNL     1      -0.871   1.126  -0.987  0.00  0.00    -0.171 NA
ATOM     23  C   UNL     1      -0.440   2.393  -1.582  0.00  0.00    +0.132 C 
BRANCH  22  24
ATOM     24  S   UNL     1      -0.140   0.566   0.389  0.00  0.00    +0.061 S 
ATOM     25  O   UNL     1      -0.332  -0.842   0.407  0.00  0.00    -0.153 OA
ATOM     26  O   UNL     1       1.150   1.160   0.434  0.00  0.00    -0.153 OA
BRANCH  24  27
ATOM     27  C   UNL     1      -1.041   1.214   1.758  0.00  0.00    +0.106 A 
ATOM     28  C   UNL     1      -0.678   2.428   2.312  0.00  0.00    +0.030 A 
ATOM     29  C   UNL     1      -1.388   2.939   3.382  0.00  0.00    +0.022 A 
ATOM     30  C   UNL     1      -2.454   2.230   3.906  0.00  0.00    +0.041 A 
ATOM     31  C   UNL     1      -2.813   1.013   3.356  0.00  0.00    +0.022 A 
ATOM     32  C   UNL     1      -2.106   0.505   2.282  0.00  0.00    +0.030 A 
ATOM     33 CL   UNL     1      -3.342   2.869   5.255  0.00  0.00    -0.084 Cl
ENDBRANCH  24  27
ENDBRANCH  22  24
ENDBRANCH  21  22
ENDBRANCH   2  21
TORSDOF 8
