REMARK  Name = ZINC51030303
REMARK  12 active torsions:
REMARK  status: ('A' for Active; 'I' for Inactive)
REMARK    1  A    between atoms: C_1  and  C_2
REMARK    2  A    between atoms: C_2  and  C_3
REMARK    3  A    between atoms: C_3  and  C_5
REMARK    4  A    between atoms: C_3  and  C_6
REMARK    5  A    between atoms: C_9  and  N_12
REMARK    6  A    between atoms: N_12  and  C_13
REMARK    7  A    between atoms: C_15  and  C_16
REMARK    8  A    between atoms: C_15  and  C_18
REMARK    9  A    between atoms: C_18  and  C_20
REMARK   10  A    between atoms: C_20  and  N_21
REMARK   11  A    between atoms: C_22  and  C_24
REMARK   12  A    between atoms: C_27  and  C_29
REMARK                            x       y       z     vdW  Elec       q    Type
REMARK                         _______ _______ _______ _____ _____    ______ ____
ROOT
ATOM      1  C   UNL     1       2.428  -6.728  -1.185  0.00  0.00    +0.262 C 
ATOM      2  O   UNL     1       3.534  -5.963  -1.248  0.00  0.00    -0.269 OA
ATOM      3  C   UNL     1       2.537  -8.120  -1.242  0.00  0.00    +0.157 C 
ENDROOT
BRANCH   1   4
ATOM      4  N   UNL     1       1.204  -6.146  -1.064  0.00  0.00    -0.281 N 
ATOM      5  H   UNL     1       0.416  -6.696  -0.936  0.00  0.00    +0.155 HD
BRANCH   4   9
ATOM      6  C   UNL     1       0.843  -2.000  -1.243  0.00  0.00    -0.044 A 
ATOM      7  C   UNL     1      -0.002  -2.731  -0.429  0.00  0.00    +0.006 A 
ATOM      8  C   UNL     1       0.115  -4.106  -0.368  0.00  0.00    +0.023 A 
ATOM      9  C   UNL     1       1.083  -4.754  -1.125  0.00  0.00    +0.034 A 
ATOM     10  C   UNL     1       1.930  -4.016  -1.941  0.00  0.00    +0.023 A 
ATOM     11  C   UNL     1       1.804  -2.642  -2.002  0.00  0.00    +0.006 A 
BRANCH   6  12
ATOM     12  C   UNL     1       0.713  -0.500  -1.308  0.00  0.00    +0.016 C 
ATOM     13  C   UNL     1      -0.690  -0.131  -1.794  0.00  0.00    +0.012 C 
BRANCH  12  15
ATOM     14  C   UNL     1       0.934   1.620  -0.004  0.00  0.00    +0.004 C 
ATOM     15  C   UNL     1       0.943   0.092   0.084  0.00  0.00    +0.004 C 
ENDBRANCH  12  15
ENDBRANCH   6  12
ENDBRANCH   4   9
ENDBRANCH   1   4
BRANCH   3  16
ATOM     16  C   UNL     1       1.361  -8.934  -1.174  0.00  0.00    +0.108 C 
ATOM     17  N   UNL     1       0.428  -9.580  -1.120  0.00  0.00    -0.191 NA
ENDBRANCH   3  16
BRANCH   3  18
ATOM     18  C   UNL     1       3.805  -8.723  -1.366  0.00  0.00    +0.195 C 
ATOM     19  O   UNL     1       4.803  -8.033  -1.424  0.00  0.00    -0.289 OA
BRANCH  18  20
ATOM     20  C   UNL     1       3.922 -10.224  -1.428  0.00  0.00    +0.185 C 
BRANCH  20  21
ATOM     21  N   UNL     1       5.333 -10.599  -1.557  0.00  0.00    -0.304 N 
ATOM     22  C   UNL     1       5.681 -11.899  -1.630  0.00  0.00    +0.251 C 
ATOM     23  O   UNL     1       4.824 -12.761  -1.590  0.00  0.00    -0.270 OA
ATOM     24  H   UNL     1       6.016  -9.911  -1.589  0.00  0.00    +0.149 HD
BRANCH  22  25
ATOM     25  C   UNL     1       7.093 -12.273  -1.759  0.00  0.00    +0.074 A 
ATOM     26  C   UNL     1       7.656 -13.536  -1.854  0.00  0.00    +0.021 A 
ATOM     27  C   UNL     1       9.025 -13.572  -1.966  0.00  0.00    +0.011 A 
ATOM     28  C   UNL     1       9.717 -12.406  -1.975  0.00  0.00    -0.013 A 
ATOM     29  S   UNL     1       8.531 -11.223  -1.841  0.00  0.00    -0.089 S 
ATOM     30  C   UNL     1      11.207 -12.213  -2.088  0.00  0.00    +0.051 C 
ENDBRANCH  22  25
ENDBRANCH  20  21
ENDBRANCH  18  20
ENDBRANCH   3  18
TORSDOF 9
