REMARK  Name = ZINC09283041
REMARK  9 active torsions:
REMARK  status: ('A' for Active; 'I' for Inactive)
REMARK    1  A    between atoms: C_3  and  S_25
REMARK    2  A    between atoms: C_6  and  N_7
REMARK    3  A    between atoms: C_8  and  C_10
REMARK    4  A    between atoms: C_10  and  C_23
REMARK    5  A    between atoms: N_11  and  N_12
REMARK    6  A    between atoms: N_12  and  C_13
REMARK    7  A    between atoms: C_16  and  S_19
REMARK    8  A    between atoms: S_19  and  N_22
REMARK    9  A    between atoms: S_25  and  N_28
REMARK                            x       y       z     vdW  Elec       q    Type
REMARK                         _______ _______ _______ _____ _____    ______ ____
ROOT
ATOM      1  C   UNL     1      -2.591  -2.486  -0.789  0.00  0.00    +0.224 C 
ATOM      2  N   UNL     1      -2.749  -3.511  -1.599  0.00  0.00    -0.166 NA
ENDROOT
BRANCH   1   4
ATOM      3  N   UNL     1      -1.171  -0.707   0.010  0.00  0.00    -0.207 NA
ATOM      4  C   UNL     1      -1.329  -1.730  -0.798  0.00  0.00    +0.308 C 
ATOM      5  O   UNL     1      -0.331  -2.088  -1.638  0.00  0.00    -0.263 OA
BRANCH   3  11
ATOM      6  C   UNL     1      -0.017   1.393   0.010  0.00  0.00    +0.030 A 
ATOM      7  C   UNL     1       1.170   2.095   0.002  0.00  0.00    +0.030 A 
ATOM      8  C   UNL     1       2.378   1.420  -0.013  0.00  0.00    +0.105 A 
ATOM      9  C   UNL     1       2.404   0.036  -0.022  0.00  0.00    +0.030 A 
ATOM     10  C   UNL     1       1.225  -0.679  -0.014  0.00  0.00    +0.030 A 
ATOM     11  C   UNL     1       0.002  -0.004   0.002  0.00  0.00    +0.068 A 
BRANCH   8  12
ATOM     12  S   UNL     1       3.889   2.325  -0.024  0.00  0.00    +0.056 S 
ATOM     13  O   UNL     1       4.872   1.469  -0.589  0.00  0.00    -0.153 OA
ATOM     14  O   UNL     1       3.592   3.605  -0.565  0.00  0.00    -0.153 OA
BRANCH  12  15
ATOM     15  N   UNL     1       4.325   2.569   1.555  0.00  0.00    -0.204 NA
ATOM     16  H   UNL     1       3.766   2.226   2.271  0.00  0.00    +0.144 HD
ATOM     17  H   UNL     1       5.138   3.054   1.765  0.00  0.00    +0.144 HD
ENDBRANCH  12  15
ENDBRANCH   8  12
ENDBRANCH   3  11
ENDBRANCH   1   4
BRANCH   2  18
ATOM     18  N   UNL     1      -3.855  -4.174  -1.592  0.00  0.00    -0.236 N 
ATOM     19  H   UNL     1      -4.571  -3.917  -0.989  0.00  0.00    +0.174 HD
BRANCH  18  20
ATOM     20  C   UNL     1      -4.023  -5.261  -2.450  0.00  0.00    +0.048 A 
ATOM     21  C   UNL     1      -2.997  -5.634  -3.310  0.00  0.00    +0.026 A 
ATOM     22  C   UNL     1      -3.166  -6.711  -4.158  0.00  0.00    +0.030 A 
ATOM     23  C   UNL     1      -4.355  -7.417  -4.152  0.00  0.00    +0.105 A 
ATOM     24  C   UNL     1      -5.378  -7.048  -3.299  0.00  0.00    +0.030 A 
ATOM     25  C   UNL     1      -5.214  -5.977  -2.444  0.00  0.00    +0.026 A 
BRANCH  23  26
ATOM     26  S   UNL     1      -4.566  -8.790  -5.236  0.00  0.00    +0.056 S 
ATOM     27  O   UNL     1      -5.966  -8.946  -5.426  0.00  0.00    -0.153 OA
ATOM     28  O   UNL     1      -3.668  -8.595  -6.320  0.00  0.00    -0.153 OA
BRANCH  26  29
ATOM     29  N   UNL     1      -4.046 -10.138  -4.427  0.00  0.00    -0.204 NA
ATOM     30  H   UNL     1      -3.706 -10.059  -3.522  0.00  0.00    +0.144 HD
ATOM     31  H   UNL     1      -4.081 -11.006  -4.858  0.00  0.00    +0.144 HD
ENDBRANCH  26  29
ENDBRANCH  23  26
ENDBRANCH  18  20
ENDBRANCH   2  18
BRANCH   1  32
ATOM     32  C   UNL     1      -3.647  -2.106   0.100  0.00  0.00    +0.126 C 
ATOM     33  N   UNL     1      -4.485  -1.805   0.806  0.00  0.00    -0.189 NA
ENDBRANCH   1  32
TORSDOF 9
