REMARK  Name = ZINC41650360
REMARK  5 active torsions:
REMARK  status: ('A' for Active; 'I' for Inactive)
REMARK    1  A    between atoms: C_1  and  C_2
REMARK    2  A    between atoms: C_5  and  C_8
REMARK    3  A    between atoms: C_8  and  N_9
REMARK    4  A    between atoms: C_14  and  C_33
REMARK    5  A    between atoms: C_19  and  C_20
REMARK                            x       y       z     vdW  Elec       q    Type
REMARK                         _______ _______ _______ _____ _____    ______ ____
ROOT
ATOM      1  N   UNL     1       1.912  -4.386   1.114  0.00  0.00    -0.262 NA
ATOM      2  C   UNL     1       1.879  -5.855   1.054  0.00  0.00    +0.130 C 
ATOM      3  C   UNL     1       3.269  -6.381   0.799  0.00  0.00    +0.051 A 
ATOM      4  C   UNL     1       4.264  -5.552   0.310  0.00  0.00    +0.131 A 
ATOM      5  C   UNL     1       5.545  -6.051   0.075  0.00  0.00    +0.050 A 
ATOM      6  C   UNL     1       5.831  -7.362   0.326  0.00  0.00    -0.033 A 
ATOM      7  C   UNL     1       4.838  -8.208   0.820  0.00  0.00    +0.071 A 
ATOM      8  C   UNL     1       3.544  -7.719   1.060  0.00  0.00    +0.148 A 
ATOM      9  O   UNL     1       2.762  -8.713   1.533  0.00  0.00    -0.451 OA
ATOM     10  C   UNL     1       3.440  -9.880   1.638  0.00  0.00    +0.176 C 
ATOM     11  C   UNL     1       2.939 -11.063   2.079  0.00  0.00    +0.061 C 
ATOM     12  C   UNL     1       4.818  -9.635   1.188  0.00  0.00    +0.232 C 
ATOM     13  O   UNL     1       5.738 -10.433   1.131  0.00  0.00    -0.283 OA
ATOM     14  C   UNL     1       7.218  -7.895   0.070  0.00  0.00    +0.045 C 
ATOM     15  O   UNL     1       4.013  -4.241   0.056  0.00  0.00    -0.476 OA
ATOM     16  C   UNL     1       2.642  -3.848  -0.046  0.00  0.00    +0.319 C 
ENDROOT
BRANCH  11  17
ATOM     17  C   UNL     1       1.586 -11.121   2.644  0.00  0.00    +0.022 A 
ATOM     18  C   UNL     1       0.682 -10.076   2.416  0.00  0.00    +0.031 A 
ATOM     19  C   UNL     1      -0.586 -10.139   2.952  0.00  0.00    +0.042 A 
ATOM     20  C   UNL     1      -0.970 -11.230   3.716  0.00  0.00    +0.029 A 
ATOM     21  C   UNL     1      -0.088 -12.269   3.949  0.00  0.00    +0.022 A 
ATOM     22  C   UNL     1       1.187 -12.229   3.411  0.00  0.00    +0.136 A 
ATOM     23  O   UNL     1       2.058 -13.250   3.619  0.00  0.00    -0.465 OA
ATOM     24  C   UNL     1       1.748 -14.159   4.679  0.00  0.00    +0.395 C 
ATOM     25  O   UNL     1       0.372 -14.541   4.566  0.00  0.00    -0.339 OA
ATOM     26  C   UNL     1      -0.526 -13.444   4.787  0.00  0.00    +0.202 C 
ATOM     27 CL   UNL     1      -1.708  -8.845   2.668  0.00  0.00    -0.084 Cl
ENDBRANCH  11  17
BRANCH   1  28
ATOM     28  C   UNL     1       0.554  -3.832   1.184  0.00  0.00    +0.123 C 
BRANCH  28  33
ATOM     29  C   UNL     1       0.838   1.840   2.254  0.00  0.00    +0.044 C 
ATOM     30  C   UNL     1       0.764   0.360   1.975  0.00  0.00    -0.050 A 
ATOM     31  C   UNL     1       0.759  -0.098   0.671  0.00  0.00    +0.003 A 
ATOM     32  C   UNL     1       0.692  -1.454   0.415  0.00  0.00    +0.005 A 
ATOM     33  C   UNL     1       0.628  -2.353   1.463  0.00  0.00    -0.033 A 
ATOM     34  C   UNL     1       0.634  -1.895   2.768  0.00  0.00    +0.005 A 
ATOM     35  C   UNL     1       0.706  -0.538   3.023  0.00  0.00    +0.003 A 
ENDBRANCH  28  33
ENDBRANCH   1  28
TORSDOF 3
