REMARK  Name = ZINC16321791
REMARK  8 active torsions:
REMARK  status: ('A' for Active; 'I' for Inactive)
REMARK    1  A    between atoms: C_1  and  C_2
REMARK    2  A    between atoms: C_2  and  C_4
REMARK    3  A    between atoms: C_2  and  S_17
REMARK    4  A    between atoms: N_6  and  C_7
REMARK    5  A    between atoms: C_10  and  S_13
REMARK    6  A    between atoms: S_13  and  N_16
REMARK    7  A    between atoms: S_17  and  C_18
REMARK    8  A    between atoms: N_31  and  C_32
REMARK                            x       y       z     vdW  Elec       q    Type
REMARK                         _______ _______ _______ _____ _____    ______ ____
ROOT
ATOM      1  C   UNL     1       3.792   3.143   1.278  0.00  0.00    +0.029 C 
ATOM      2  C   UNL     1       4.267   2.511  -0.031  0.00  0.00    +0.137 C 
ENDROOT
BRANCH   2   3
ATOM      3  C   UNL     1       5.759   2.684  -0.160  0.00  0.00    +0.230 C 
ATOM      4  O   UNL     1       6.502   1.766   0.116  0.00  0.00    -0.274 OA
ATOM      5  N   UNL     1       6.267   3.859  -0.582  0.00  0.00    -0.285 N 
ATOM      6  H   UNL     1       5.672   4.571  -0.866  0.00  0.00    +0.155 HD
BRANCH   5   7
ATOM      7  C   UNL     1       7.652   4.053  -0.609  0.00  0.00    +0.034 A 
ATOM      8  C   UNL     1       8.186   5.303  -0.325  0.00  0.00    +0.025 A 
ATOM      9  C   UNL     1       9.555   5.489  -0.346  0.00  0.00    +0.030 A 
ATOM     10  C   UNL     1      10.392   4.435  -0.662  0.00  0.00    +0.105 A 
ATOM     11  C   UNL     1       9.864   3.190  -0.951  0.00  0.00    +0.030 A 
ATOM     12  C   UNL     1       8.496   2.996  -0.925  0.00  0.00    +0.025 A 
BRANCH  10  13
ATOM     13  S   UNL     1      12.137   4.678  -0.696  0.00  0.00    +0.056 S 
ATOM     14  O   UNL     1      12.408   5.793   0.143  0.00  0.00    -0.153 OA
ATOM     15  O   UNL     1      12.729   3.404  -0.485  0.00  0.00    -0.153 OA
BRANCH  13  16
ATOM     16  N   UNL     1      12.538   5.137  -2.236  0.00  0.00    -0.204 NA
ATOM     17  H   UNL     1      11.847   5.222  -2.912  0.00  0.00    +0.144 HD
ATOM     18  H   UNL     1      13.463   5.321  -2.462  0.00  0.00    +0.144 HD
ENDBRANCH  13  16
ENDBRANCH  10  13
ENDBRANCH   5   7
ENDBRANCH   2   3
BRANCH   2  19
ATOM     19  S   UNL     1       3.861   0.743  -0.032  0.00  0.00    -0.073 S 
BRANCH  19  20
ATOM     20  C   UNL     1       2.100   0.710  -0.026  0.00  0.00    +0.198 A 
ATOM     21  N   UNL     1       1.310   1.756  -0.022  0.00  0.00    -0.120 NA
ATOM     22  N   UNL     1      -0.014   1.299  -0.018  0.00  0.00    -0.109 NA
ATOM     23  C   UNL     1       0.007  -0.015  -0.020  0.00  0.00    +0.240 A 
ATOM     24  N   UNL     1       1.316  -0.412  -0.025  0.00  0.00    -0.256 N 
ATOM     25  C   UNL     1       1.645  -1.766  -0.028  0.00  0.00    +0.064 A 
ATOM     26  C   UNL     1       2.969  -2.179  -0.034  0.00  0.00    +0.027 A 
ATOM     27  C   UNL     1       3.267  -3.527  -0.037  0.00  0.00    +0.002 A 
ATOM     28  C   UNL     1       2.255  -4.474  -0.035  0.00  0.00    +0.001 A 
ATOM     29  C   UNL     1       0.933  -4.081  -0.029  0.00  0.00    +0.015 A 
ATOM     30  C   UNL     1       0.619  -2.723  -0.026  0.00  0.00    +0.064 A 
ATOM     31  C   UNL     1      -0.781  -2.262  -0.020  0.00  0.00    +0.263 A 
ATOM     32  O   UNL     1      -1.697  -3.063  -0.018  0.00  0.00    -0.267 OA
ATOM     33  N   UNL     1      -1.030  -0.936  -0.017  0.00  0.00    -0.280 N 
ATOM     34  C   UNL     1      -2.416  -0.462  -0.011  0.00  0.00    +0.155 C 
ENDBRANCH  19  20
ENDBRANCH   2  19
TORSDOF 6
