REMARK  Name = ZINC07876179
REMARK  8 active torsions:
REMARK  status: ('A' for Active; 'I' for Inactive)
REMARK    1  A    between atoms: C_1  and  C_2
REMARK    2  A    between atoms: C_2  and  C_4
REMARK    3  A    between atoms: C_2  and  S_14
REMARK    4  A    between atoms: N_9  and  C_10
REMARK    5  A    between atoms: C_10  and  C_11
REMARK    6  A    between atoms: C_10  and  C_12
REMARK    7  A    between atoms: C_10  and  C_13
REMARK    8  A    between atoms: S_14  and  C_15
REMARK                            x       y       z     vdW  Elec       q    Type
REMARK                         _______ _______ _______ _____ _____    ______ ____
ROOT
ATOM      1  C   UNL     1      -0.013   1.086   0.008  0.00  0.00    +0.029 C 
ATOM      2  C   UNL     1      -0.729   1.579   1.267  0.00  0.00    +0.137 C 
ENDROOT
BRANCH   2   3
ATOM      3  C   UNL     1      -2.143   1.058   1.278  0.00  0.00    +0.233 C 
ATOM      4  O   UNL     1      -2.427   0.090   1.950  0.00  0.00    -0.274 OA
ATOM      5  N   UNL     1      -3.091   1.667   0.539  0.00  0.00    -0.239 N 
ATOM      6  C   UNL     1      -4.356   1.201   0.549  0.00  0.00    +0.306 C 
ATOM      7  O   UNL     1      -4.641   0.230   1.223  0.00  0.00    -0.252 OA
ATOM      8  N   UNL     1      -5.305   1.810  -0.189  0.00  0.00    -0.294 N 
ATOM      9  H   UNL     1      -2.864   2.442   0.002  0.00  0.00    +0.159 HD
ATOM     10  H   UNL     1      -5.077   2.585  -0.727  0.00  0.00    +0.151 HD
BRANCH   8  11
ATOM     11  C   UNL     1      -6.679   1.303  -0.178  0.00  0.00    +0.028 C 
ATOM     12  C   UNL     1      -7.231   1.354   1.248  0.00  0.00    +0.031 C 
ATOM     13  C   UNL     1      -7.549   2.168  -1.093  0.00  0.00    +0.031 C 
ATOM     14  C   UNL     1      -6.693  -0.142  -0.679  0.00  0.00    +0.031 C 
ENDBRANCH   8  11
ENDBRANCH   2   3
BRANCH   2  15
ATOM     15  S   UNL     1       0.148   0.978   2.736  0.00  0.00    -0.073 S 
BRANCH  15  16
ATOM     16  C   UNL     1       1.714   1.782   2.657  0.00  0.00    +0.197 A 
ATOM     17  N   UNL     1       2.115   2.615   1.722  0.00  0.00    -0.122 NA
ATOM     18  N   UNL     1       3.310   3.022   1.971  0.00  0.00    -0.127 NA
ATOM     19  C   UNL     1       3.749   2.461   3.082  0.00  0.00    +0.180 A 
ATOM     20  N   UNL     1       2.736   1.651   3.549  0.00  0.00    -0.275 N 
ATOM     21  C   UNL     1       2.901   0.931   4.701  0.00  0.00    +0.115 A 
ATOM     22  C   UNL     1       4.056   1.002   5.393  0.00  0.00    +0.059 A 
ATOM     23  C   UNL     1       5.109   1.821   4.941  0.00  0.00    +0.045 A 
ATOM     24  C   UNL     1       4.962   2.543   3.798  0.00  0.00    +0.087 A 
ATOM     25 CL   UNL     1       6.251   3.556   3.228  0.00  0.00    -0.080 Cl
ATOM     26 CL   UNL     1       4.246   0.080   6.852  0.00  0.00    -0.082 Cl
ENDBRANCH  15  16
ENDBRANCH   2  15
TORSDOF 4
