REMARK  Name = ZINC39990143
REMARK  11 active torsions:
REMARK  status: ('A' for Active; 'I' for Inactive)
REMARK    1  A    between atoms: C_1  and  C_2
REMARK    2  A    between atoms: C_2  and  C_3
REMARK    3  A    between atoms: C_3  and  N_4
REMARK    4  A    between atoms: C_5  and  N_28
REMARK    5  A    between atoms: C_6  and  C_14
REMARK    6  A    between atoms: C_7  and  C_13
REMARK    7  A    between atoms: C_8  and  C_11
REMARK    8  A    between atoms: N_18  and  C_22
REMARK    9  A    between atoms: C_22  and  C_23
REMARK   10  A    between atoms: C_30  and  C_37
REMARK   11  A    between atoms: C_33  and  C_36
REMARK                            x       y       z     vdW  Elec       q    Type
REMARK                         _______ _______ _______ _____ _____    ______ ____
ROOT
ATOM      1  N   UNL     1       1.486  -1.899  -2.304  0.00  0.00    -0.295 N 
ATOM      2  C   UNL     1       1.677  -2.586  -1.148  0.00  0.00    +0.112 A 
ATOM      3  C   UNL     1       1.001  -3.796  -0.917  0.00  0.00    +0.019 A 
ATOM      4  C   UNL     1       0.122  -4.294  -1.894  0.00  0.00    -0.017 A 
ATOM      5  C   UNL     1      -0.057  -3.570  -3.070  0.00  0.00    +0.120 A 
ATOM      6  C   UNL     1       0.645  -2.352  -3.252  0.00  0.00    +0.270 A 
ATOM      7  O   UNL     1       0.489  -1.712  -4.277  0.00  0.00    -0.266 OA
ATOM      8  C   UNL     1      -0.615  -5.589  -1.672  0.00  0.00    +0.046 C 
ENDROOT
BRANCH   3   9
ATOM      9  C   UNL     1       1.212  -4.533   0.330  0.00  0.00    +0.032 C 
ATOM     10  C   UNL     1       1.815  -5.752   0.307  0.00  0.00    +0.077 C 
ATOM     11  C   UNL     1       2.092  -6.650   1.383  0.00  0.00    +0.259 C 
ATOM     12  O   UNL     1       1.781  -6.372   2.527  0.00  0.00    -0.269 OA
ATOM     13  N   UNL     1       2.696  -7.791   1.099  0.00  0.00    -0.248 N 
ATOM     14  C   UNL     1       3.041  -8.098  -0.171  0.00  0.00    +0.121 C 
ATOM     15  S   UNL     1       3.822  -9.503  -0.760  0.00  0.00    -0.027 S 
ATOM     16  S   UNL     1       2.470  -6.670  -1.080  0.00  0.00    -0.061 S 
BRANCH  13  17
ATOM     17  C   UNL     1       2.996  -8.736   2.178  0.00  0.00    +0.189 C 
BRANCH  17  18
ATOM     18  C   UNL     1       1.835  -9.681   2.355  0.00  0.00    +0.122 A 
ATOM     19  C   UNL     1       1.678 -10.860   1.727  0.00  0.00    +0.046 A 
ATOM     20  C   UNL     1       0.459 -11.410   2.187  0.00  0.00    +0.041 A 
ATOM     21  C   UNL     1      -0.056 -10.533   3.068  0.00  0.00    +0.195 A 
ATOM     22  O   UNL     1       0.785  -9.491   3.170  0.00  0.00    -0.466 OA
ENDBRANCH  17  18
ENDBRANCH  13  17
ENDBRANCH   3   9
BRANCH   2  23
ATOM     23  N   UNL     1       2.532  -2.098  -0.204  0.00  0.00    -0.315 N 
ATOM     24  C   UNL     1       2.066  -1.837   1.165  0.00  0.00    +0.109 C 
ATOM     25  C   UNL     1       2.984  -2.572   2.147  0.00  0.00    +0.004 C 
ATOM     26  C   UNL     1       4.435  -2.161   1.887  0.00  0.00    +0.009 C 
ATOM     27  C   UNL     1       4.833  -2.557   0.464  0.00  0.00    +0.004 C 
ATOM     28  C   UNL     1       3.938  -1.828  -0.535  0.00  0.00    +0.109 C 
ATOM     29  C   UNL     1       4.664  -4.068   0.289  0.00  0.00    +0.009 C 
ATOM     30  C   UNL     1       2.597  -2.206   3.581  0.00  0.00    +0.009 C 
ENDBRANCH   2  23
BRANCH   5  31
ATOM     31  C   UNL     1      -0.946  -4.050  -4.085  0.00  0.00    +0.105 C 
ATOM     32  N   UNL     1      -1.651  -4.431  -4.890  0.00  0.00    -0.191 NA
ENDBRANCH   5  31
BRANCH   1  33
ATOM     33  C   UNL     1       2.203  -0.640  -2.519  0.00  0.00    +0.126 C 
BRANCH  33  35
ATOM     34  C   UNL     1       2.098   1.838  -2.223  0.00  0.00    +0.005 C 
ATOM     35  C   UNL     1       1.413   0.511  -1.894  0.00  0.00    +0.018 C 
ENDBRANCH  33  35
ENDBRANCH   1  33
TORSDOF 7
