REMARK  Name = ZINC40783027
REMARK  9 active torsions:
REMARK  status: ('A' for Active; 'I' for Inactive)
REMARK    1  A    between atoms: C_1  and  C_2
REMARK    2  A    between atoms: C_2  and  C_3
REMARK    3  A    between atoms: C_2  and  C_4
REMARK    4  A    between atoms: C_4  and  O_5
REMARK    5  A    between atoms: O_5  and  C_6
REMARK    6  A    between atoms: C_6  and  C_8
REMARK    7  A    between atoms: C_11  and  N_14
REMARK    8  A    between atoms: C_16  and  N_33
REMARK    9  A    between atoms: C_17  and  N_21
REMARK                            x       y       z     vdW  Elec       q    Type
REMARK                         _______ _______ _______ _____ _____    ______ ____
ROOT
ATOM      1  N   UNL     1      -2.094   0.853   8.397  0.00  0.00    -0.298 N 
ATOM      2  C   UNL     1      -1.628   0.353   9.609  0.00  0.00    +0.149 A 
ATOM      3  C   UNL     1      -2.343   0.573  10.788  0.00  0.00    +0.106 A 
ATOM      4  C   UNL     1      -1.831   0.048  11.976  0.00  0.00    +0.147 A 
ATOM      5  N   UNL     1      -0.690  -0.635  11.940  0.00  0.00    -0.219 NA
ATOM      6  C   UNL     1      -0.046  -0.820  10.805  0.00  0.00    +0.225 A 
ATOM      7  N   UNL     1      -0.497  -0.346   9.661  0.00  0.00    -0.219 NA
ATOM      8  H   UNL     1      -2.877   1.425   8.378  0.00  0.00    +0.154 HD
ENDROOT
BRANCH   4   9
ATOM      9  N   UNL     1      -2.502   0.238  13.178  0.00  0.00    -0.311 N 
ATOM     10  C   UNL     1      -3.579  -0.675  13.585  0.00  0.00    +0.125 C 
ATOM     11  C   UNL     1      -3.247  -1.238  14.973  0.00  0.00    +0.125 C 
ATOM     12  N   UNL     1      -2.892  -0.122  15.860  0.00  0.00    -0.314 N 
ATOM     13  C   UNL     1      -1.815   0.791  15.453  0.00  0.00    +0.125 C 
ATOM     14  C   UNL     1      -2.143   1.351  14.068  0.00  0.00    +0.125 C 
ATOM     15  C   UNL     1      -3.563   0.068  17.062  0.00  0.00    +0.099 A 
ATOM     16  C   UNL     1      -4.484  -0.882  17.495  0.00  0.00    +0.042 A 
ATOM     17  C   UNL     1      -5.145  -0.680  18.693  0.00  0.00    +0.005 A 
ATOM     18  C   UNL     1      -4.862   0.468  19.421  0.00  0.00    +0.018 A 
ATOM     19  C   UNL     1      -3.938   1.368  18.932  0.00  0.00    +0.084 A 
ATOM     20  N   UNL     1      -3.318   1.148  17.788  0.00  0.00    -0.350 N 
ATOM     21  H   UNL     1      -2.669   1.795  17.468  0.00  0.00    +0.166 HD
ENDBRANCH   4   9
BRANCH   1  25
ATOM     22  C   UNL     1      -0.128  -0.103   4.861  0.00  0.00    +0.059 A 
ATOM     23  C   UNL     1      -0.173  -1.027   5.909  0.00  0.00    +0.017 A 
ATOM     24  C   UNL     1      -0.821  -0.708   7.075  0.00  0.00    +0.024 A 
ATOM     25  C   UNL     1      -1.436   0.533   7.214  0.00  0.00    +0.032 A 
ATOM     26  C   UNL     1      -1.394   1.456   6.172  0.00  0.00    +0.024 A 
ATOM     27  C   UNL     1      -0.741   1.146   5.006  0.00  0.00    +0.017 A 
BRANCH  22  28
ATOM     28  C   UNL     1       0.568  -0.442   3.607  0.00  0.00    +0.339 C 
ATOM     29  O   UNL     1       0.610   0.364   2.698  0.00  0.00    -0.245 OA
BRANCH  28  30
ATOM     30  O   UNL     1       1.158  -1.645   3.468  0.00  0.00    -0.461 OA
BRANCH  30  31
ATOM     31  C   UNL     1       1.815  -1.906   2.226  0.00  0.00    +0.235 C 
BRANCH  31  33
ATOM     32  C   UNL     1       1.299  -4.348   2.345  0.00  0.00    +0.010 C 
ATOM     33  C   UNL     1       2.421  -3.311   2.255  0.00  0.00    +0.020 C 
ATOM     34  C   UNL     1       3.229  -3.544   0.977  0.00  0.00    +0.010 C 
ENDBRANCH  31  33
ENDBRANCH  30  31
ENDBRANCH  28  30
ENDBRANCH  22  28
ENDBRANCH   1  25
BRANCH   3  35
ATOM     35  N   UNL     1      -3.543   1.301  10.779  0.00  0.00    -0.353 N 
ATOM     36  H   UNL     1      -3.926   1.595   9.937  0.00  0.00    +0.143 HD
ATOM     37  H   UNL     1      -3.990   1.510  11.614  0.00  0.00    +0.143 HD
ENDBRANCH   3  35
TORSDOF 7
