REMARK  Name = ZINC00868331
REMARK  6 active torsions:
REMARK  status: ('A' for Active; 'I' for Inactive)
REMARK    1  A    between atoms: C_1  and  C_2
REMARK    2  A    between atoms: C_2  and  O_3
REMARK    3  A    between atoms: O_3  and  C_4
REMARK    4  A    between atoms: C_8  and  C_11
REMARK    5  A    between atoms: C_9  and  O_10
REMARK    6  A    between atoms: N_12  and  C_13
REMARK                            x       y       z     vdW  Elec       q    Type
REMARK                         _______ _______ _______ _____ _____    ______ ____
ROOT
ATOM      1  C   UNL     1      -4.279  -4.382   0.007  0.00  0.00    +0.124 C 
ATOM      2  N   UNL     1      -4.422  -5.678   0.000  0.00  0.00    -0.255 NA
ENDROOT
BRANCH   2   3
ATOM      3  C   UNL     1      -5.675  -6.229   0.003  0.00  0.00    +0.066 A 
ATOM      4  C   UNL     1      -6.657  -5.727   0.863  0.00  0.00    +0.030 A 
ATOM      5  C   UNL     1      -7.920  -6.280   0.867  0.00  0.00    +0.030 A 
ATOM      6  C   UNL     1      -8.219  -7.337   0.018  0.00  0.00    +0.067 A 
ATOM      7  C   UNL     1      -7.242  -7.843  -0.844  0.00  0.00    +0.069 A 
ATOM      8  C   UNL     1      -5.974  -7.287  -0.855  0.00  0.00    +0.055 A 
ATOM      9  N   UNL     1      -7.834  -8.882  -1.558  0.00  0.00    -0.306 N 
ATOM     10  H   UNL     1      -7.400  -9.426  -2.234  0.00  0.00    +0.170 HD
ATOM     11  C   UNL     1      -9.112  -9.002  -1.150  0.00  0.00    +0.325 A 
ATOM     12  O   UNL     1      -9.909  -9.817  -1.576  0.00  0.00    -0.247 OA
ATOM     13  N   UNL     1      -9.373  -8.085  -0.201  0.00  0.00    -0.306 N 
ATOM     14  H   UNL     1     -10.222  -7.965   0.254  0.00  0.00    +0.170 HD
ENDBRANCH   2   3
BRANCH   1  19
ATOM     15  C   UNL     1      -1.498  -1.849   0.006  0.00  0.00    +0.163 A 
ATOM     16  C   UNL     1      -0.388  -2.678  -0.003  0.00  0.00    +0.065 A 
ATOM     17  C   UNL     1      -0.541  -4.055  -0.009  0.00  0.00    +0.036 A 
ATOM     18  C   UNL     1      -1.802  -4.615  -0.006  0.00  0.00    +0.044 A 
ATOM     19  C   UNL     1      -2.933  -3.791   0.004  0.00  0.00    +0.053 A 
ATOM     20  C   UNL     1      -2.776  -2.397   0.016  0.00  0.00    +0.168 A 
ATOM     21 BR   UNL     1      -2.002  -6.496  -0.016  0.00  0.00    -0.048 Br
ATOM     22 BR   UNL     1       0.985  -5.171  -0.023  0.00  0.00    -0.049 Br
BRANCH  20  23
ATOM     23  O   UNL     1      -3.866  -1.587   0.030  0.00  0.00    -0.503 OA
ATOM     24  H   UNL     1      -4.190  -1.348  -0.849  0.00  0.00    +0.292 HD
ENDBRANCH  20  23
BRANCH  15  25
ATOM     25  O   UNL     1      -1.339  -0.499   0.012  0.00  0.00    -0.489 OA
BRANCH  25  27
ATOM     26  C   UNL     1      -0.019   1.526   0.010  0.00  0.00    +0.048 C 
ATOM     27  C   UNL     1       0.002  -0.004   0.002  0.00  0.00    +0.226 C 
ENDBRANCH  25  27
ENDBRANCH  15  25
ENDBRANCH   1  19
TORSDOF 5
