REMARK  Name = ZINC63143222
REMARK  6 active torsions:
REMARK  status: ('A' for Active; 'I' for Inactive)
REMARK    1  A    between atoms: C_1  and  C_2
REMARK    2  A    between atoms: C_4  and  C_19
REMARK    3  A    between atoms: N_8  and  C_9
REMARK    4  A    between atoms: C_14  and  C_15
REMARK    5  A    between atoms: N_21  and  N_22
REMARK    6  A    between atoms: C_27  and  C_31
REMARK                            x       y       z     vdW  Elec       q    Type
REMARK                         _______ _______ _______ _____ _____    ______ ____
ROOT
ATOM      1  C   UNL     1      -0.019   1.526   0.010  0.00  0.00    +0.035 C 
ATOM      2  C   UNL     1       0.002  -0.004   0.002  0.00  0.00    +0.127 C 
ATOM      3  C   UNL     1       0.774  -0.516  -1.195  0.00  0.00    +0.052 C 
ATOM      4  H   UNL     1       2.498  -1.693   1.179  0.00  0.00    +0.169 HD
ATOM      5  C   UNL     1       1.816  -1.222  -0.716  0.00  0.00    +0.098 C 
ATOM      6  N   UNL     1       1.830  -1.239   0.642  0.00  0.00    -0.270 N 
ATOM      7  N   UNL     1       0.747  -0.515   1.165  0.00  0.00    -0.246 N 
ENDROOT
BRANCH   7   8
ATOM      8  C   UNL     1       0.438  -0.318   2.513  0.00  0.00    +0.060 A 
ATOM      9  C   UNL     1      -0.816  -0.669   2.998  0.00  0.00    +0.025 A 
ATOM     10  C   UNL     1      -1.118  -0.473   4.331  0.00  0.00    +0.002 A 
ATOM     11  C   UNL     1      -0.175   0.073   5.183  0.00  0.00    +0.001 A 
ATOM     12  C   UNL     1       1.074   0.423   4.703  0.00  0.00    +0.014 A 
ATOM     13  C   UNL     1       1.385   0.224   3.372  0.00  0.00    +0.077 A 
BRANCH  13  14
ATOM     14  C   UNL     1       2.748   0.600   2.851  0.00  0.00    +0.419 C 
ATOM     15  F   UNL     1       3.519   1.121   3.896  0.00  0.00    -0.166 F 
ATOM     16  F   UNL     1       3.377  -0.535   2.329  0.00  0.00    -0.166 F 
ATOM     17  F   UNL     1       2.614   1.563   1.846  0.00  0.00    -0.166 F 
ENDBRANCH  13  14
ENDBRANCH   7   8
BRANCH   3  18
ATOM     18  C   UNL     1       0.460  -0.297  -2.556  0.00  0.00    +0.259 C 
ATOM     19  O   UNL     1       1.168  -0.768  -3.428  0.00  0.00    -0.269 OA
ATOM     20  N   UNL     1      -0.623   0.434  -2.889  0.00  0.00    -0.231 N 
ATOM     21  H   UNL     1      -1.187   0.809  -2.194  0.00  0.00    +0.173 HD
BRANCH  20  22
ATOM     22  N   UNL     1      -0.934   0.651  -4.237  0.00  0.00    -0.235 N 
ATOM     23  C   UNL     1      -2.029   1.390  -4.574  0.00  0.00    +0.218 C 
ATOM     24  N   UNL     1      -2.762   1.884  -3.599  0.00  0.00    -0.145 NA
ATOM     25  C   UNL     1      -3.850   2.619  -3.874  0.00  0.00    +0.265 C 
ATOM     26  O   UNL     1      -4.543   3.086  -2.991  0.00  0.00    -0.271 OA
ATOM     27  C   UNL     1      -4.174   2.839  -5.339  0.00  0.00    +0.210 C 
ATOM     28  N   UNL     1      -3.260   2.223  -6.315  0.00  0.00    -0.197 NA
ATOM     29  N   UNL     1      -2.291   1.575  -5.897  0.00  0.00    -0.253 N 
ATOM     30  C   UNL     1      -5.581   2.296  -5.601  0.00  0.00    +0.044 C 
ATOM     31  H   UNL     1      -0.370   0.276  -4.932  0.00  0.00    +0.173 HD
ATOM     32  H   UNL     1      -1.691   1.175  -6.545  0.00  0.00    +0.191 HD
ENDBRANCH  20  22
ENDBRANCH   3  18
TORSDOF 4
