REMARK  Name = ZINC38873961
REMARK  6 active torsions:
REMARK  status: ('A' for Active; 'I' for Inactive)
REMARK    1  A    between atoms: C_2  and  C_3
REMARK    2  A    between atoms: C_3  and  N_4
REMARK    3  A    between atoms: C_8  and  S_24
REMARK    4  A    between atoms: N_13  and  C_14
REMARK    5  A    between atoms: C_14  and  C_16
REMARK    6  A    between atoms: S_24  and  N_27
REMARK                            x       y       z     vdW  Elec       q    Type
REMARK                         _______ _______ _______ _____ _____    ______ ____
ROOT
ATOM      1  N   UNL     1       1.357   1.975  -0.000  0.00  0.00    -0.310 N 
ATOM      2  C   UNL     1       2.020   2.204   1.190  0.00  0.00    +0.059 A 
ATOM      3  C   UNL     1       1.569   2.020   2.505  0.00  0.00    +0.029 A 
ATOM      4  C   UNL     1       2.386   2.308   3.573  0.00  0.00    +0.030 A 
ATOM      5  C   UNL     1       3.672   2.785   3.383  0.00  0.00    +0.106 A 
ATOM      6  C   UNL     1       4.142   2.975   2.095  0.00  0.00    +0.045 A 
ATOM      7  C   UNL     1       3.326   2.687   1.027  0.00  0.00    +0.041 A 
ATOM      8  S   UNL     1       3.506   2.777  -0.735  0.00  0.00    -0.052 S 
ATOM      9  C   UNL     1       1.985   2.217  -1.180  0.00  0.00    +0.168 A 
ATOM     10  N   UNL     1       1.505   2.050  -2.408  0.00  0.00    -0.152 NA
ENDROOT
BRANCH   5  11
ATOM     11  S   UNL     1       4.700   3.148   4.767  0.00  0.00    +0.056 S 
ATOM     12  O   UNL     1       5.662   4.096   4.322  0.00  0.00    -0.153 OA
ATOM     13  O   UNL     1       3.831   3.402   5.863  0.00  0.00    -0.153 OA
BRANCH  11  14
ATOM     14  N   UNL     1       5.534   1.765   5.135  0.00  0.00    -0.204 NA
ATOM     15  H   UNL     1       5.396   0.962   4.609  0.00  0.00    +0.144 HD
ATOM     16  H   UNL     1       6.160   1.758   5.875  0.00  0.00    +0.144 HD
ENDBRANCH  11  14
ENDBRANCH   5  11
BRANCH  10  17
ATOM     17  C   UNL     1       2.266   2.340  -3.468  0.00  0.00    +0.274 C 
ATOM     18  O   UNL     1       3.401   2.757  -3.309  0.00  0.00    -0.268 OA
BRANCH  17  19
ATOM     19  C   UNL     1       1.732   2.155  -4.835  0.00  0.00    +0.092 A 
ATOM     20  C   UNL     1       1.065   3.203  -5.477  0.00  0.00    +0.137 A 
ATOM     21  C   UNL     1       0.569   3.022  -6.755  0.00  0.00    +0.039 A 
ATOM     22  C   UNL     1       0.731   1.808  -7.397  0.00  0.00    +0.004 A 
ATOM     23  C   UNL     1       1.389   0.767  -6.768  0.00  0.00    +0.021 A 
ATOM     24  C   UNL     1       1.895   0.934  -5.494  0.00  0.00    +0.056 A 
ATOM     25 CL   UNL     1       2.728  -0.372  -4.710  0.00  0.00    -0.083 Cl
ATOM     26  F   UNL     1       0.906   4.389  -4.850  0.00  0.00    -0.205 F 
ENDBRANCH  17  19
ENDBRANCH  10  17
BRANCH   1  27
ATOM     27  C   UNL     1      -0.018   1.468   0.010  0.00  0.00    +0.212 C 
BRANCH  27  29
ATOM     28  C   UNL     1       0.018  -1.178  -0.004  0.00  0.00    +0.005 C 
ATOM     29  C   UNL     1       0.002  -0.004   0.002  0.00  0.00    -0.084 C 
ENDBRANCH  27  29
ENDBRANCH   1  27
TORSDOF 6
