REMARK  Name = ZINC28467586
REMARK  6 active torsions:
REMARK  status: ('A' for Active; 'I' for Inactive)
REMARK    1  A    between atoms: C_1  and  C_2
REMARK    2  A    between atoms: C_9  and  N_26
REMARK    3  A    between atoms: C_10  and  C_13
REMARK    4  A    between atoms: N_17  and  C_21
REMARK    5  A    between atoms: C_28  and  C_35
REMARK    6  A    between atoms: C_31  and  C_34
REMARK                            x       y       z     vdW  Elec       q    Type
REMARK                         _______ _______ _______ _____ _____    ______ ____
ROOT
ATOM      1  C   UNL     1      -6.709   8.395   0.902  0.00  0.00    +0.047 C 
ATOM      2  C   UNL     1      -6.320   6.950   0.726  0.00  0.00    -0.007 A 
ATOM      3  C   UNL     1      -7.261   5.969   0.823  0.00  0.00    +0.008 A 
ATOM      4  C   UNL     1      -6.884   4.629   0.656  0.00  0.00    +0.019 A 
ATOM      5  C   UNL     1      -5.594   4.315   0.400  0.00  0.00    +0.096 A 
ATOM      6  N   UNL     1      -4.645   5.289   0.300  0.00  0.00    -0.267 N 
ATOM      7  C   UNL     1      -4.983   6.604   0.459  0.00  0.00    +0.145 A 
ATOM      8  N   UNL     1      -4.069   7.571   0.365  0.00  0.00    -0.213 NA
ATOM      9  C   UNL     1      -2.796   7.302   0.116  0.00  0.00    +0.136 A 
ATOM     10  C   UNL     1      -2.387   5.958  -0.057  0.00  0.00    +0.081 A 
ATOM     11  C   UNL     1      -3.366   4.941   0.039  0.00  0.00    +0.267 A 
ATOM     12  O   UNL     1      -3.060   3.770  -0.108  0.00  0.00    -0.267 OA
ENDROOT
BRANCH  10  13
ATOM     13  C   UNL     1      -1.035   5.640  -0.325  0.00  0.00    +0.037 C 
ATOM     14  C   UNL     1      -0.404   6.196  -1.400  0.00  0.00    +0.077 C 
ATOM     15  C   UNL     1       0.962   6.107  -1.794  0.00  0.00    +0.259 C 
ATOM     16  O   UNL     1       1.762   5.463  -1.138  0.00  0.00    -0.269 OA
ATOM     17  N   UNL     1       1.337   6.742  -2.890  0.00  0.00    -0.252 N 
ATOM     18  C   UNL     1       0.449   7.457  -3.617  0.00  0.00    +0.121 C 
ATOM     19  S   UNL     1       0.710   8.350  -5.054  0.00  0.00    -0.027 S 
ATOM     20  S   UNL     1      -1.064   7.238  -2.693  0.00  0.00    -0.061 S 
BRANCH  17  21
ATOM     21  C   UNL     1       2.734   6.671  -3.324  0.00  0.00    +0.083 C 
ATOM     22  C   UNL     1       3.331   8.091  -3.418  0.00  0.00    +0.023 C 
ATOM     23  C   UNL     1       4.259   8.030  -4.658  0.00  0.00    +0.002 C 
ATOM     24  C   UNL     1       3.462   7.135  -5.639  0.00  0.00    +0.002 C 
ATOM     25  C   UNL     1       2.818   6.063  -4.735  0.00  0.00    +0.023 C 
ENDBRANCH  17  21
ENDBRANCH  10  13
BRANCH   9  26
ATOM     26  N   UNL     1      -1.876   8.324   0.025  0.00  0.00    -0.314 N 
ATOM     27  C   UNL     1      -2.541   9.633   0.034  0.00  0.00    +0.109 C 
ATOM     28  C   UNL     1      -1.507  10.734  -0.214  0.00  0.00    +0.004 C 
ATOM     29  C   UNL     1      -0.436  10.677   0.879  0.00  0.00    +0.009 C 
ATOM     30  C   UNL     1       0.207   9.287   0.880  0.00  0.00    +0.004 C 
ATOM     31  C   UNL     1      -0.876   8.229   1.097  0.00  0.00    +0.109 C 
ATOM     32  C   UNL     1       1.237   9.203   2.009  0.00  0.00    +0.009 C 
ATOM     33  C   UNL     1      -2.197  12.099  -0.182  0.00  0.00    +0.009 C 
ENDBRANCH   9  26
TORSDOF 3
