REMARK  Name = ZINC18200272
REMARK  5 active torsions:
REMARK  status: ('A' for Active; 'I' for Inactive)
REMARK    1  A    between atoms: C_3  and  C_6
REMARK    2  A    between atoms: C_11  and  C_22
REMARK    3  A    between atoms: C_19  and  O_20
REMARK    4  A    between atoms: C_25  and  O_28
REMARK    5  A    between atoms: O_28  and  C_29
REMARK                            x       y       z     vdW  Elec       q    Type
REMARK                         _______ _______ _______ _____ _____    ______ ____
ROOT
ATOM      1  C   UNL     1       3.599   0.625  -0.029  0.00  0.00    +0.068 C 
ATOM      2  C   UNL     1       4.109  -0.125   1.202  0.00  0.00    +0.063 C 
ATOM      3  C   UNL     1       5.619  -0.199   1.165  0.00  0.00    +0.017 C 
ATOM      4  C   UNL     1       6.281  -0.245  -0.011  0.00  0.00    +0.024 C 
ATOM      5  C   UNL     1       7.791  -0.324  -0.090  0.00  0.00    +0.092 C 
ATOM      6  C   UNL     1       8.351  -0.676   1.258  0.00  0.00    +0.067 A 
ATOM      7  C   UNL     1       7.601  -0.614   2.403  0.00  0.00    +0.126 A 
ATOM      8  N   UNL     1       8.389  -0.984   3.431  0.00  0.00    -0.260 N 
ATOM      9  H   UNL     1       8.127  -1.033   4.363  0.00  0.00    +0.190 HD
ATOM     10  N   UNL     1       9.657  -1.286   2.910  0.00  0.00    -0.134 NA
ATOM     11  C   UNL     1       9.629  -1.100   1.609  0.00  0.00    +0.237 A 
ATOM     12  N   UNL     1       6.267  -0.224   2.375  0.00  0.00    -0.303 N 
ATOM     13  C   UNL     1       5.585  -0.214  -1.233  0.00  0.00    +0.162 C 
ATOM     14  O   UNL     1       6.210  -0.268  -2.274  0.00  0.00    -0.292 OA
ATOM     15  C   UNL     1       4.086  -0.114  -1.281  0.00  0.00    +0.091 C 
ATOM     16  H   UNL     1       5.806   0.025   3.191  0.00  0.00    +0.153 HD
ENDROOT
BRANCH   5  17
ATOM     17  C   UNL     1       8.340   1.010  -0.528  0.00  0.00    -0.035 A 
ATOM     18  C   UNL     1       8.107   2.137   0.239  0.00  0.00    +0.008 A 
ATOM     19  C   UNL     1       8.610   3.361  -0.160  0.00  0.00    +0.046 A 
ATOM     20  C   UNL     1       9.348   3.458  -1.331  0.00  0.00    +0.130 A 
ATOM     21  C   UNL     1       9.580   2.325  -2.098  0.00  0.00    +0.046 A 
ATOM     22  C   UNL     1       9.080   1.103  -1.692  0.00  0.00    +0.008 A 
BRANCH  20  23
ATOM     23  O   UNL     1       9.842   4.660  -1.726  0.00  0.00    -0.406 OA
BRANCH  23  24
ATOM     24  C   UNL     1      10.593   4.686  -2.941  0.00  0.00    +0.575 C 
ATOM     25  F   UNL     1       9.787   4.246  -3.997  0.00  0.00    -0.133 F 
ATOM     26  F   UNL     1      11.024   5.992  -3.196  0.00  0.00    -0.133 F 
ATOM     27  F   UNL     1      11.704   3.844  -2.821  0.00  0.00    -0.133 F 
ENDBRANCH  23  24
ENDBRANCH  20  23
ENDBRANCH   5  17
BRANCH   1  30
ATOM     28  C   UNL     1      -0.016   1.341   0.009  0.00  0.00    +0.041 A 
ATOM     29  C   UNL     1       1.331   1.769  -0.001  0.00  0.00    +0.045 A 
ATOM     30  C   UNL     1       2.092   0.660  -0.014  0.00  0.00    +0.109 A 
ATOM     31  O   UNL     1       1.282  -0.411  -0.012  0.00  0.00    -0.468 OA
ATOM     32  C   UNL     1       0.002  -0.004   0.002  0.00  0.00    +0.195 A 
ENDBRANCH   1  30
BRANCH  11  34
ATOM     33  H   UNL     1      11.217  -0.504   0.620  0.00  0.00    +0.294 HD
ATOM     34  O   UNL     1      10.669  -1.290   0.753  0.00  0.00    -0.491 OA
ENDBRANCH  11  34
TORSDOF 5
