REMARK  Name = ZINC14739531
REMARK  11 active torsions:
REMARK  status: ('A' for Active; 'I' for Inactive)
REMARK    1  A    between atoms: C_1  and  C_2
REMARK    2  A    between atoms: C_6  and  C_29
REMARK    3  A    between atoms: C_7  and  N_8
REMARK    4  A    between atoms: C_9  and  C_11
REMARK    5  A    between atoms: N_16  and  C_18
REMARK    6  A    between atoms: C_21  and  O_26
REMARK    7  A    between atoms: C_23  and  O_24
REMARK    8  A    between atoms: O_24  and  C_25
REMARK    9  A    between atoms: O_26  and  C_27
REMARK   10  A    between atoms: C_29  and  C_30
REMARK   11  A    between atoms: C_29  and  C_31
REMARK                            x       y       z     vdW  Elec       q    Type
REMARK                         _______ _______ _______ _____ _____    ______ ____
ROOT
ATOM      1  C   UNL     1       1.182   7.357  -0.756  0.00  0.00    +0.102 C 
ATOM      2  C   UNL     1       0.223   7.913  -1.833  0.00  0.00    +0.110 C 
ATOM      3  C   UNL     1       0.969   9.090  -2.422  0.00  0.00    +0.221 C 
ATOM      4  O   UNL     1       0.466   9.965  -3.095  0.00  0.00    -0.275 OA
ATOM      5  N   UNL     1       2.270   9.025  -2.091  0.00  0.00    -0.267 N 
ATOM      6  C   UNL     1       2.554   7.837  -1.278  0.00  0.00    +0.127 C 
ENDROOT
BRANCH   5   7
ATOM      7  C   UNL     1       3.233   9.971  -2.474  0.00  0.00    +0.080 A 
ATOM      8  C   UNL     1       3.935   9.806  -3.659  0.00  0.00    +0.051 A 
ATOM      9  C   UNL     1       4.880  10.741  -4.039  0.00  0.00    +0.084 A 
ATOM     10  C   UNL     1       5.135  11.840  -3.230  0.00  0.00    +0.142 A 
ATOM     11  C   UNL     1       4.439  12.006  -2.043  0.00  0.00    +0.094 A 
ATOM     12  C   UNL     1       3.487  11.073  -1.663  0.00  0.00    +0.145 A 
ATOM     13 CL   UNL     1       5.754  10.537  -5.525  0.00  0.00    -0.080 Cl
BRANCH  12  14
ATOM     14  O   UNL     1       2.803  11.235  -0.499  0.00  0.00    -0.493 OA
ATOM     15  C   UNL     1       3.117  12.389   0.283  0.00  0.00    +0.277 C 
ENDBRANCH  12  14
BRANCH  10  16
ATOM     16  O   UNL     1       6.069  12.756  -3.603  0.00  0.00    -0.494 OA
ATOM     17  C   UNL     1       6.280  13.862  -2.724  0.00  0.00    +0.277 C 
ENDBRANCH  10  16
ENDBRANCH   5   7
BRANCH   1  19
ATOM     18  N   UNL     1       0.001   5.237  -0.274  0.00  0.00    -0.285 N 
ATOM     19  C   UNL     1       1.121   5.852  -0.705  0.00  0.00    +0.222 C 
ATOM     20  O   UNL     1       2.079   5.194  -1.051  0.00  0.00    -0.275 OA
ATOM     21  H   UNL     1      -0.791   5.759  -0.070  0.00  0.00    +0.155 HD
BRANCH  18  28
ATOM     22  C   UNL     1       1.431   4.104   1.909  0.00  0.00    +0.045 C 
ATOM     23  C   UNL     1       0.665   3.252   0.930  0.00  0.00    -0.029 A 
ATOM     24  C   UNL     1       0.644   1.879   1.078  0.00  0.00    +0.005 A 
ATOM     25  C   UNL     1      -0.057   1.096   0.179  0.00  0.00    +0.001 A 
ATOM     26  C   UNL     1      -0.735   1.685  -0.873  0.00  0.00    +0.006 A 
ATOM     27  C   UNL     1      -0.723   3.058  -1.022  0.00  0.00    -0.023 A 
ATOM     28  C   UNL     1      -0.019   3.846  -0.122  0.00  0.00    +0.040 A 
BRANCH  27  29
ATOM     29  C   UNL     1      -1.467   3.698  -2.166  0.00  0.00    +0.015 C 
ATOM     30  C   UNL     1      -0.915   3.172  -3.492  0.00  0.00    +0.012 C 
ATOM     31  C   UNL     1      -2.954   3.357  -2.061  0.00  0.00    +0.012 C 
ENDBRANCH  27  29
ENDBRANCH  18  28
ENDBRANCH   1  19
TORSDOF 6
