REMARK  Name = ZINC08748476
REMARK  10 active torsions:
REMARK  status: ('A' for Active; 'I' for Inactive)
REMARK    1  A    between atoms: C_1  and  C_2
REMARK    2  A    between atoms: C_2  and  C_3
REMARK    3  A    between atoms: C_2  and  C_4
REMARK    4  A    between atoms: C_4  and  C_6
REMARK    5  A    between atoms: C_4  and  N_49
REMARK    6  A    between atoms: C_13  and  C_14
REMARK    7  A    between atoms: C_13  and  N_49
REMARK    8  A    between atoms: N_16  and  C_17
REMARK    9  A    between atoms: C_20  and  N_23
REMARK   10  A    between atoms: C_24  and  C_26
REMARK                            x       y       z     vdW  Elec       q    Type
REMARK                         _______ _______ _______ _____ _____    ______ ____
ROOT
ATOM      1  C   UNL     1      -6.491   5.885   0.216  0.00  0.00    +0.016 C 
ENDROOT
BRANCH   1   2
ATOM      2  C   UNL     1      -5.210   5.091   0.240  0.00  0.00    +0.200 C 
ATOM      3  O   UNL     1      -4.144   5.658   0.132  0.00  0.00    -0.278 OA
ATOM      4  N   UNL     1      -5.250   3.752   0.383  0.00  0.00    -0.287 N 
ATOM      5  H   UNL     1      -6.097   3.305   0.539  0.00  0.00    +0.155 HD
BRANCH   4   6
ATOM      6  C   UNL     1      -4.068   3.004   0.305  0.00  0.00    +0.033 A 
ATOM      7  C   UNL     1      -4.083   1.739  -0.268  0.00  0.00    +0.025 A 
ATOM      8  C   UNL     1      -2.918   1.002  -0.345  0.00  0.00    +0.025 A 
ATOM      9  C   UNL     1      -1.732   1.526   0.150  0.00  0.00    +0.033 A 
ATOM     10  C   UNL     1      -1.718   2.788   0.729  0.00  0.00    +0.025 A 
ATOM     11  C   UNL     1      -2.881   3.527   0.801  0.00  0.00    +0.025 A 
BRANCH   9  12
ATOM     12  N   UNL     1      -0.550   0.778   0.072  0.00  0.00    -0.286 N 
ATOM     13  C   UNL     1      -0.325  -0.018  -0.992  0.00  0.00    +0.214 C 
ATOM     14  O   UNL     1      -1.181  -0.151  -1.842  0.00  0.00    -0.276 OA
ATOM     15  C   UNL     1       0.989  -0.744  -1.127  0.00  0.00    +0.109 C 
ATOM     16  H   UNL     1       0.106   0.830   0.785  0.00  0.00    +0.155 HD
ENDBRANCH   9  12
ENDBRANCH   4   6
ENDBRANCH   1   2
BRANCH   1  17
ATOM     17  N   UNL     1      -6.171   7.315   0.051  0.00  0.00    +0.389 N 
ATOM     18  H   UNL     1      -5.520   7.604   0.790  0.00  0.00    -0.084 HD
ATOM     19  H   UNL     1      -5.733   7.460  -0.867  0.00  0.00    -0.084 HD
BRANCH  17  20
ATOM     20  C   UNL     1      -7.398   8.128   0.138  0.00  0.00    -0.038 C 
BRANCH  20  21
ATOM     21  C   UNL     1      -7.027   9.549   0.475  0.00  0.00    -0.061 A 
ATOM     22  C   UNL     1      -5.910  10.127  -0.099  0.00  0.00    +0.003 A 
ATOM     23  C   UNL     1      -5.572  11.432   0.206  0.00  0.00    +0.020 A 
ATOM     24  C   UNL     1      -6.346  12.156   1.095  0.00  0.00    +0.041 A 
ATOM     25  C   UNL     1      -7.460  11.576   1.674  0.00  0.00    +0.020 A 
ATOM     26  C   UNL     1      -7.800  10.273   1.364  0.00  0.00    +0.003 A 
ATOM     27 CL   UNL     1      -5.918  13.793   1.485  0.00  0.00    -0.084 Cl
ENDBRANCH  20  21
BRANCH  20  29
ATOM     28  C   UNL     1      -9.381   8.973  -1.127  0.00  0.00    +0.006 C 
ATOM     29  C   UNL     1      -8.128   8.098  -1.207  0.00  0.00    -0.027 C 
ATOM     30  C   UNL     1      -7.203   8.631  -2.302  0.00  0.00    +0.006 C 
ENDBRANCH  20  29
ENDBRANCH  17  20
ENDBRANCH   1  17
TORSDOF 7
