REMARK  Name = ZINC01130153
REMARK  5 active torsions:
REMARK  status: ('A' for Active; 'I' for Inactive)
REMARK    1  A    between atoms: C_1  and  C_2
REMARK    2  A    between atoms: C_2  and  S_3
REMARK    3  A    between atoms: S_3  and  C_4
REMARK    4  A    between atoms: C_17  and  C_20
REMARK    5  A    between atoms: C_29  and  C_31
REMARK                            x       y       z     vdW  Elec       q    Type
REMARK                         _______ _______ _______ _____ _____    ______ ____
ROOT
ATOM      1  C   UNL     1      -0.330   8.076   0.068  0.00  0.00    +0.212 A 
ATOM      2  N   UNL     1      -1.109   7.417  -0.785  0.00  0.00    -0.184 NA
ATOM      3  C   UNL     1      -1.005   6.102  -0.872  0.00  0.00    +0.248 A 
ATOM      4  C   UNL     1      -0.069   5.438  -0.047  0.00  0.00    +0.156 A 
ATOM      5  N   UNL     1       0.677   6.153   0.780  0.00  0.00    -0.141 NA
ATOM      6  N   UNL     1       0.546   7.434   0.831  0.00  0.00    -0.122 NA
ATOM      7  C   UNL     1       0.057   3.968  -0.122  0.00  0.00    +0.030 A 
ATOM      8  C   UNL     1       1.296   3.347  -0.212  0.00  0.00    +0.027 A 
ATOM      9  C   UNL     1       1.372   1.968  -0.261  0.00  0.00    +0.019 A 
ATOM     10  C   UNL     1       0.219   1.202  -0.216  0.00  0.00    +0.017 A 
ATOM     11  C   UNL     1      -1.021   1.807  -0.132  0.00  0.00    +0.025 A 
ATOM     12  C   UNL     1      -1.113   3.186  -0.086  0.00  0.00    +0.049 A 
ATOM     13  N   UNL     1      -2.354   3.833  -0.022  0.00  0.00    -0.231 N 
ATOM     14  C   UNL     1      -2.811   4.593  -1.181  0.00  0.00    +0.303 C 
ATOM     15  O   UNL     1      -1.769   5.390  -1.734  0.00  0.00    -0.448 OA
ATOM     16  C   UNL     1      -3.112   3.755   1.090  0.00  0.00    +0.220 C 
ATOM     17  O   UNL     1      -4.184   4.319   1.134  0.00  0.00    -0.275 OA
ATOM     18  C   UNL     1      -2.626   2.967   2.279  0.00  0.00    +0.110 C 
ATOM     19 BR   UNL     1       3.058   1.123  -0.391  0.00  0.00    -0.050 Br
ENDROOT
BRANCH  14  20
ATOM     20  C   UNL     1      -3.306   3.633  -2.233  0.00  0.00    +0.015 A 
ATOM     21  C   UNL     1      -3.987   2.490  -1.858  0.00  0.00    +0.013 A 
ATOM     22  C   UNL     1      -4.443   1.607  -2.819  0.00  0.00    +0.050 A 
ATOM     23  C   UNL     1      -4.219   1.867  -4.161  0.00  0.00    +0.166 A 
ATOM     24  C   UNL     1      -3.533   3.019  -4.539  0.00  0.00    +0.167 A 
ATOM     25  C   UNL     1      -3.083   3.901  -3.571  0.00  0.00    +0.058 A 
ATOM     26  O   UNL     1      -3.442   3.046  -5.901  0.00  0.00    -0.453 OA
ATOM     27  C   UNL     1      -3.719   1.700  -6.331  0.00  0.00    +0.466 C 
ATOM     28  O   UNL     1      -4.558   1.172  -5.286  0.00  0.00    -0.453 OA
ENDBRANCH  14  20
BRANCH   1  29
ATOM     29  S   UNL     1      -0.464   9.829   0.189  0.00  0.00    -0.085 S 
BRANCH  29  31
ATOM     30  C   UNL     1       0.853  11.656   1.735  0.00  0.00    +0.016 C 
ATOM     31  C   UNL     1       0.787  10.153   1.456  0.00  0.00    +0.074 C 
ENDBRANCH  29  31
ENDBRANCH   1  29
TORSDOF 3
