REMARK  Name = ZINC16524591
REMARK  6 active torsions:
REMARK  status: ('A' for Active; 'I' for Inactive)
REMARK    1  A    between atoms: N_10  and  C_11
REMARK    2  A    between atoms: C_11  and  N_12
REMARK    3  A    between atoms: N_15  and  C_18
REMARK    4  A    between atoms: C_27  and  C_30
REMARK    5  A    between atoms: C_30  and  O_31
REMARK    6  A    between atoms: O_31  and  C_32
REMARK                            x       y       z     vdW  Elec       q    Type
REMARK                         _______ _______ _______ _____ _____    ______ ____
ROOT
ATOM      1  C   UNL     1      -0.017   1.379   0.010  0.00  0.00    +0.001 A 
ATOM      2  C   UNL     1       1.174   2.084   0.002  0.00  0.00    +0.002 A 
ATOM      3  C   UNL     1       2.380   1.414  -0.013  0.00  0.00    +0.024 A 
ATOM      4  C   UNL     1       2.407   0.021  -0.021  0.00  0.00    +0.047 A 
ATOM      5  C   UNL     1       1.204  -0.675  -0.013  0.00  0.00    +0.042 A 
ATOM      6  C   UNL     1       0.002  -0.004   0.002  0.00  0.00    +0.011 A 
ATOM      7  C   UNL     1       1.567  -2.138  -0.025  0.00  0.00    +0.279 C 
ATOM      8  C   UNL     1       3.077  -2.153  -0.040  0.00  0.00    +0.286 C 
ATOM      9  O   UNL     1       3.789  -3.135  -0.052  0.00  0.00    -0.269 OA
ATOM     10  N   UNL     1       3.481  -0.870  -0.037  0.00  0.00    -0.253 N 
ATOM     11  O   UNL     1       1.069  -2.792   1.148  0.00  0.00    -0.335 OA
ATOM     12  C   UNL     1       0.730  -4.130   0.706  0.00  0.00    +0.199 C 
ATOM     13  C   UNL     1       0.207  -3.867  -0.729  0.00  0.00    +0.185 C 
ATOM     14  O   UNL     1       1.043  -2.783  -1.187  0.00  0.00    -0.329 OA
ENDROOT
BRANCH  10  15
ATOM     15  C   UNL     1       4.886  -0.456  -0.048  0.00  0.00    +0.200 C 
BRANCH  15  16
ATOM     16  N   UNL     1       5.370  -0.326   1.333  0.00  0.00    -0.284 NA
ATOM     17  C   UNL     1       4.961   0.960   1.915  0.00  0.00    +0.105 C 
ATOM     18  C   UNL     1       5.324   0.982   3.403  0.00  0.00    +0.120 C 
ATOM     19  N   UNL     1       6.753   0.664   3.540  0.00  0.00    -0.325 N 
ATOM     20  C   UNL     1       7.266  -0.539   2.868  0.00  0.00    +0.120 C 
ATOM     21  C   UNL     1       6.826  -0.502   1.400  0.00  0.00    +0.105 C 
BRANCH  19  22
ATOM     22  C   UNL     1       7.603   1.484   4.290  0.00  0.00    +0.065 A 
ATOM     23  C   UNL     1       7.791   1.238   5.643  0.00  0.00    +0.026 A 
ATOM     24  C   UNL     1       8.631   2.049   6.382  0.00  0.00    +0.002 A 
ATOM     25  C   UNL     1       9.284   3.106   5.775  0.00  0.00    +0.003 A 
ATOM     26  C   UNL     1       9.099   3.356   4.428  0.00  0.00    +0.040 A 
ATOM     27  C   UNL     1       8.265   2.544   3.681  0.00  0.00    +0.144 A 
ATOM     28  F   UNL     1       8.089   2.784   2.363  0.00  0.00    -0.204 F 
ENDBRANCH  19  22
ENDBRANCH  15  16
ENDBRANCH  10  15
BRANCH  13  29
ATOM     29  C   UNL     1       0.393  -5.106  -1.607  0.00  0.00    +0.263 C 
BRANCH  29  30
ATOM     30  O   UNL     1      -0.201  -4.877  -2.886  0.00  0.00    -0.489 OA
BRANCH  30  31
ATOM     31  C   UNL     1      -0.124  -5.887  -3.792  0.00  0.00    +0.121 A 
ATOM     32  C   UNL     1       0.504  -7.076  -3.455  0.00  0.00    +0.047 A 
ATOM     33  C   UNL     1       0.582  -8.102  -4.377  0.00  0.00    +0.023 A 
ATOM     34  C   UNL     1       0.032  -7.943  -5.637  0.00  0.00    +0.041 A 
ATOM     35  C   UNL     1      -0.595  -6.757  -5.976  0.00  0.00    +0.023 A 
ATOM     36  C   UNL     1      -0.680  -5.732  -5.054  0.00  0.00    +0.047 A 
ATOM     37 CL   UNL     1       0.131  -9.233  -6.795  0.00  0.00    -0.084 Cl
ENDBRANCH  30  31
ENDBRANCH  29  30
ENDBRANCH  13  29
TORSDOF 6
