REMARK  Name = ZINC00625552
REMARK  5 active torsions:
REMARK  status: ('A' for Active; 'I' for Inactive)
REMARK    1  A    between atoms: C_1  and  O_2
REMARK    2  A    between atoms: O_2  and  C_3
REMARK    3  A    between atoms: C_4  and  C_11
REMARK    4  A    between atoms: C_25  and  N_29
REMARK    5  A    between atoms: C_26  and  C_27
REMARK                            x       y       z     vdW  Elec       q    Type
REMARK                         _______ _______ _______ _____ _____    ______ ____
ROOT
ATOM      1  C   UNL     1       0.026   0.040   2.509  0.00  0.00    +0.109 C 
ATOM      2  C   UNL     1      -1.201  -0.333   3.297  0.00  0.00    +0.092 A 
ATOM      3  C   UNL     1      -1.113  -1.193   4.351  0.00  0.00    +0.152 A 
ATOM      4  C   UNL     1      -2.347  -1.525   5.082  0.00  0.00    +0.060 A 
ATOM      5  C   UNL     1      -2.327  -2.402   6.169  0.00  0.00    +0.015 A 
ATOM      6  C   UNL     1      -3.500  -2.692   6.830  0.00  0.00    +0.001 A 
ATOM      7  C   UNL     1      -4.695  -2.117   6.421  0.00  0.00    +0.004 A 
ATOM      8  C   UNL     1      -4.728  -1.249   5.350  0.00  0.00    +0.047 A 
ATOM      9  C   UNL     1      -3.556  -0.944   4.670  0.00  0.00    +0.143 A 
ATOM     10  O   UNL     1      -3.569  -0.096   3.618  0.00  0.00    -0.422 OA
ATOM     11  C   UNL     1      -2.449   0.209   2.945  0.00  0.00    +0.345 A 
ATOM     12  O   UNL     1      -2.516   0.979   2.002  0.00  0.00    -0.245 OA
ATOM     13  O   UNL     1       0.062  -1.733   4.725  0.00  0.00    -0.440 OA
ATOM     14  C   UNL     1       1.217  -1.169   4.330  0.00  0.00    +0.199 C 
ATOM     15  C   UNL     1       1.266  -0.314   3.280  0.00  0.00    +0.098 C 
ENDROOT
BRANCH   1  17
ATOM     16  C   UNL     1       0.002  -0.004   0.002  0.00  0.00    +0.142 A 
ATOM     17  C   UNL     1       0.023  -0.705   1.199  0.00  0.00    +0.010 A 
ATOM     18  C   UNL     1       0.042  -2.086   1.189  0.00  0.00    +0.028 A 
ATOM     19  C   UNL     1       0.040  -2.771  -0.013  0.00  0.00    +0.043 A 
ATOM     20  C   UNL     1       0.019  -2.075  -1.208  0.00  0.00    +0.043 A 
ATOM     21  C   UNL     1      -0.006  -0.693  -1.203  0.00  0.00    +0.084 A 
ATOM     22 CL   UNL     1      -0.040   0.181  -2.703  0.00  0.00    -0.080 Cl
ATOM     23 CL   UNL     1       0.063  -4.507  -0.021  0.00  0.00    -0.083 Cl
BRANCH  16  25
ATOM     24  C   UNL     1       1.248   2.021   0.001  0.00  0.00    +0.277 C 
ATOM     25  O   UNL     1      -0.016   1.355   0.009  0.00  0.00    -0.493 OA
ENDBRANCH  16  25
ENDBRANCH   1  17
BRANCH  14  26
ATOM     26  N   UNL     1       2.373  -1.466   5.007  0.00  0.00    -0.328 N 
ATOM     27  H   UNL     1       3.213  -1.065   4.732  0.00  0.00    +0.145 HD
ATOM     28  H   UNL     1       2.351  -2.076   5.760  0.00  0.00    +0.145 HD
ENDBRANCH  14  26
BRANCH  15  29
ATOM     29  C   UNL     1       2.521   0.263   2.900  0.00  0.00    +0.101 C 
ATOM     30  N   UNL     1       3.516   0.720   2.598  0.00  0.00    -0.191 NA
ENDBRANCH  15  29
TORSDOF 4
