REMARK  Name = ZINC10064695
REMARK  7 active torsions:
REMARK  status: ('A' for Active; 'I' for Inactive)
REMARK    1  A    between atoms: C_1  and  C_2
REMARK    2  A    between atoms: C_4  and  C_30
REMARK    3  A    between atoms: N_8  and  C_29
REMARK    4  A    between atoms: N_10  and  C_11
REMARK    5  A    between atoms: C_11  and  C_13
REMARK    6  A    between atoms: N_18  and  S_20
REMARK    7  A    between atoms: S_20  and  C_23
REMARK                            x       y       z     vdW  Elec       q    Type
REMARK                         _______ _______ _______ _____ _____    ______ ____
ROOT
ATOM      1  C   UNL     1      -1.503   5.823   0.045  0.00  0.00    +0.243 C 
ATOM      2  O   UNL     1      -0.324   6.122   0.035  0.00  0.00    -0.273 OA
ENDROOT
BRANCH   1  12
ATOM      3  C   UNL     1       1.177  -2.198  -0.021  0.00  0.00    +0.044 C 
ATOM      4  C   UNL     1       1.193  -0.691  -0.013  0.00  0.00    -0.048 A 
ATOM      5  C   UNL     1       2.406  -0.024  -0.021  0.00  0.00    +0.008 A 
ATOM      6  C   UNL     1       2.417   1.360  -0.014  0.00  0.00    -0.034 A 
ATOM      7  C   UNL     1       1.227   2.048   0.001  0.00  0.00    +0.042 A 
ATOM      8  C   UNL     1      -0.017   1.400   0.010  0.00  0.00    +0.058 A 
ATOM      9  C   UNL     1       0.002  -0.004   0.002  0.00  0.00    +0.030 A 
ATOM     10  N   UNL     1      -1.113   2.243   0.019  0.00  0.00    -0.324 N 
ATOM     11  C   UNL     1      -0.936   3.590   0.029  0.00  0.00    +0.166 A 
ATOM     12  N   UNL     1      -1.864   4.544   0.043  0.00  0.00    -0.156 NA
ATOM     13  S   UNL     1       0.789   3.768   0.014  0.00  0.00    -0.052 S 
ATOM     14  C   UNL     1      -2.466   1.682   0.023  0.00  0.00    +0.151 C 
ATOM     15  C   UNL     1       3.725   2.108  -0.023  0.00  0.00    +0.045 C 
ENDBRANCH   1  12
BRANCH   1  16
ATOM     16  C   UNL     1      -2.553   6.903   0.061  0.00  0.00    +0.093 C 
ATOM     17  C   UNL     1      -3.413   6.761   1.319  0.00  0.00    +0.015 C 
ATOM     18  C   UNL     1      -4.501   7.838   1.319  0.00  0.00    +0.018 C 
ATOM     19  C   UNL     1      -3.845   9.222   1.335  0.00  0.00    +0.109 C 
ATOM     20  N   UNL     1      -2.906   9.313   0.208  0.00  0.00    -0.175 NA
ATOM     21  C   UNL     1      -1.875   8.277   0.062  0.00  0.00    +0.122 C 
BRANCH  20  22
ATOM     22  S   UNL     1      -3.008  10.560  -0.876  0.00  0.00    +0.067 S 
ATOM     23  O   UNL     1      -3.659  11.630  -0.205  0.00  0.00    -0.152 OA
ATOM     24  O   UNL     1      -1.720  10.698  -1.459  0.00  0.00    -0.152 OA
BRANCH  22  25
ATOM     25  C   UNL     1      -4.091  10.041  -2.166  0.00  0.00    +0.143 A 
ATOM     26  C   UNL     1      -5.436  10.179  -2.258  0.00  0.00    +0.036 A 
ATOM     27  C   UNL     1      -6.085   9.693  -3.378  0.00  0.00    +0.010 A 
ATOM     28  C   UNL     1      -5.357   9.083  -4.346  0.00  0.00    +0.047 A 
ATOM     29  S   UNL     1      -3.702   9.191  -3.687  0.00  0.00    -0.077 S 
ENDBRANCH  22  25
ENDBRANCH  20  22
ENDBRANCH   1  16
TORSDOF 4
