REMARK  Name = ZINC09089737
REMARK  6 active torsions:
REMARK  status: ('A' for Active; 'I' for Inactive)
REMARK    1  A    between atoms: C_4  and  N_7
REMARK    2  A    between atoms: N_7  and  C_8
REMARK    3  A    between atoms: C_8  and  N_10
REMARK    4  A    between atoms: N_10  and  N_11
REMARK    5  A    between atoms: N_11  and  C_12
REMARK    6  A    between atoms: N_18  and  C_21
REMARK                            x       y       z     vdW  Elec       q    Type
REMARK                         _______ _______ _______ _____ _____    ______ ____
ROOT
ATOM      1  C   UNL     1       7.201  -2.571   0.223  0.00  0.00    +0.106 C 
ATOM      2  C   UNL     1       8.380  -1.854   0.319  0.00  0.00    +0.116 C 
ATOM      3  C   UNL     1       8.398  -0.380   0.227  0.00  0.00    +0.278 C 
ATOM      4  N   UNL     1       9.579   0.251   0.329  0.00  0.00    -0.123 NA
ATOM      5  C   UNL     1      10.700  -0.400   0.506  0.00  0.00    +0.340 C 
ATOM      6  O   UNL     1      11.841   0.311   0.598  0.00  0.00    -0.250 OA
ATOM      7  N   UNL     1      10.779  -1.754   0.602  0.00  0.00    -0.187 N 
ATOM      8  C   UNL     1       9.674  -2.526   0.524  0.00  0.00    +0.265 C 
ATOM      9  O   UNL     1       9.745  -3.737   0.615  0.00  0.00    -0.269 OA
ATOM     10  O   UNL     1       7.365   0.248   0.061  0.00  0.00    -0.268 OA
ENDROOT
BRANCH   7  11
ATOM     11  C   UNL     1      12.029  -2.360   0.792  0.00  0.00    +0.064 A 
ATOM     12  C   UNL     1      12.503  -2.589   2.076  0.00  0.00    +0.025 A 
ATOM     13  C   UNL     1      13.735  -3.186   2.260  0.00  0.00    +0.002 A 
ATOM     14  C   UNL     1      14.497  -3.555   1.167  0.00  0.00    +0.002 A 
ATOM     15  C   UNL     1      14.028  -3.329  -0.114  0.00  0.00    +0.022 A 
ATOM     16  C   UNL     1      12.793  -2.737  -0.305  0.00  0.00    +0.063 A 
ATOM     17 CL   UNL     1      12.202  -2.459  -1.913  0.00  0.00    -0.082 Cl
ENDBRANCH   7  11
BRANCH   1  18
ATOM     18  N   UNL     1       6.021  -1.922   0.164  0.00  0.00    -0.272 N 
ATOM     19  H   UNL     1       6.002  -0.954   0.115  0.00  0.00    +0.169 HD
BRANCH  18  20
ATOM     20  N   UNL     1       4.822  -2.647   0.175  0.00  0.00    -0.248 N 
ATOM     21  H   UNL     1       4.841  -3.615   0.225  0.00  0.00    +0.172 HD
BRANCH  20  22
ATOM     22  C   UNL     1       3.642  -1.998   0.117  0.00  0.00    +0.151 C 
ATOM     23  S   UNL     1       2.176  -2.883   0.131  0.00  0.00    -0.017 S 
BRANCH  22  24
ATOM     24  N   UNL     1       3.615  -0.652   0.048  0.00  0.00    -0.296 N 
ATOM     25  H   UNL     1       4.443  -0.155  -0.043  0.00  0.00    +0.154 HD
BRANCH  24  29
ATOM     26  C   UNL     1      -0.021   1.373   0.231  0.00  0.00    +0.000 A 
ATOM     27  C   UNL     1       0.207   0.289   1.058  0.00  0.00    +0.002 A 
ATOM     28  C   UNL     1       1.412  -0.385   1.000  0.00  0.00    +0.023 A 
ATOM     29  C   UNL     1       2.394   0.028   0.109  0.00  0.00    +0.033 A 
ATOM     30  C   UNL     1       2.162   1.117  -0.720  0.00  0.00    +0.023 A 
ATOM     31  C   UNL     1       0.955   1.786  -0.657  0.00  0.00    +0.002 A 
ENDBRANCH  24  29
ENDBRANCH  22  24
ENDBRANCH  20  22
ENDBRANCH  18  20
ENDBRANCH   1  18
TORSDOF 6
