REMARK  Name = ZINC37020246
REMARK  8 active torsions:
REMARK  status: ('A' for Active; 'I' for Inactive)
REMARK    1  A    between atoms: C_1  and  C_2
REMARK    2  A    between atoms: C_2  and  C_3
REMARK    3  A    between atoms: C_3  and  C_4
REMARK    4  A    between atoms: C_4  and  C_6
REMARK    5  A    between atoms: C_4  and  N_21
REMARK    6  A    between atoms: N_8  and  C_9
REMARK    7  A    between atoms: C_14  and  O_15
REMARK    8  A    between atoms: O_15  and  C_16
REMARK                            x       y       z     vdW  Elec       q    Type
REMARK                         _______ _______ _______ _____ _____    ______ ____
ROOT
ATOM      1  C   UNL     1      -2.825  -2.578  -0.107  0.00  0.00    +0.203 C 
ATOM      2  O   UNL     1      -3.409  -2.968   0.881  0.00  0.00    -0.277 OA
ATOM      3  N   UNL     1      -3.433  -2.620  -1.310  0.00  0.00    -0.284 N 
ATOM      4  H   UNL     1      -2.992  -2.248  -2.089  0.00  0.00    +0.155 HD
ENDROOT
BRANCH   3   5
ATOM      5  C   UNL     1      -4.703  -3.200  -1.433  0.00  0.00    +0.078 A 
ATOM      6  C   UNL     1      -5.624  -3.083  -0.402  0.00  0.00    +0.047 A 
ATOM      7  C   UNL     1      -6.876  -3.656  -0.525  0.00  0.00    +0.044 A 
ATOM      8  C   UNL     1      -7.214  -4.347  -1.676  0.00  0.00    +0.039 A 
ATOM      9  C   UNL     1      -6.300  -4.467  -2.708  0.00  0.00    +0.063 A 
ATOM     10  C   UNL     1      -5.045  -3.890  -2.593  0.00  0.00    +0.162 A 
ATOM     11 BR   UNL     1      -6.766  -5.412  -4.278  0.00  0.00    -0.046 Br
ATOM     12 CL   UNL     1      -8.027  -3.510   0.766  0.00  0.00    -0.083 Cl
BRANCH  10  13
ATOM     13  O   UNL     1      -4.147  -4.003  -3.609  0.00  0.00    -0.431 OA
BRANCH  13  14
ATOM     14  C   UNL     1      -3.276  -5.135  -3.582  0.00  0.00    +0.541 C 
ATOM     15  F   UNL     1      -2.514  -5.110  -2.409  0.00  0.00    -0.166 F 
ATOM     16  F   UNL     1      -4.036  -6.309  -3.620  0.00  0.00    -0.166 F 
ENDBRANCH  13  14
ENDBRANCH  10  13
ENDBRANCH   3   5
BRANCH   1  17
ATOM     17  C   UNL     1      -1.420  -2.045   0.009  0.00  0.00    +0.013 C 
BRANCH  17  18
ATOM     18  N   UNL     1      -0.816  -2.527   1.258  0.00  0.00    +0.386 N 
ATOM     19  H   UNL     1       0.125  -2.171   1.335  0.00  0.00    -0.089 HD
ATOM     20  H   UNL     1      -1.363  -2.205   2.042  0.00  0.00    -0.089 HD
ATOM     21  H   UNL     1      -0.794  -3.536   1.254  0.00  0.00    -0.089 HD
ENDBRANCH  17  18
BRANCH  17  22
ATOM     22  C   UNL     1      -1.453  -0.516   0.015  0.00  0.00    -0.007 C 
BRANCH  22  24
ATOM     23  C   UNL     1      -0.055   1.555   0.012  0.00  0.00    +0.004 C 
ATOM     24  C   UNL     1      -0.022   0.025   0.006  0.00  0.00    -0.005 C 
ENDBRANCH  22  24
ENDBRANCH  17  22
ENDBRANCH   1  17
TORSDOF 7
