REMARK  Name = ZINC62873952
REMARK  6 active torsions:
REMARK  status: ('A' for Active; 'I' for Inactive)
REMARK    1  A    between atoms: C_1  and  C_2
REMARK    2  A    between atoms: C_2  and  C_17
REMARK    3  A    between atoms: N_10  and  C_11
REMARK    4  A    between atoms: C_11  and  C_12
REMARK    5  A    between atoms: C_12  and  S_13
REMARK    6  A    between atoms: S_13  and  N_16
REMARK                            x       y       z     vdW  Elec       q    Type
REMARK                         _______ _______ _______ _____ _____    ______ ____
ROOT
ATOM      1  C   UNL     1      -0.018   1.529   0.011  0.00  0.00    +0.024 C 
ATOM      2  C   UNL     1       0.002  -0.000   0.001  0.00  0.00    +0.085 C 
ATOM      3  C   UNL     1      -1.434  -0.530   0.016  0.00  0.00    +0.021 C 
ATOM      4  C   UNL     1      -2.159  -0.010   1.259  0.00  0.00    +0.020 C 
ATOM      5  C   UNL     1      -1.443  -0.520   2.514  0.00  0.00    +0.109 C 
ATOM      6  N   UNL     1      -0.026  -0.138   2.438  0.00  0.00    -0.285 N 
ATOM      7  C   UNL     1       0.743  -0.510   1.242  0.00  0.00    +0.127 C 
ATOM      8  C   UNL     1       0.557   0.541   3.445  0.00  0.00    +0.302 C 
ATOM      9  O   UNL     1       1.751   0.771   3.412  0.00  0.00    -0.253 OA
ATOM     10  N   UNL     1      -0.182   0.964   4.489  0.00  0.00    -0.298 N 
ATOM     11  H   UNL     1      -1.118   0.718   4.552  0.00  0.00    +0.150 HD
ENDROOT
BRANCH   2  12
ATOM     12  C   UNL     1       0.706  -0.486  -1.240  0.00  0.00    +0.363 C 
ATOM     13  O   UNL     1       1.867  -0.175  -1.443  0.00  0.00    -0.246 OA
ATOM     14  O   UNL     1       0.114  -1.190  -2.040  0.00  0.00    -0.246 OA
ENDBRANCH   2  12
BRANCH  10  15
ATOM     15  C   UNL     1       0.428   1.797   5.529  0.00  0.00    +0.130 C 
BRANCH  15  16
ATOM     16  C   UNL     1      -0.620   2.137   6.590  0.00  0.00    +0.203 C 
BRANCH  16  17
ATOM     17  S   UNL     1       0.135   3.168   7.878  0.00  0.00    +0.028 S 
ATOM     18  O   UNL     1       1.090   2.413   8.611  0.00  0.00    -0.158 OA
ATOM     19  O   UNL     1       0.471   4.443   7.349  0.00  0.00    -0.158 OA
BRANCH  17  20
ATOM     20  N   UNL     1      -1.086   3.465   8.956  0.00  0.00    -0.208 NA
ATOM     21  H   UNL     1      -0.883   3.600   9.895  0.00  0.00    +0.144 HD
ATOM     22  H   UNL     1      -2.006   3.505   8.648  0.00  0.00    +0.144 HD
ENDBRANCH  17  20
ENDBRANCH  16  17
ENDBRANCH  15  16
ENDBRANCH  10  15
TORSDOF 5
