REMARK  Name = ZINC44298401
REMARK  3 active torsions:
REMARK  status: ('A' for Active; 'I' for Inactive)
REMARK    1  A    between atoms: C_4  and  N_21
REMARK    2  A    between atoms: C_5  and  C_7
REMARK    3  A    between atoms: C_9  and  C_12
REMARK                            x       y       z     vdW  Elec       q    Type
REMARK                         _______ _______ _______ _____ _____    ______ ____
ROOT
ATOM      1  C   UNL     1       1.218  -2.161   0.028  0.00  0.00    +0.111 A 
ATOM      2  N   UNL     1       0.204  -3.006  -0.058  0.00  0.00    -0.237 NA
ATOM      3  C   UNL     1       0.395  -4.314  -0.027  0.00  0.00    +0.104 A 
ATOM      4  C   UNL     1       1.673  -4.803   0.097  0.00  0.00    +0.077 A 
ATOM      5  S   UNL     1       2.606  -3.279   0.161  0.00  0.00    -0.075 S 
ENDROOT
BRANCH   3   6
ATOM      6  C   UNL     1      -0.752  -5.239  -0.123  0.00  0.00    +0.128 A 
ATOM      7  N   UNL     1      -0.755  -6.555  -0.104  0.00  0.00    -0.237 NA
ATOM      8  C   UNL     1      -1.889  -7.278  -0.202  0.00  0.00    +0.079 A 
ATOM      9  C   UNL     1      -2.031  -8.686  -0.195  0.00  0.00    +0.029 A 
ATOM     10  C   UNL     1      -3.258  -9.263  -0.304  0.00  0.00    +0.002 A 
ATOM     11  C   UNL     1      -4.412  -8.502  -0.427  0.00  0.00    +0.001 A 
ATOM     12  C   UNL     1      -4.317  -7.123  -0.438  0.00  0.00    +0.017 A 
ATOM     13  C   UNL     1      -3.083  -6.530  -0.328  0.00  0.00    +0.040 A 
ATOM     14  S   UNL     1      -2.490  -4.857  -0.289  0.00  0.00    -0.066 S 
ENDBRANCH   3   6
BRANCH   1  19
ATOM     15  C   UNL     1       1.928   1.413   0.933  0.00  0.00    +0.001 A 
ATOM     16  C   UNL     1       1.184   2.090  -0.019  0.00  0.00    +0.002 A 
ATOM     17  C   UNL     1       0.450   1.392  -0.958  0.00  0.00    +0.023 A 
ATOM     18  C   UNL     1       0.454   0.004  -0.951  0.00  0.00    +0.034 A 
ATOM     19  C   UNL     1       1.206  -0.684   0.011  0.00  0.00    +0.028 A 
ATOM     20  C   UNL     1       1.944   0.034   0.953  0.00  0.00    +0.012 A 
BRANCH  18  21
ATOM     21  N   UNL     1      -0.287  -0.702  -1.897  0.00  0.00    -0.357 N 
ATOM     22  H   UNL     1      -0.876  -0.228  -2.504  0.00  0.00    +0.142 HD
ATOM     23  H   UNL     1      -0.213  -1.668  -1.948  0.00  0.00    +0.142 HD
ENDBRANCH  18  21
ENDBRANCH   1  19
TORSDOF 3
