REMARK  Name = ZINC04519320
REMARK  6 active torsions:
REMARK  status: ('A' for Active; 'I' for Inactive)
REMARK    1  A    between atoms: C_1  and  C_2
REMARK    2  A    between atoms: C_5  and  N_9
REMARK    3  A    between atoms: C_6  and  C_8
REMARK    4  A    between atoms: C_17  and  N_22
REMARK    5  A    between atoms: C_19  and  C_21
REMARK    6  A    between atoms: C_25  and  C_28
REMARK                            x       y       z     vdW  Elec       q    Type
REMARK                         _______ _______ _______ _____ _____    ______ ____
ROOT
ATOM      1  N   UNL     1      -2.407   1.041  -0.006  0.00  0.00    -0.269 N 
ATOM      2  C   UNL     1      -2.398  -0.303  -0.113  0.00  0.00    +0.307 C 
ATOM      3  O   UNL     1      -1.342  -0.905  -0.126  0.00  0.00    -0.252 OA
ATOM      4  N   UNL     1      -3.560  -0.979  -0.206  0.00  0.00    -0.281 N 
ATOM      5  C   UNL     1      -4.850  -0.276  -0.299  0.00  0.00    +0.116 C 
ATOM      6  C   UNL     1      -5.464  -0.606  -1.666  0.00  0.00    +0.075 C 
ATOM      7  C   UNL     1      -5.401  -2.084  -1.934  0.00  0.00    +0.053 A 
ATOM      8  C   UNL     1      -4.539  -2.926  -1.276  0.00  0.00    +0.031 A 
ATOM      9  C   UNL     1      -4.546  -4.286  -1.610  0.00  0.00    +0.130 A 
ATOM     10  N   UNL     1      -5.387  -4.717  -2.544  0.00  0.00    -0.217 NA
ATOM     11  C   UNL     1      -6.204  -3.877  -3.147  0.00  0.00    +0.128 A 
ATOM     12  N   UNL     1      -6.217  -2.594  -2.856  0.00  0.00    -0.237 NA
ATOM     13  C   UNL     1      -7.148  -4.400  -4.198  0.00  0.00    +0.088 C 
ATOM     14  C   UNL     1      -3.590  -2.447  -0.211  0.00  0.00    +0.149 C 
ATOM     15  H   UNL     1      -3.248   1.514   0.089  0.00  0.00    +0.156 HD
ENDROOT
BRANCH   1  20
ATOM     16  C   UNL     1       2.472   3.933  -0.120  0.00  0.00    +0.044 C 
ATOM     17  C   UNL     1       1.177   3.163  -0.086  0.00  0.00    -0.050 A 
ATOM     18  C   UNL     1       1.098   1.919  -0.685  0.00  0.00    +0.005 A 
ATOM     19  C   UNL     1      -0.087   1.211  -0.657  0.00  0.00    +0.024 A 
ATOM     20  C   UNL     1      -1.203   1.753  -0.031  0.00  0.00    +0.038 A 
ATOM     21  C   UNL     1      -1.119   3.000   0.573  0.00  0.00    -0.029 A 
ATOM     22  C   UNL     1       0.070   3.703   0.541  0.00  0.00    +0.008 A 
ATOM     23  C   UNL     1      -2.325   3.589   1.258  0.00  0.00    +0.045 C 
ENDBRANCH   1  20
BRANCH   9  24
ATOM     24  N   UNL     1      -3.688  -5.169  -0.975  0.00  0.00    -0.315 N 
ATOM     25  C   UNL     1      -4.222  -5.574   0.332  0.00  0.00    +0.107 C 
ATOM     26  C   UNL     1      -3.186  -6.430   1.064  0.00  0.00    +0.022 C 
ATOM     27  C   UNL     1      -2.862  -7.665   0.219  0.00  0.00    -0.011 C 
ATOM     28  C   UNL     1      -2.354  -7.216  -1.154  0.00  0.00    +0.022 C 
ATOM     29  C   UNL     1      -3.414  -6.337  -1.822  0.00  0.00    +0.107 C 
ATOM     30  C   UNL     1      -1.783  -8.494   0.917  0.00  0.00    +0.007 C 
ENDBRANCH   9  24
TORSDOF 2
