REMARK  Name = ZINC20310001
REMARK  6 active torsions:
REMARK  status: ('A' for Active; 'I' for Inactive)
REMARK    1  A    between atoms: C_1  and  C_2
REMARK    2  A    between atoms: N_4  and  C_5
REMARK    3  A    between atoms: C_8  and  N_11
REMARK    4  A    between atoms: C_12  and  C_14
REMARK    5  A    between atoms: C_14  and  N_15
REMARK    6  A    between atoms: C_29  and  C_31
REMARK                            x       y       z     vdW  Elec       q    Type
REMARK                         _______ _______ _______ _____ _____    ______ ____
ROOT
ATOM      1  N   UNL     1       2.344   1.137  -0.104  0.00  0.00    -0.305 N 
ATOM      2  C   UNL     1       1.118   1.770  -0.127  0.00  0.00    +0.052 A 
ATOM      3  C   UNL     1      -0.060   1.048  -0.194  0.00  0.00    +0.025 A 
ATOM      4  C   UNL     1      -1.277   1.700  -0.266  0.00  0.00    +0.002 A 
ATOM      5  C   UNL     1      -1.319   3.084  -0.261  0.00  0.00    +0.002 A 
ATOM      6  C   UNL     1      -0.158   3.818  -0.188  0.00  0.00    +0.025 A 
ATOM      7  C   UNL     1       1.089   3.180  -0.112  0.00  0.00    +0.052 A 
ATOM      8  N   UNL     1       2.201   3.923  -0.013  0.00  0.00    -0.316 N 
ATOM      9  C   UNL     1       3.387   3.842  -0.503  0.00  0.00    +0.017 C 
ATOM     10  C   UNL     1       4.276   5.063  -0.325  0.00  0.00    +0.051 C 
ATOM     11  C   UNL     1       5.138   5.237  -1.577  0.00  0.00    +0.014 C 
ATOM     12  C   UNL     1       6.004   3.985  -1.741  0.00  0.00    +0.080 C 
ATOM     13  C   UNL     1       5.131   2.767  -1.760  0.00  0.00    +0.163 C 
ATOM     14  C   UNL     1       3.921   2.715  -1.169  0.00  0.00    +0.040 C 
ATOM     15  C   UNL     1       3.170   1.432  -1.244  0.00  0.00    +0.175 C 
ATOM     16  O   UNL     1       5.580   1.666  -2.401  0.00  0.00    -0.292 OA
ATOM     17  H   UNL     1       1.938   4.757   0.654  0.00  0.00    +0.152 HD
ENDROOT
BRANCH  15  18
ATOM     18  C   UNL     1       2.292   1.467  -2.469  0.00  0.00    +0.130 A 
ATOM     19  C   UNL     1       2.565   0.881  -3.648  0.00  0.00    +0.047 A 
ATOM     20  C   UNL     1       1.479   1.166  -4.507  0.00  0.00    +0.041 A 
ATOM     21  C   UNL     1       0.608   1.909  -3.801  0.00  0.00    +0.195 A 
ATOM     22  O   UNL     1       1.103   2.083  -2.565  0.00  0.00    -0.466 OA
ENDBRANCH  15  18
BRANCH   1  23
ATOM     23  C   UNL     1       2.184  -0.313   0.070  0.00  0.00    +0.202 C 
BRANCH  23  25
ATOM     24  N   UNL     1       1.480  -1.869   1.859  0.00  0.00    -0.284 N 
ATOM     25  C   UNL     1       1.629  -0.596   1.442  0.00  0.00    +0.235 C 
ATOM     26  O   UNL     1       1.317   0.321   2.171  0.00  0.00    -0.274 OA
ATOM     27  H   UNL     1       1.833  -2.699   1.229  0.00  0.00    +0.155 HD
BRANCH  24  31
ATOM     28  C   UNL     1      -0.318  -2.662   5.537  0.00  0.00    +0.033 A 
ATOM     29  C   UNL     1      -0.518  -3.523   4.466  0.00  0.00    +0.025 A 
ATOM     30  C   UNL     1       0.077  -3.261   3.248  0.00  0.00    +0.025 A 
ATOM     31  C   UNL     1       0.876  -2.136   3.094  0.00  0.00    +0.034 A 
ATOM     32  C   UNL     1       1.081  -1.277   4.167  0.00  0.00    +0.025 A 
ATOM     33  C   UNL     1       0.481  -1.537   5.383  0.00  0.00    +0.025 A 
BRANCH  28  37
ATOM     34  C   UNL     1      -1.886  -2.190   8.927  0.00  0.00    +0.109 C 
ATOM     35  C   UNL     1      -1.343  -1.911   7.550  0.00  0.00    +0.214 C 
ATOM     36  O   UNL     1      -1.284  -0.770   7.141  0.00  0.00    -0.276 OA
ATOM     37  N   UNL     1      -0.922  -2.928   6.772  0.00  0.00    -0.286 N 
ATOM     38  H   UNL     1      -1.054  -3.967   7.107  0.00  0.00    +0.155 HD
ENDBRANCH  28  37
ENDBRANCH  24  31
ENDBRANCH  23  25
ENDBRANCH   1  23
TORSDOF 5
