REMARK  Name = ZINC39631872
REMARK  16 active torsions:
REMARK  status: ('A' for Active; 'I' for Inactive)
REMARK    1  A    between atoms: C_1  and  C_2
REMARK    2  A    between atoms: C_4  and  C_11
REMARK    3  A    between atoms: N_5  and  C_7
REMARK    4  A    between atoms: C_7  and  C_8
REMARK    5  A    between atoms: C_7  and  C_9
REMARK    6  A    between atoms: C_7  and  C_10
REMARK    7  A    between atoms: C_15  and  C_24
REMARK    8  A    between atoms: N_26  and  C_27
REMARK    9  A    between atoms: C_27  and  C_29
REMARK   10  A    between atoms: C_27  and  C_30
REMARK   11  A    between atoms: C_30  and  C_31
REMARK   12  A    between atoms: C_31  and  C_32
REMARK   13  A    between atoms: C_32  and  C_33
REMARK   14  A    between atoms: C_33  and  C_34
REMARK   15  A    between atoms: C_33  and  C_35
REMARK   16  A    between atoms: C_33  and  O_36
REMARK                            x       y       z     vdW  Elec       q    Type
REMARK                         _______ _______ _______ _____ _____    ______ ____
ROOT
ATOM      1  C   UNL     1      -0.530  -3.734  -1.471  0.00  0.00    +0.265 C 
ATOM      2  O   UNL     1      -0.731  -3.787  -2.669  0.00  0.00    -0.268 OA
ATOM      3  N   UNL     1      -0.435  -4.870  -0.752  0.00  0.00    -0.295 N 
ATOM      4  C   UNL     1      -0.328  -5.007   0.720  0.00  0.00    +0.121 C 
ATOM      5  C   UNL     1      -1.207  -6.231   1.062  0.00  0.00    +0.100 C 
ATOM      6  C   UNL     1      -1.259  -7.053  -0.236  0.00  0.00    -0.004 C 
ATOM      7  C   UNL     1      -0.422  -6.264  -1.254  0.00  0.00    +0.115 C 
ATOM      8  C   UNL     1      -2.699  -7.175  -0.727  0.00  0.00    -0.010 C 
ATOM      9  C   UNL     1      -2.731  -8.043  -1.988  0.00  0.00    -0.082 C 
ATOM     10  N   UNL     1      -2.183  -9.371  -1.684  0.00  0.00    +0.379 N 
ATOM     11  C   UNL     1      -0.770  -9.253  -1.301  0.00  0.00    -0.082 C 
ATOM     12  C   UNL     1      -0.655  -8.435  -0.012  0.00  0.00    -0.010 C 
ATOM     13  H   UNL     1      -2.703  -9.782  -0.923  0.00  0.00    -0.086 HD
ATOM     14  H   UNL     1      -2.261  -9.960  -2.498  0.00  0.00    -0.086 HD
ENDROOT
BRANCH   1  18
ATOM     15  C   UNL     1       0.317  -0.055   1.917  0.00  0.00    +0.067 C 
ATOM     16  C   UNL     1      -0.024  -0.812   0.659  0.00  0.00    +0.061 A 
ATOM     17  C   UNL     1      -0.009  -2.201   0.505  0.00  0.00    +0.057 A 
ATOM     18  C   UNL     1      -0.389  -2.428  -0.806  0.00  0.00    +0.124 A 
ATOM     19  N   UNL     1      -0.608  -1.199  -1.359  0.00  0.00    -0.254 N 
ATOM     20  N   UNL     1      -0.391  -0.286  -0.481  0.00  0.00    -0.175 NA
BRANCH  19  21
ATOM     21  C   UNL     1      -1.029  -0.958  -2.741  0.00  0.00    +0.056 C 
ATOM     22  C   UNL     1      -2.314  -1.738  -3.026  0.00  0.00    +0.036 C 
ATOM     23  C   UNL     1      -1.285   0.537  -2.943  0.00  0.00    +0.036 C 
ATOM     24  C   UNL     1       0.071  -1.421  -3.699  0.00  0.00    +0.036 C 
ENDBRANCH  19  21
ENDBRANCH   1  18
BRANCH   5  25
ATOM     25  C   UNL     1      -2.591  -5.788   1.462  0.00  0.00    +0.218 C 
ATOM     26  O   UNL     1      -3.067  -4.781   0.983  0.00  0.00    -0.275 OA
ATOM     27  N   UNL     1      -3.299  -6.511   2.352  0.00  0.00    -0.312 N 
ATOM     28  H   UNL     1      -2.890  -7.272   2.793  0.00  0.00    +0.149 HD
BRANCH  27  29
ATOM     29  C   UNL     1      -4.685  -6.147   2.654  0.00  0.00    +0.070 C 
ATOM     30  C   UNL     1      -4.705  -5.066   3.737  0.00  0.00    +0.028 C 
BRANCH  29  31
ATOM     31  C   UNL     1      -5.440  -7.381   3.151  0.00  0.00    +0.022 C 
BRANCH  31  32
ATOM     32  C   UNL     1      -5.529  -8.413   2.025  0.00  0.00    +0.005 C 
BRANCH  32  33
ATOM     33  C   UNL     1      -6.284  -9.647   2.523  0.00  0.00    +0.034 C 
BRANCH  33  34
ATOM     34  C   UNL     1      -6.372 -10.679   1.396  0.00  0.00    +0.061 C 
ATOM     35  C   UNL     1      -7.233 -11.859   1.852  0.00  0.00    +0.041 C 
ATOM     36  C   UNL     1      -7.005 -10.033   0.162  0.00  0.00    +0.041 C 
BRANCH  34  37
ATOM     37  O   UNL     1      -5.060 -11.143   1.072  0.00  0.00    -0.389 OA
ATOM     38  H   UNL     1      -5.040 -11.802   0.364  0.00  0.00    +0.210 HD
ENDBRANCH  34  37
ENDBRANCH  33  34
ENDBRANCH  32  33
ENDBRANCH  31  32
ENDBRANCH  29  31
ENDBRANCH  27  29
ENDBRANCH   5  25
TORSDOF 9
