REMARK  Name = ZINC41585985
REMARK  5 active torsions:
REMARK  status: ('A' for Active; 'I' for Inactive)
REMARK    1  A    between atoms: C_5  and  O_7
REMARK    2  A    between atoms: O_7  and  C_8
REMARK    3  A    between atoms: C_17  and  O_32
REMARK    4  A    between atoms: C_18  and  C_19
REMARK    5  A    between atoms: C_19  and  N_20
REMARK                            x       y       z     vdW  Elec       q    Type
REMARK                         _______ _______ _______ _____ _____    ______ ____
ROOT
ATOM      1  C   UNL     1       0.089  -2.759  -0.061  0.00  0.00    +0.210 A 
ATOM      2  C   UNL     1      -1.117  -2.160  -0.119  0.00  0.00    +0.245 A 
ATOM      3  O   UNL     1      -2.265  -2.847  -0.165  0.00  0.00    -0.459 OA
ATOM      4  C   UNL     1      -2.302  -4.195  -0.159  0.00  0.00    +0.147 A 
ATOM      5  C   UNL     1      -1.102  -4.926  -0.101  0.00  0.00    +0.068 A 
ATOM      6  C   UNL     1       0.168  -4.181  -0.055  0.00  0.00    +0.235 A 
ATOM      7  O   UNL     1       1.241  -4.758  -0.008  0.00  0.00    -0.283 OA
ATOM      8  C   UNL     1      -1.128  -6.321  -0.095  0.00  0.00    +0.019 A 
ATOM      9  C   UNL     1      -2.325  -6.977  -0.145  0.00  0.00    +0.046 A 
ATOM     10  C   UNL     1      -3.519  -6.261  -0.202  0.00  0.00    +0.125 A 
ATOM     11  C   UNL     1      -3.510  -4.876  -0.208  0.00  0.00    +0.051 A 
ENDROOT
BRANCH  10  12
ATOM     12  O   UNL     1      -4.701  -6.927  -0.252  0.00  0.00    -0.506 OA
ATOM     13  H   UNL     1      -5.083  -7.115   0.616  0.00  0.00    +0.292 HD
ENDBRANCH  10  12
BRANCH   1  14
ATOM     14  O   UNL     1       1.225  -2.010  -0.016  0.00  0.00    -0.448 OA
BRANCH  14  19
ATOM     15  C   UNL     1       2.260  -2.768   3.389  0.00  0.00    +0.004 A 
ATOM     16  C   UNL     1       3.478  -2.116   3.439  0.00  0.00    +0.001 A 
ATOM     17  C   UNL     1       3.943  -1.428   2.334  0.00  0.00    +0.019 A 
ATOM     18  C   UNL     1       3.190  -1.391   1.175  0.00  0.00    +0.060 A 
ATOM     19  C   UNL     1       1.967  -2.046   1.122  0.00  0.00    +0.143 A 
ATOM     20  C   UNL     1       1.504  -2.735   2.233  0.00  0.00    +0.047 A 
ATOM     21 BR   UNL     1       3.826  -0.449  -0.337  0.00  0.00    -0.046 Br
ENDBRANCH  14  19
ENDBRANCH   1  14
BRANCH  11  22
ATOM     22  C   UNL     1      -4.808  -4.112  -0.271  0.00  0.00    +0.127 C 
BRANCH  22  23
ATOM     23  N   UNL     1      -5.168  -3.872  -1.674  0.00  0.00    -0.295 NA
ATOM     24  C   UNL     1      -5.464  -5.134  -2.365  0.00  0.00    +0.103 C 
ATOM     25  C   UNL     1      -5.656  -4.860  -3.861  0.00  0.00    +0.122 C 
ATOM     26  N   UNL     1      -6.676  -3.812  -4.017  0.00  0.00    -0.314 N 
ATOM     27  C   UNL     1      -6.519  -2.568  -3.247  0.00  0.00    +0.122 C 
ATOM     28  C   UNL     1      -6.292  -2.932  -1.776  0.00  0.00    +0.103 C 
ATOM     29  C   UNL     1      -7.759  -3.992  -4.869  0.00  0.00    +0.099 A 
ATOM     30  C   UNL     1      -8.638  -2.938  -5.098  0.00  0.00    +0.042 A 
ATOM     31  C   UNL     1      -9.712  -3.131  -5.948  0.00  0.00    +0.005 A 
ATOM     32  C   UNL     1      -9.872  -4.375  -6.542  0.00  0.00    +0.018 A 
ATOM     33  C   UNL     1      -8.961  -5.376  -6.270  0.00  0.00    +0.084 A 
ATOM     34  N   UNL     1      -7.943  -5.162  -5.459  0.00  0.00    -0.350 N 
ATOM     35  H   UNL     1      -7.315  -5.882  -5.288  0.00  0.00    +0.166 HD
ENDBRANCH  22  23
ENDBRANCH  11  22
TORSDOF 5
