REMARK  Name = ZINC09411221
REMARK  3 active torsions:
REMARK  status: ('A' for Active; 'I' for Inactive)
REMARK    1  A    between atoms: C_1  and  C_2
REMARK    2  A    between atoms: N_23  and  C_26
REMARK    3  A    between atoms: C_29  and  N_33
REMARK                            x       y       z     vdW  Elec       q    Type
REMARK                         _______ _______ _______ _____ _____    ______ ____
ROOT
ATOM      1  C   UNL     1       1.037   2.988   5.419  0.00  0.00    +0.047 C 
ATOM      2  C   UNL     1       0.778   3.355   3.981  0.00  0.00    -0.011 A 
ATOM      3  C   UNL     1       1.182   4.585   3.500  0.00  0.00    +0.046 A 
ATOM      4  C   UNL     1       0.948   4.931   2.181  0.00  0.00    +0.020 A 
ATOM      5  C   UNL     1       0.305   4.040   1.340  0.00  0.00    +0.006 A 
ATOM      6  C   UNL     1      -0.101   2.813   1.815  0.00  0.00    -0.027 A 
ATOM      7  C   UNL     1       0.129   2.454   3.140  0.00  0.00    +0.040 A 
ATOM      8  N   UNL     1      -0.370   1.173   3.387  0.00  0.00    -0.286 N 
ATOM      9  C   UNL     1      -0.934   0.628   2.292  0.00  0.00    +0.212 C 
ATOM     10  O   UNL     1      -1.446  -0.468   2.212  0.00  0.00    -0.277 OA
ATOM     11  C   UNL     1      -0.805   1.643   1.188  0.00  0.00    +0.053 C 
ATOM     12  C   UNL     1      -0.010   1.080   0.004  0.00  0.00    +0.089 C 
ATOM     13  C   UNL     1      -0.673   1.691  -1.261  0.00  0.00    +0.074 C 
ATOM     14  C   UNL     1      -1.812   2.581  -0.729  0.00  0.00    -0.054 C 
ATOM     15  C   UNL     1      -2.946   0.843   0.386  0.00  0.00    -0.076 C 
ATOM     16  C   UNL     1      -3.839   1.203  -0.819  0.00  0.00    -0.020 C 
ATOM     17  C   UNL     1      -3.078   2.346  -1.573  0.00  0.00    -0.016 C 
ATOM     18  C   UNL     1       0.417   2.563  -1.840  0.00  0.00    +0.228 C 
ATOM     19  O   UNL     1       0.319   3.233  -2.846  0.00  0.00    -0.275 OA
ATOM     20  N   UNL     1       1.508   2.482  -1.069  0.00  0.00    -0.209 N 
ATOM     21  C   UNL     1       1.379   1.677  -0.008  0.00  0.00    +0.229 C 
ATOM     22  O   UNL     1       2.241   1.462   0.817  0.00  0.00    -0.275 OA
ATOM     23 CL   UNL     1       1.990   5.702   4.556  0.00  0.00    -0.083 Cl
ATOM     24  H   UNL     1      -0.316   0.728   4.247  0.00  0.00    +0.155 HD
ATOM     25  N   UNL     1      -2.092   2.030   0.583  0.00  0.00    +0.395 N 
ATOM     26  H   UNL     1      -2.570   2.719   1.176  0.00  0.00    -0.079 HD
ENDROOT
BRANCH  20  27
ATOM     27  C   UNL     1       2.689   3.183  -1.350  0.00  0.00    +0.062 A 
ATOM     28  C   UNL     1       2.834   4.499  -0.933  0.00  0.00    +0.027 A 
ATOM     29  C   UNL     1       3.998   5.187  -1.211  0.00  0.00    +0.034 A 
ATOM     30  C   UNL     1       5.021   4.567  -1.905  0.00  0.00    +0.128 A 
ATOM     31  C   UNL     1       4.881   3.256  -2.323  0.00  0.00    +0.054 A 
ATOM     32  C   UNL     1       3.720   2.560  -2.042  0.00  0.00    +0.065 A 
ATOM     33 CL   UNL     1       3.548   0.912  -2.561  0.00  0.00    -0.082 Cl
BRANCH  30  34
ATOM     34  N   UNL     1       6.268   5.307  -2.202  0.00  0.00    +0.056 N 
ATOM     35  O   UNL     1       6.392   6.462  -1.834  0.00  0.00    -0.126 OA
ATOM     36  O   UNL     1       7.169   4.762  -2.813  0.00  0.00    -0.126 OA
ENDBRANCH  30  34
ENDBRANCH  20  27
TORSDOF 2
