REMARK  Name = ZINC13032433
REMARK  9 active torsions:
REMARK  status: ('A' for Active; 'I' for Inactive)
REMARK    1  A    between atoms: C_1  and  C_2
REMARK    2  A    between atoms: C_5  and  C_8
REMARK    3  A    between atoms: C_12  and  C_13
REMARK    4  A    between atoms: N_15  and  N_16
REMARK    5  A    between atoms: N_16  and  S_17
REMARK    6  A    between atoms: S_17  and  C_20
REMARK    7  A    between atoms: C_22  and  C_28
REMARK    8  A    between atoms: C_25  and  O_26
REMARK    9  A    between atoms: O_26  and  C_27
REMARK                            x       y       z     vdW  Elec       q    Type
REMARK                         _______ _______ _______ _____ _____    ______ ____
ROOT
ATOM      1  C   UNL     1       5.088   2.108   2.035  0.00  0.00    +0.266 C 
ATOM      2  O   UNL     1       5.940   2.977   2.030  0.00  0.00    -0.268 OA
ATOM      3  N   UNL     1       3.810   2.416   1.737  0.00  0.00    -0.227 N 
ATOM      4  H   UNL     1       3.131   1.723   1.740  0.00  0.00    +0.171 HD
ENDROOT
BRANCH   1   9
ATOM      5  C   UNL     1       6.703   0.202   2.692  0.00  0.00    +0.001 A 
ATOM      6  C   UNL     1       6.752  -1.154   2.964  0.00  0.00    +0.017 A 
ATOM      7  C   UNL     1       5.614  -1.885   2.888  0.00  0.00    +0.046 A 
ATOM      8  S   UNL     1       4.412  -0.719   2.442  0.00  0.00    -0.091 S 
ATOM      9  C   UNL     1       5.451   0.729   2.364  0.00  0.00    +0.083 A 
BRANCH   5  14
ATOM     10  C   UNL     1      11.413   3.506   2.922  0.00  0.00    +0.044 C 
ATOM     11  C   UNL     1      10.180   2.641   2.862  0.00  0.00    -0.050 A 
ATOM     12  C   UNL     1       9.876   1.800   3.918  0.00  0.00    +0.004 A 
ATOM     13  C   UNL     1       8.749   1.006   3.869  0.00  0.00    +0.009 A 
ATOM     14  C   UNL     1       7.915   1.053   2.752  0.00  0.00    -0.017 A 
ATOM     15  C   UNL     1       8.229   1.899   1.689  0.00  0.00    +0.009 A 
ATOM     16  C   UNL     1       9.357   2.692   1.752  0.00  0.00    +0.004 A 
ENDBRANCH   5  14
ENDBRANCH   1   9
BRANCH   3  17
ATOM     17  N   UNL     1       3.463   3.736   1.422  0.00  0.00    -0.108 NA
ATOM     18  H   UNL     1       3.676   4.454   2.038  0.00  0.00    +0.172 HD
BRANCH  17  19
ATOM     19  S   UNL     1       2.688   4.071  -0.003  0.00  0.00    +0.077 S 
ATOM     20  O   UNL     1       3.482   3.510  -1.039  0.00  0.00    -0.152 OA
ATOM     21  O   UNL     1       2.347   5.449   0.035  0.00  0.00    -0.152 OA
BRANCH  19  22
ATOM     22  C   UNL     1       1.169   3.176   0.007  0.00  0.00    +0.149 A 
ATOM     23  C   UNL     1      -0.029   3.855   0.022  0.00  0.00    +0.047 A 
ATOM     24  C   UNL     1      -1.232   3.145   0.030  0.00  0.00    +0.065 A 
ATOM     25  C   UNL     1      -1.214   1.747   0.017  0.00  0.00    +0.019 A 
ATOM     26  C   UNL     1      -0.013   1.076   0.008  0.00  0.00    +0.048 A 
ATOM     27  C   UNL     1       1.183   1.786   0.000  0.00  0.00    +0.146 A 
BRANCH  24  28
ATOM     28  C   UNL     1      -2.517   3.868   0.046  0.00  0.00    +0.387 C 
ATOM     29  O   UNL     1      -2.531   5.083   0.052  0.00  0.00    -0.241 OA
ATOM     30  O   UNL     1      -3.677   3.181   0.054  0.00  0.00    -0.241 OA
ENDBRANCH  24  28
BRANCH  27  31
ATOM     31  O   UNL     1       2.365   1.121  -0.015  0.00  0.00    -0.493 OA
ATOM     32  C   UNL     1       2.306  -0.307  -0.022  0.00  0.00    +0.277 C 
ENDBRANCH  27  31
ENDBRANCH  19  22
ENDBRANCH  17  19
ENDBRANCH   3  17
TORSDOF 7
