REMARK  Name = ZINC56529435
REMARK  9 active torsions:
REMARK  status: ('A' for Active; 'I' for Inactive)
REMARK    1  A    between atoms: C_1  and  N_2
REMARK    2  A    between atoms: N_2  and  C_3
REMARK    3  A    between atoms: N_2  and  C_4
REMARK    4  A    between atoms: C_4  and  C_9
REMARK    5  A    between atoms: C_9  and  N_10
REMARK    6  A    between atoms: C_11  and  C_13
REMARK    7  A    between atoms: C_13  and  N_14
REMARK    8  A    between atoms: N_14  and  C_15
REMARK    9  A    between atoms: N_14  and  C_16
REMARK                            x       y       z     vdW  Elec       q    Type
REMARK                         _______ _______ _______ _____ _____    ______ ____
ROOT
ATOM      1  N   UNL     1      -2.411   1.335   0.974  0.00  0.00    -0.318 N 
ATOM      2  C   UNL     1      -3.220   1.980   1.837  0.00  0.00    +0.196 C 
ATOM      3  O   UNL     1      -3.761   1.369   2.734  0.00  0.00    -0.278 OA
ATOM      4  H   UNL     1      -1.978   1.825   0.257  0.00  0.00    +0.149 HD
ENDROOT
BRANCH   1   5
ATOM      5  C   UNL     1      -2.184  -0.105   1.120  0.00  0.00    +0.092 C 
BRANCH   5   6
ATOM      6  C   UNL     1      -1.327  -0.606  -0.044  0.00  0.00    -0.050 C 
ATOM      7  C   UNL     1      -2.083  -0.423  -1.376  0.00  0.00    -0.010 C 
ATOM      8  C   UNL     1      -1.699  -1.674  -2.205  0.00  0.00    -0.001 C 
ATOM      9  C   UNL     1      -1.666  -2.795  -1.137  0.00  0.00    -0.001 C 
ATOM     10  C   UNL     1      -1.061  -2.114   0.107  0.00  0.00    -0.010 C 
BRANCH   6  12
ATOM     11  C   UNL     1       0.690  -0.115   1.160  0.00  0.00    -0.096 C 
ATOM     12  N   UNL     1      -0.054   0.127  -0.084  0.00  0.00    +0.381 N 
ATOM     13  C   UNL     1       0.742  -0.334  -1.228  0.00  0.00    -0.096 C 
ATOM     14  H   UNL     1      -0.238   1.115  -0.178  0.00  0.00    -0.082 HD
ENDBRANCH   6  12
ENDBRANCH   5   6
ENDBRANCH   1   5
BRANCH   2  15
ATOM     15  C   UNL     1      -3.454   3.462   1.688  0.00  0.00    +0.019 C 
BRANCH  15  16
ATOM     16  N   UNL     1      -4.367   3.922   2.743  0.00  0.00    +0.387 N 
ATOM     17  C   UNL     1      -3.722   3.760   4.053  0.00  0.00    -0.095 C 
ATOM     18  H   UNL     1      -5.215   3.377   2.716  0.00  0.00    -0.081 HD
BRANCH  16  19
ATOM     19  C   UNL     1      -4.689   5.339   2.527  0.00  0.00    -0.046 C 
ATOM     20  C   UNL     1      -5.374   5.505   1.161  0.00  0.00    +0.009 C 
ATOM     21  C   UNL     1      -5.980   6.936   1.093  0.00  0.00    +0.164 C 
ATOM     22  S   UNL     1      -6.654   7.098   2.800  0.00  0.00    -0.033 S 
ATOM     23  O   UNL     1      -6.318   8.381   3.310  0.00  0.00    -0.174 OA
ATOM     24  O   UNL     1      -8.011   6.677   2.804  0.00  0.00    -0.174 OA
ATOM     25  C   UNL     1      -5.632   5.829   3.652  0.00  0.00    +0.151 C 
ENDBRANCH  16  19
ENDBRANCH  15  16
ENDBRANCH   2  15
TORSDOF 6
