REMARK  Name = ZINC12210074
REMARK  7 active torsions:
REMARK  status: ('A' for Active; 'I' for Inactive)
REMARK    1  A    between atoms: C_1  and  C_2
REMARK    2  A    between atoms: C_4  and  N_22
REMARK    3  A    between atoms: C_6  and  C_21
REMARK    4  A    between atoms: C_7  and  S_8
REMARK    5  A    between atoms: S_8  and  N_11
REMARK    6  A    between atoms: N_11  and  C_12
REMARK    7  A    between atoms: C_15  and  C_18
REMARK                            x       y       z     vdW  Elec       q    Type
REMARK                         _______ _______ _______ _____ _____    ______ ____
ROOT
ATOM      1  C   UNL     1       3.685  -0.438  -2.046  0.00  0.00    +0.046 C 
ATOM      2  C   UNL     1       4.456  -1.420  -1.202  0.00  0.00    -0.022 A 
ATOM      3  C   UNL     1       5.809  -1.237  -0.993  0.00  0.00    +0.030 A 
ATOM      4  C   UNL     1       6.520  -2.146  -0.220  0.00  0.00    +0.051 A 
ATOM      5  C   UNL     1       5.866  -3.234   0.344  0.00  0.00    +0.030 A 
ATOM      6  C   UNL     1       4.512  -3.408   0.135  0.00  0.00    -0.022 A 
ATOM      7  C   UNL     1       3.807  -2.501  -0.634  0.00  0.00    +0.114 A 
ATOM      8  C   UNL     1       3.802  -4.588   0.748  0.00  0.00    +0.046 C 
ENDROOT
BRANCH   4   9
ATOM      9  N   UNL     1       7.889  -1.967  -0.011  0.00  0.00    -0.207 N 
ATOM     10  C   UNL     1       8.710  -1.209  -0.968  0.00  0.00    +0.131 C 
ATOM     11  C   UNL     1       9.397  -0.052  -0.245  0.00  0.00    +0.022 C 
ATOM     12  C   UNL     1      10.382  -0.575   0.797  0.00  0.00    +0.026 C 
ATOM     13  C   UNL     1       9.615  -1.202   1.967  0.00  0.00    +0.189 C 
ATOM     14  S   UNL     1       8.642  -2.598   1.333  0.00  0.00    +0.045 S 
ATOM     15  O   UNL     1       7.588  -2.915   2.232  0.00  0.00    -0.155 OA
ATOM     16  O   UNL     1       9.504  -3.611   0.832  0.00  0.00    -0.155 OA
ENDBRANCH   4   9
BRANCH   7  17
ATOM     17  S   UNL     1       2.080  -2.727  -0.898  0.00  0.00    +0.073 S 
ATOM     18  O   UNL     1       1.894  -4.099  -1.218  0.00  0.00    -0.150 OA
ATOM     19  O   UNL     1       1.660  -1.680  -1.761  0.00  0.00    -0.150 OA
BRANCH  17  20
ATOM     20  N   UNL     1       1.326  -2.474   0.555  0.00  0.00    -0.216 N 
ATOM     21  H   UNL     1       0.888  -3.211   1.009  0.00  0.00    +0.174 HD
BRANCH  20  22
ATOM     22  C   UNL     1       1.320  -1.205   1.123  0.00  0.00    +0.048 A 
ATOM     23  C   UNL     1       0.138  -0.680   1.637  0.00  0.00    +0.025 A 
ATOM     24  C   UNL     1       0.129   0.576   2.201  0.00  0.00    +0.015 A 
ATOM     25  C   UNL     1       1.309   1.323   2.257  0.00  0.00    +0.037 A 
ATOM     26  C   UNL     1       2.494   0.793   1.740  0.00  0.00    +0.015 A 
ATOM     27  C   UNL     1       2.497  -0.463   1.177  0.00  0.00    +0.025 A 
BRANCH  25  28
ATOM     28  C   UNL     1       1.303   2.669   2.861  0.00  0.00    +0.242 C 
ATOM     29  O   UNL     1       0.271   3.130   3.310  0.00  0.00    -0.270 OA
ATOM     30  N   UNL     1       2.442   3.389   2.914  0.00  0.00    -0.325 N 
ATOM     31  H   UNL     1       3.265   3.022   2.555  0.00  0.00    +0.145 HD
ATOM     32  H   UNL     1       2.438   4.274   3.311  0.00  0.00    +0.145 HD
ENDBRANCH  25  28
ENDBRANCH  20  22
ENDBRANCH  17  20
ENDBRANCH   7  17
TORSDOF 5
