REMARK  Name = ZINC20837827
REMARK  8 active torsions:
REMARK  status: ('A' for Active; 'I' for Inactive)
REMARK    1  A    between atoms: C_3  and  S_28
REMARK    2  A    between atoms: C_6  and  N_7
REMARK    3  A    between atoms: C_8  and  C_10
REMARK    4  A    between atoms: C_10  and  C_11
REMARK    5  A    between atoms: C_11  and  S_12
REMARK    6  A    between atoms: S_12  and  C_13
REMARK    7  A    between atoms: N_19  and  N_20
REMARK    8  A    between atoms: S_28  and  N_31
REMARK                            x       y       z     vdW  Elec       q    Type
REMARK                         _______ _______ _______ _____ _____    ______ ____
ROOT
ATOM      1  C   UNL     1      -2.199  -4.326  -0.283  0.00  0.00    +0.086 C 
ENDROOT
BRANCH   1   2
ATOM      2  C   UNL     1      -2.501  -2.832  -0.150  0.00  0.00    +0.107 C 
BRANCH   2   4
ATOM      3  N   UNL     1      -1.228  -0.720   0.037  0.00  0.00    -0.285 N 
ATOM      4  C   UNL     1      -1.207  -2.062  -0.083  0.00  0.00    +0.218 C 
ATOM      5  O   UNL     1      -0.148  -2.650  -0.137  0.00  0.00    -0.275 OA
ATOM      6  H   UNL     1      -2.071  -0.256   0.155  0.00  0.00    +0.155 HD
BRANCH   3  12
ATOM      7  C   UNL     1       1.016  -0.430  -0.810  0.00  0.00    +0.025 A 
ATOM      8  C   UNL     1       2.195   0.287  -0.853  0.00  0.00    +0.030 A 
ATOM      9  C   UNL     1       2.334   1.438  -0.098  0.00  0.00    +0.105 A 
ATOM     10  C   UNL     1       1.293   1.874   0.701  0.00  0.00    +0.030 A 
ATOM     11  C   UNL     1       0.111   1.161   0.748  0.00  0.00    +0.025 A 
ATOM     12  C   UNL     1      -0.031   0.005  -0.008  0.00  0.00    +0.033 A 
BRANCH   9  13
ATOM     13  S   UNL     1       3.840   2.350  -0.155  0.00  0.00    +0.056 S 
ATOM     14  O   UNL     1       3.915   3.087   1.058  0.00  0.00    -0.153 OA
ATOM     15  O   UNL     1       4.853   1.438  -0.556  0.00  0.00    -0.153 OA
BRANCH  13  16
ATOM     16  N   UNL     1       3.694   3.461  -1.375  0.00  0.00    -0.204 NA
ATOM     17  H   UNL     1       2.877   3.505  -1.895  0.00  0.00    +0.144 HD
ATOM     18  H   UNL     1       4.426   4.067  -1.569  0.00  0.00    +0.144 HD
ENDBRANCH  13  16
ENDBRANCH   9  13
ENDBRANCH   3  12
ENDBRANCH   2   4
ENDBRANCH   1   2
BRANCH   1  19
ATOM     19  S   UNL     1      -3.756  -5.253  -0.364  0.00  0.00    -0.086 S 
BRANCH  19  20
ATOM     20  C   UNL     1      -3.245  -6.933  -0.515  0.00  0.00    +0.190 A 
ATOM     21  N   UNL     1      -4.069  -8.017  -0.616  0.00  0.00    -0.303 N 
ATOM     22  H   UNL     1      -5.039  -7.997  -0.618  0.00  0.00    +0.171 HD
ATOM     23  C   UNL     1      -3.288  -9.134  -0.715  0.00  0.00    +0.235 A 
ATOM     24  N   UNL     1      -2.034  -8.756  -0.676  0.00  0.00    -0.111 NA
ATOM     25  N   UNL     1      -2.006  -7.361  -0.555  0.00  0.00    -0.121 NA
ATOM     26  N   UNL     1      -3.743 -10.441  -0.835  0.00  0.00    -0.205 N 
ATOM     27  H   UNL     1      -4.696 -10.622  -0.855  0.00  0.00    +0.177 HD
BRANCH  26  28
ATOM     28  N   UNL     1      -2.827 -11.496  -0.927  0.00  0.00    -0.189 NA
ATOM     29  C   UNL     1      -3.243 -12.688  -1.139  0.00  0.00    +0.037 C 
ATOM     30  C   UNL     1      -4.738 -12.978  -1.227  0.00  0.00    +0.052 C 
ATOM     31  C   UNL     1      -5.032 -13.988  -2.304  0.00  0.00    +0.006 C 
ATOM     32  C   UNL     1      -4.965 -15.407  -1.723  0.00  0.00    +0.000 C 
ATOM     33  C   UNL     1      -3.592 -15.906  -1.609  0.00  0.00    +0.000 C 
ATOM     34  C   UNL     1      -2.743 -15.083  -0.630  0.00  0.00    +0.006 C 
ATOM     35  C   UNL     1      -2.248 -13.832  -1.312  0.00  0.00    +0.052 C 
ENDBRANCH  26  28
ENDBRANCH  19  20
ENDBRANCH   1  19
TORSDOF 8
