REMARK  Name = ZINC48256113
REMARK  6 active torsions:
REMARK  status: ('A' for Active; 'I' for Inactive)
REMARK    1  A    between atoms: C_1  and  C_2
REMARK    2  A    between atoms: C_5  and  N_22
REMARK    3  A    between atoms: C_7  and  N_8
REMARK    4  A    between atoms: C_23  and  C_25
REMARK    5  A    between atoms: C_25  and  C_26
REMARK    6  A    between atoms: C_25  and  C_27
REMARK                            x       y       z     vdW  Elec       q    Type
REMARK                         _______ _______ _______ _____ _____    ______ ____
ROOT
ATOM      1  N   UNL     1       0.282   0.263   2.249  0.00  0.00    -0.269 N 
ATOM      2  C   UNL     1       0.536  -0.344   3.425  0.00  0.00    +0.307 C 
ATOM      3  O   UNL     1       0.719  -1.546   3.462  0.00  0.00    -0.252 OA
ATOM      4  N   UNL     1       0.587   0.380   4.560  0.00  0.00    -0.282 N 
ATOM      5  C   UNL     1       0.470   1.844   4.519  0.00  0.00    +0.128 C 
ATOM      6  C   UNL     1      -0.678   2.271   5.442  0.00  0.00    +0.126 C 
ATOM      7  N   UNL     1      -0.505   1.610   6.743  0.00  0.00    -0.307 N 
ATOM      8  C   UNL     1      -0.388   0.146   6.784  0.00  0.00    +0.126 C 
ATOM      9  C   UNL     1       0.755  -0.281   5.862  0.00  0.00    +0.128 C 
ATOM     10  C   UNL     1      -0.452   2.355   7.911  0.00  0.00    +0.161 A 
ATOM     11  N   UNL     1      -0.544   3.660   8.053  0.00  0.00    -0.233 NA
ATOM     12  C   UNL     1      -0.474   4.223   9.247  0.00  0.00    +0.120 A 
ATOM     13  C   UNL     1      -0.304   3.398  10.307  0.00  0.00    +0.068 A 
ATOM     14  S   UNL     1      -0.261   1.810   9.491  0.00  0.00    -0.061 S 
ATOM     15  H   UNL     1       0.202   1.229   2.209  0.00  0.00    +0.156 HD
ENDROOT
BRANCH   1  22
ATOM     16  C   UNL     1       0.551   1.577  -0.259  0.00  0.00    +0.045 C 
ATOM     17  C   UNL     1       0.257   0.102  -0.161  0.00  0.00    -0.029 A 
ATOM     18  C   UNL     1       0.117  -0.652  -1.311  0.00  0.00    +0.007 A 
ATOM     19  C   UNL     1      -0.151  -2.004  -1.225  0.00  0.00    +0.024 A 
ATOM     20  C   UNL     1      -0.282  -2.611   0.018  0.00  0.00    +0.035 A 
ATOM     21  C   UNL     1      -0.142  -1.857   1.174  0.00  0.00    +0.047 A 
ATOM     22  C   UNL     1       0.134  -0.500   1.085  0.00  0.00    +0.039 A 
BRANCH  20  23
ATOM     23  N   UNL     1      -0.556  -3.981   0.104  0.00  0.00    -0.285 N 
ATOM     24  C   UNL     1      -0.097  -4.820  -0.845  0.00  0.00    +0.220 C 
ATOM     25  O   UNL     1       0.630  -4.404  -1.722  0.00  0.00    -0.275 OA
ATOM     26  H   UNL     1      -1.075  -4.326   0.847  0.00  0.00    +0.155 HD
BRANCH  24  27
ATOM     27  C   UNL     1      -0.486  -6.275  -0.816  0.00  0.00    +0.069 C 
ATOM     28  C   UNL     1      -2.008  -6.398  -0.919  0.00  0.00    +0.017 C 
ATOM     29  C   UNL     1       0.165  -7.001  -1.995  0.00  0.00    +0.017 C 
ENDBRANCH  24  27
ENDBRANCH  20  23
ENDBRANCH   1  22
TORSDOF 3
