REMARK  Name = ZINC64609739
REMARK  4 active torsions:
REMARK  status: ('A' for Active; 'I' for Inactive)
REMARK    1  A    between atoms: C_6  and  C_11
REMARK    2  A    between atoms: C_15  and  N_17
REMARK    3  A    between atoms: C_18  and  C_20
REMARK    4  A    between atoms: C_27  and  C_29
REMARK                            x       y       z     vdW  Elec       q    Type
REMARK                         _______ _______ _______ _____ _____    ______ ____
ROOT
ATOM      1  N   UNL     1       4.991  -5.982  -2.106  0.00  0.00    -0.285 N 
ATOM      2  C   UNL     1       5.041  -6.752  -3.212  0.00  0.00    +0.222 C 
ATOM      3  O   UNL     1       4.801  -6.269  -4.298  0.00  0.00    -0.275 OA
ATOM      4  H   UNL     1       5.268  -6.344  -1.250  0.00  0.00    +0.155 HD
ENDROOT
BRANCH   2   5
ATOM      5  C   UNL     1       5.394  -8.212  -3.097  0.00  0.00    +0.093 C 
ATOM      6  C   UNL     1       5.381  -8.851  -4.488  0.00  0.00    +0.016 C 
ATOM      7  C   UNL     1       5.708 -10.342  -4.369  0.00  0.00    +0.020 C 
ATOM      8  C   UNL     1       7.109 -10.508  -3.773  0.00  0.00    +0.108 C 
ATOM      9  N   UNL     1       7.172  -9.773  -2.502  0.00  0.00    -0.295 N 
ATOM     10  C   UNL     1       6.791  -8.354  -2.486  0.00  0.00    +0.121 C 
ATOM     11  C   UNL     1       7.572 -10.389  -1.372  0.00  0.00    +0.267 C 
ATOM     12  O   UNL     1       7.477  -9.819  -0.303  0.00  0.00    -0.268 OA
BRANCH  11  13
ATOM     13  C   UNL     1       8.127 -11.757  -1.433  0.00  0.00    +0.154 A 
ATOM     14  C   UNL     1       8.407 -12.505  -0.296  0.00  0.00    +0.155 A 
ATOM     15  N   UNL     1       8.894 -13.698  -0.523  0.00  0.00    -0.198 NA
ATOM     16  S   UNL     1       8.971 -13.810  -2.132  0.00  0.00    +0.116 S 
ATOM     17  N   UNL     1       8.392 -12.370  -2.575  0.00  0.00    -0.186 NA
ENDBRANCH  11  13
ENDBRANCH   2   5
BRANCH   1  22
ATOM     18  C   UNL     1       4.645  -2.377  -1.470  0.00  0.00    -0.020 A 
ATOM     19  C   UNL     1       3.644  -2.048  -2.366  0.00  0.00    +0.006 A 
ATOM     20  C   UNL     1       3.090  -3.022  -3.176  0.00  0.00    +0.002 A 
ATOM     21  C   UNL     1       3.534  -4.327  -3.092  0.00  0.00    +0.023 A 
ATOM     22  C   UNL     1       4.539  -4.661  -2.194  0.00  0.00    +0.034 A 
ATOM     23  C   UNL     1       5.097  -3.679  -1.385  0.00  0.00    +0.029 A 
BRANCH  18  29
ATOM     24  C   UNL     1       3.029   2.521   0.803  0.00  0.00    +0.001 A 
ATOM     25  C   UNL     1       3.703   3.014  -0.323  0.00  0.00    +0.002 A 
ATOM     26  C   UNL     1       4.506   2.243  -1.088  0.00  0.00    +0.026 A 
ATOM     27  C   UNL     1       4.700   0.871  -0.770  0.00  0.00    +0.043 A 
ATOM     28  N   UNL     1       5.414  -0.066  -1.345  0.00  0.00    -0.374 N 
ATOM     29  C   UNL     1       5.246  -1.312  -0.589  0.00  0.00    +0.133 C 
ATOM     30  C   UNL     1       4.307  -0.984   0.550  0.00  0.00    +0.012 C 
ATOM     31  C   UNL     1       3.999   0.326   0.415  0.00  0.00    -0.004 A 
ATOM     32  C   UNL     1       3.145   1.232   1.193  0.00  0.00    +0.010 A 
ATOM     33  H   UNL     1       5.961   0.046  -2.138  0.00  0.00    +0.161 HD
ENDBRANCH  18  29
ENDBRANCH   1  22
TORSDOF 4
