REMARK  Name = ZINC64435289
REMARK  2 active torsions:
REMARK  status: ('A' for Active; 'I' for Inactive)
REMARK    1  A    between atoms: C_3  and  C_9
REMARK    2  A    between atoms: C_15  and  C_18
REMARK                            x       y       z     vdW  Elec       q    Type
REMARK                         _______ _______ _______ _____ _____    ______ ____
ROOT
ATOM      1  C   UNL     1       3.656   2.165  -0.022  0.00  0.00    +0.185 A 
ATOM      2  N   UNL     1       3.780   3.469  -0.011  0.00  0.00    -0.127 NA
ATOM      3  N   UNL     1       5.025   3.792  -0.035  0.00  0.00    -0.120 NA
ATOM      4  C   UNL     1       5.754   2.719  -0.079  0.00  0.00    +0.211 A 
ATOM      5  N   UNL     1       4.935   1.618  -0.037  0.00  0.00    -0.220 N 
ATOM      6  N   UNL     1       5.493   0.375  -0.003  0.00  0.00    -0.265 N 
ATOM      7  C   UNL     1       6.890   0.300  -0.508  0.00  0.00    +0.184 C 
ATOM      8  S   UNL     1       7.398   2.041  -0.172  0.00  0.00    -0.058 S 
ATOM      9  H   UNL     1       5.420  -0.030   0.918  0.00  0.00    +0.168 HD
ENDROOT
BRANCH   1  12
ATOM     10  C   UNL     1      -0.017   1.380   0.010  0.00  0.00    +0.016 A 
ATOM     11  C   UNL     1       1.166   2.090   0.002  0.00  0.00    +0.015 A 
ATOM     12  C   UNL     1       2.385   1.411  -0.013  0.00  0.00    +0.056 A 
ATOM     13  C   UNL     1       2.398   0.013  -0.021  0.00  0.00    +0.135 A 
ATOM     14  C   UNL     1       1.207  -0.686  -0.013  0.00  0.00    +0.054 A 
ATOM     15  C   UNL     1       0.002  -0.004   0.002  0.00  0.00    +0.021 A 
ATOM     16 BR   UNL     1      -1.625  -0.968   0.012  0.00  0.00    -0.050 Br
ATOM     17  F   UNL     1       3.574  -0.653  -0.036  0.00  0.00    -0.205 F 
ENDBRANCH   1  12
BRANCH   7  18
ATOM     18  C   UNL     1       6.932  -0.012  -2.005  0.00  0.00    +0.198 C 
ATOM     19  C   UNL     1       8.366  -0.147  -2.486  0.00  0.00    +0.044 C 
ATOM     20  C   UNL     1       8.494   0.829  -3.391  0.00  0.00    +0.147 C 
ATOM     21  N   UNL     1       7.341   1.521  -3.515  0.00  0.00    -0.161 NA
ATOM     22  N   UNL     1       6.421   1.125  -2.789  0.00  0.00    -0.176 NA
ATOM     23 BR   UNL     1       9.668  -1.401  -1.933  0.00  0.00    -0.051 Br
ENDBRANCH   7  18
TORSDOF 2
