REMARK  Name = ZINC66196299
REMARK  10 active torsions:
REMARK  status: ('A' for Active; 'I' for Inactive)
REMARK    1  A    between atoms: C_1  and  C_2
REMARK    2  A    between atoms: C_2  and  C_3
REMARK    3  A    between atoms: C_3  and  C_5
REMARK    4  A    between atoms: C_3  and  N_6
REMARK    5  A    between atoms: N_6  and  C_7
REMARK    6  A    between atoms: N_6  and  C_8
REMARK    7  A    between atoms: C_8  and  C_9
REMARK    8  A    between atoms: C_9  and  N_10
REMARK    9  A    between atoms: N_13  and  N_14
REMARK   10  A    between atoms: N_17  and  C_18
REMARK                            x       y       z     vdW  Elec       q    Type
REMARK                         _______ _______ _______ _____ _____    ______ ____
ROOT
ATOM      1  N   UNL     1      -1.064   2.949  -4.282  0.00  0.00    -0.300 N 
ATOM      2  C   UNL     1      -1.790   3.444  -5.304  0.00  0.00    +0.316 C 
ATOM      3  O   UNL     1      -2.409   2.691  -6.030  0.00  0.00    -0.251 OA
ATOM      4  N   UNL     1      -1.830   4.774  -5.520  0.00  0.00    -0.217 N 
ATOM      5  H   UNL     1      -0.570   3.550  -3.702  0.00  0.00    +0.150 HD
ATOM      6  H   UNL     1      -2.353   5.130  -6.255  0.00  0.00    +0.174 HD
ENDROOT
BRANCH   4   7
ATOM      7  N   UNL     1      -1.117   5.641  -4.682  0.00  0.00    -0.217 N 
ATOM      8  C   UNL     1      -1.157   6.971  -4.899  0.00  0.00    +0.320 C 
ATOM      9  O   UNL     1      -0.539   7.724  -4.172  0.00  0.00    -0.251 OA
ATOM     10  N   UNL     1      -1.883   7.466  -5.921  0.00  0.00    -0.268 N 
ATOM     11  H   UNL     1      -0.595   5.285  -3.947  0.00  0.00    +0.174 HD
ATOM     12  H   UNL     1      -2.437   6.874  -6.454  0.00  0.00    +0.156 HD
BRANCH  10  13
ATOM     13  C   UNL     1      -1.839   8.834  -6.213  0.00  0.00    +0.035 A 
ATOM     14  C   UNL     1      -2.973   9.482  -6.684  0.00  0.00    +0.024 A 
ATOM     15  C   UNL     1      -2.926  10.832  -6.972  0.00  0.00    +0.017 A 
ATOM     16  C   UNL     1      -1.750  11.539  -6.790  0.00  0.00    +0.018 A 
ATOM     17  C   UNL     1      -0.619  10.896  -6.322  0.00  0.00    +0.017 A 
ATOM     18  C   UNL     1      -0.661   9.547  -6.027  0.00  0.00    +0.024 A 
ATOM     19 BR   UNL     1      -1.690  13.387  -7.185  0.00  0.00    -0.050 Br
ENDBRANCH  10  13
ENDBRANCH   4   7
BRANCH   1  20
ATOM     20  C   UNL     1      -1.020   1.504  -4.046  0.00  0.00    +0.087 C 
BRANCH  20  21
ATOM     21  C   UNL     1      -0.133   1.211  -2.835  0.00  0.00    -0.060 C 
BRANCH  21  22
ATOM     22  N   UNL     1      -0.089  -0.239  -2.599  0.00  0.00    +0.381 N 
ATOM     23  C   UNL     1       0.609  -0.895  -3.713  0.00  0.00    -0.096 C 
ATOM     24  H   UNL     1      -1.030  -0.597  -2.534  0.00  0.00    -0.082 HD
BRANCH  22  25
ATOM     25  C   UNL     1       0.627  -0.509  -1.345  0.00  0.00    -0.072 C 
ATOM     26  C   UNL     1       2.050   0.045  -1.440  0.00  0.00    -0.013 C 
BRANCH  25  28
ATOM     27  C   UNL     1      -0.738  -2.564  -0.948  0.00  0.00    +0.002 C 
ATOM     28  C   UNL     1       0.683  -2.019  -1.106  0.00  0.00    -0.019 C 
ENDBRANCH  25  28
ENDBRANCH  22  25
ENDBRANCH  21  22
ENDBRANCH  20  21
ENDBRANCH   1  20
TORSDOF 7
