REMARK  Name = ZINC36903941
REMARK  3 active torsions:
REMARK  status: ('A' for Active; 'I' for Inactive)
REMARK    1  A    between atoms: C_3  and  N_8
REMARK    2  A    between atoms: C_6  and  N_7
REMARK    3  A    between atoms: C_9  and  C_11
REMARK                            x       y       z     vdW  Elec       q    Type
REMARK                         _______ _______ _______ _____ _____    ______ ____
ROOT
ATOM      1  N   UNL     1       3.597   2.008  -0.021  0.00  0.00    -0.266 N 
ATOM      2  C   UNL     1       3.627   3.352  -0.116  0.00  0.00    +0.251 C 
ATOM      3  O   UNL     1       2.590   3.986  -0.103  0.00  0.00    -0.270 OA
ATOM      4  H   UNL     1       4.426   1.508   0.043  0.00  0.00    +0.157 HD
ENDROOT
BRANCH   2   5
ATOM      5  C   UNL     1       4.922   4.056  -0.236  0.00  0.00    +0.056 A 
ATOM      6  C   UNL     1       4.967   5.452  -0.330  0.00  0.00    +0.031 A 
ATOM      7  C   UNL     1       6.204   6.063  -0.440  0.00  0.00    +0.037 A 
ATOM      8  C   UNL     1       7.346   5.280  -0.454  0.00  0.00    +0.126 A 
ATOM      9  N   UNL     1       7.273   3.966  -0.365  0.00  0.00    -0.261 NA
ATOM     10  C   UNL     1       6.119   3.340  -0.253  0.00  0.00    +0.123 A 
ATOM     11 BR   UNL     1       6.334   7.945  -0.570  0.00  0.00    -0.049 Br
ENDBRANCH   2   5
BRANCH   1  14
ATOM     12  C   UNL     1       1.137  -0.711  -0.018  0.00  0.00    +0.027 A 
ATOM     13  C   UNL     1       2.354  -0.054  -0.024  0.00  0.00    +0.045 A 
ATOM     14  C   UNL     1       2.374   1.336  -0.015  0.00  0.00    +0.125 A 
ATOM     15  N   UNL     1       1.247   2.029  -0.001  0.00  0.00    -0.238 NA
ATOM     16  C   UNL     1       0.069   1.437   0.005  0.00  0.00    +0.135 A 
ATOM     17  C   UNL     1      -0.029   0.053  -0.003  0.00  0.00    +0.043 A 
BRANCH  17  18
ATOM     18  N   UNL     1      -1.283  -0.569   0.003  0.00  0.00    -0.357 N 
ATOM     19  H   UNL     1      -1.345  -1.537  -0.003  0.00  0.00    +0.142 HD
ATOM     20  H   UNL     1      -2.091  -0.031   0.013  0.00  0.00    +0.142 HD
ENDBRANCH  17  18
ENDBRANCH   1  14
TORSDOF 3
