REMARK  Name = ZINC39727278
REMARK  5 active torsions:
REMARK  status: ('A' for Active; 'I' for Inactive)
REMARK    1  A    between atoms: C_1  and  N_2
REMARK    2  A    between atoms: C_4  and  C_21
REMARK    3  A    between atoms: N_9  and  C_14
REMARK    4  A    between atoms: N_23  and  C_24
REMARK    5  A    between atoms: C_26  and  C_31
REMARK                            x       y       z     vdW  Elec       q    Type
REMARK                         _______ _______ _______ _____ _____    ______ ____
ROOT
ATOM      1  C   UNL     1      -0.177   1.393   0.196  0.00  0.00    +0.130 C 
ATOM      2  N   UNL     1      -0.105  -0.068   0.121  0.00  0.00    -0.322 N 
ATOM      3  C   UNL     1      -0.041  -0.809  -1.005  0.00  0.00    +0.085 C 
ATOM      4  C   UNL     1      -0.206  -2.161  -0.745  0.00  0.00    +0.072 C 
ATOM      5  C   UNL     1      -0.452  -2.333   0.622  0.00  0.00    +0.078 C 
ATOM      6  N   UNL     1      -0.912  -3.325   1.339  0.00  0.00    -0.164 NA
ATOM      7  C   UNL     1      -1.369  -3.048   2.577  0.00  0.00    +0.337 C 
ATOM      8  O   UNL     1      -1.568  -3.964   3.353  0.00  0.00    -0.250 OA
ATOM      9  N   UNL     1      -1.610  -1.787   2.978  0.00  0.00    -0.191 N 
ATOM     10  C   UNL     1      -1.114  -0.716   2.310  0.00  0.00    +0.254 C 
ATOM     11  O   UNL     1      -1.481   0.412   2.560  0.00  0.00    -0.272 OA
ATOM     12  C   UNL     1      -0.084  -0.991   1.247  0.00  0.00    +0.208 C 
ENDROOT
BRANCH   9  13
ATOM     13  C   UNL     1      -2.396  -1.574   4.119  0.00  0.00    +0.046 A 
ATOM     14  C   UNL     1      -3.734  -1.943   4.120  0.00  0.00    +0.025 A 
ATOM     15  C   UNL     1      -4.507  -1.732   5.245  0.00  0.00    +0.022 A 
ATOM     16  C   UNL     1      -3.948  -1.153   6.371  0.00  0.00    +0.041 A 
ATOM     17  C   UNL     1      -2.614  -0.784   6.372  0.00  0.00    +0.022 A 
ATOM     18  C   UNL     1      -1.836  -0.998   5.251  0.00  0.00    +0.025 A 
ATOM     19 CL   UNL     1      -4.922  -0.888   7.783  0.00  0.00    -0.084 Cl
ENDBRANCH   9  13
BRANCH   4  20
ATOM     20  C   UNL     1      -0.136  -3.239  -1.743  0.00  0.00    +0.251 C 
ATOM     21  O   UNL     1       0.085  -2.974  -2.910  0.00  0.00    -0.270 OA
ATOM     22  N   UNL     1      -0.315  -4.520  -1.365  0.00  0.00    -0.280 N 
ATOM     23  H   UNL     1      -0.548  -4.727  -0.446  0.00  0.00    +0.155 HD
BRANCH  22  24
ATOM     24  C   UNL     1      -0.166  -5.552  -2.298  0.00  0.00    +0.053 A 
ATOM     25  C   UNL     1      -0.361  -5.302  -3.650  0.00  0.00    +0.037 A 
ATOM     26  C   UNL     1      -0.213  -6.323  -4.569  0.00  0.00    +0.057 A 
ATOM     27  C   UNL     1       0.130  -7.594  -4.144  0.00  0.00    +0.014 A 
ATOM     28  C   UNL     1       0.325  -7.847  -2.799  0.00  0.00    +0.022 A 
ATOM     29  C   UNL     1       0.184  -6.829  -1.875  0.00  0.00    +0.062 A 
ATOM     30 CL   UNL     1       0.436  -7.146  -0.186  0.00  0.00    -0.082 Cl
BRANCH  26  31
ATOM     31  C   UNL     1      -0.425  -6.051  -6.036  0.00  0.00    +0.417 C 
ATOM     32  F   UNL     1       0.787  -5.666  -6.619  0.00  0.00    -0.166 F 
ATOM     33  F   UNL     1      -0.895  -7.211  -6.661  0.00  0.00    -0.166 F 
ATOM     34  F   UNL     1      -1.363  -5.025  -6.189  0.00  0.00    -0.166 F 
ENDBRANCH  26  31
ENDBRANCH  22  24
ENDBRANCH   4  20
TORSDOF 4
