REMARK  Name = ZINC39451084
REMARK  0 active torsions:
REMARK  status: ('A' for Active; 'I' for Inactive)
REMARK                            x       y       z     vdW  Elec       q    Type
REMARK                         _______ _______ _______ _____ _____    ______ ____
ROOT
ATOM      1  C   UNL     1      -0.017   1.391   0.010  0.00  0.00    +0.031 A 
ATOM      2  C   UNL     1       1.197   2.057   0.002  0.00  0.00    +0.032 A 
ATOM      3  C   UNL     1       2.379   1.329  -0.014  0.00  0.00    +0.125 A 
ATOM      4  N   UNL     1       2.377   0.013  -0.022  0.00  0.00    -0.252 NA
ATOM      5  C   UNL     1       1.243  -0.677  -0.015  0.00  0.00    +0.099 A 
ATOM      6  C   UNL     1       0.002  -0.004   0.002  0.00  0.00    +0.069 A 
ATOM      7  C   UNL     1      -1.236  -0.796   0.011  0.00  0.00    +0.271 A 
ATOM      8  O   UNL     1      -2.316  -0.236   0.024  0.00  0.00    -0.266 OA
ATOM      9  N   UNL     1      -1.175  -2.140   0.005  0.00  0.00    -0.237 N 
ATOM     10  C   UNL     1       0.032  -2.826  -0.009  0.00  0.00    +0.122 A 
ATOM     11  C   UNL     1       1.236  -2.146  -0.025  0.00  0.00    +0.083 A 
ATOM     12  N   UNL     1       2.424  -2.850  -0.055  0.00  0.00    -0.324 N 
ATOM     13  C   UNL     1       2.423  -4.197  -0.645  0.00  0.00    +0.171 C 
ATOM     14  C   UNL     1       1.316  -5.015   0.030  0.00  0.00    +0.119 C 
ATOM     15  C   UNL     1       0.025  -4.240  -0.012  0.00  0.00    +0.185 C 
ATOM     16  O   UNL     1      -1.033  -4.836  -0.051  0.00  0.00    -0.290 OA
ATOM     17 CL   UNL     1       2.103  -4.084  -2.416  0.00  0.00    -0.101 Cl
ATOM     18 BR   UNL     1      -2.752  -3.107   0.018  0.00  0.00    +0.058 Br
ATOM     19  I   UNL     1       1.250   4.152   0.012  0.00  0.00    -0.042 I 
ATOM     20  H   UNL     1       3.239  -2.465   0.304  0.00  0.00    +0.148 HD
ENDROOT
TORSDOF 0
