REMARK  Name = ZINC49799277
REMARK  11 active torsions:
REMARK  status: ('A' for Active; 'I' for Inactive)
REMARK    1  A    between atoms: C_1  and  C_2
REMARK    2  A    between atoms: C_2  and  C_3
REMARK    3  A    between atoms: C_6  and  C_9
REMARK    4  A    between atoms: C_9  and  C_11
REMARK    5  A    between atoms: C_9  and  N_25
REMARK    6  A    between atoms: C_11  and  N_12
REMARK    7  A    between atoms: N_15  and  N_16
REMARK    8  A    between atoms: N_16  and  C_17
REMARK    9  A    between atoms: C_17  and  C_24
REMARK   10  A    between atoms: N_25  and  C_26
REMARK   11  A    between atoms: N_25  and  C_27
REMARK                            x       y       z     vdW  Elec       q    Type
REMARK                         _______ _______ _______ _____ _____    ______ ____
ROOT
ATOM      1  N   UNL     1      -4.705  -4.072   1.088  0.00  0.00    -0.300 N 
ATOM      2  C   UNL     1      -4.525  -5.406   1.167  0.00  0.00    +0.313 C 
ATOM      3  O   UNL     1      -5.005  -6.136   0.322  0.00  0.00    -0.252 OA
ATOM      4  N   UNL     1      -3.811  -5.930   2.184  0.00  0.00    -0.234 N 
ATOM      5  H   UNL     1      -4.321  -3.490   1.762  0.00  0.00    +0.150 HD
ATOM      6  H   UNL     1      -3.682  -6.889   2.241  0.00  0.00    +0.171 HD
ENDROOT
BRANCH   4   7
ATOM      7  N   UNL     1      -3.271  -5.110   3.133  0.00  0.00    -0.232 NA
ATOM      8  H   UNL     1      -2.677  -4.411   2.712  0.00  0.00    +0.145 HD
BRANCH   7   9
ATOM      9  C   UNL     1      -2.538  -5.885   4.143  0.00  0.00    +0.054 C 
ATOM     10  C   UNL     1      -1.479  -6.731   3.437  0.00  0.00    +0.047 C 
ATOM     11  C   UNL     1      -0.143  -5.943   3.332  0.00  0.00    +0.168 C 
ATOM     12  S   UNL     1      -0.135  -5.128   4.989  0.00  0.00    -0.029 S 
ATOM     13  O   UNL     1       0.479  -3.851   4.878  0.00  0.00    -0.174 OA
ATOM     14  O   UNL     1       0.334  -6.051   5.962  0.00  0.00    -0.174 OA
ATOM     15  C   UNL     1      -1.953  -4.911   5.184  0.00  0.00    +0.189 C 
ATOM     16  C   UNL     1      -3.521  -6.824   4.847  0.00  0.00    +0.031 C 
ENDBRANCH   7   9
ENDBRANCH   4   7
BRANCH   1  17
ATOM     17  C   UNL     1      -5.480  -3.502  -0.017  0.00  0.00    +0.095 C 
BRANCH  17  18
ATOM     18  C   UNL     1      -5.422  -1.975   0.054  0.00  0.00    -0.021 C 
BRANCH  18  22
ATOM     19  C   UNL     1      -1.406  -0.674  -0.598  0.00  0.00    -0.048 A 
ATOM     20  C   UNL     1      -1.909  -0.748   0.688  0.00  0.00    +0.004 A 
ATOM     21  C   UNL     1      -3.208  -1.168   0.899  0.00  0.00    +0.002 A 
ATOM     22  C   UNL     1      -4.005  -1.515  -0.176  0.00  0.00    -0.059 A 
ATOM     23  C   UNL     1      -3.503  -1.441  -1.462  0.00  0.00    +0.002 A 
ATOM     24  C   UNL     1      -2.204  -1.016  -1.673  0.00  0.00    +0.004 A 
BRANCH  19  26
ATOM     25  C   UNL     1       0.034   1.305  -1.000  0.00  0.00    +0.009 C 
ATOM     26  C   UNL     1       0.011  -0.215  -0.827  0.00  0.00    +0.032 C 
ENDBRANCH  19  26
ENDBRANCH  18  22
BRANCH  18  27
ATOM     27  N   UNL     1      -6.296  -1.404  -0.979  0.00  0.00    +0.382 N 
ATOM     28  C   UNL     1      -7.680  -1.837  -0.745  0.00  0.00    -0.096 C 
ATOM     29  C   UNL     1      -6.226   0.063  -0.923  0.00  0.00    -0.096 C 
ATOM     30  H   UNL     1      -5.994  -1.720  -1.888  0.00  0.00    -0.082 HD
ENDBRANCH  18  27
ENDBRANCH  17  18
ENDBRANCH   1  17
TORSDOF 7
