REMARK  Name = ZINC08966308
REMARK  6 active torsions:
REMARK  status: ('A' for Active; 'I' for Inactive)
REMARK    1  A    between atoms: C_1  and  C_2
REMARK    2  A    between atoms: C_3  and  C_31
REMARK    3  A    between atoms: C_13  and  C_14
REMARK    4  A    between atoms: C_15  and  C_28
REMARK    5  A    between atoms: N_17  and  C_20
REMARK    6  A    between atoms: C_18  and  C_19
REMARK                            x       y       z     vdW  Elec       q    Type
REMARK                         _______ _______ _______ _____ _____    ______ ____
ROOT
ATOM      1  C   UNL     1      -2.775  -0.129  -0.764  0.00  0.00    +0.045 C 
ATOM      2  C   UNL     1      -2.553   1.325  -0.434  0.00  0.00    -0.026 A 
ATOM      3  C   UNL     1      -3.594   2.125  -0.155  0.00  0.00    -0.008 A 
ATOM      4  S   UNL     1      -2.829   3.701   0.173  0.00  0.00    -0.073 S 
ATOM      5  C   UNL     1      -1.134   3.245  -0.089  0.00  0.00    +0.116 A 
ATOM      6  C   UNL     1      -1.210   1.876  -0.416  0.00  0.00    +0.075 A 
ATOM      7  C   UNL     1       0.039   1.231  -0.676  0.00  0.00    +0.263 A 
ATOM      8  O   UNL     1       0.068   0.046  -0.962  0.00  0.00    -0.267 OA
ATOM      9  N   UNL     1       1.188   1.942  -0.609  0.00  0.00    -0.292 N 
ATOM     10  C   UNL     1       1.170   3.273  -0.289  0.00  0.00    +0.141 A 
ATOM     11  N   UNL     1       0.019   3.888  -0.038  0.00  0.00    -0.222 NA
ATOM     12  C   UNL     1       2.526   3.829  -0.277  0.00  0.00    -0.002 C 
ATOM     13  C   UNL     1       2.865   5.105  -0.001  0.00  0.00    +0.018 C 
ATOM     14  C   UNL     1       3.473   2.706  -0.630  0.00  0.00    +0.060 C 
ATOM     15  C   UNL     1       2.566   1.487  -0.841  0.00  0.00    +0.131 C 
ATOM     16  C   UNL     1      -5.059   1.771  -0.115  0.00  0.00    +0.052 C 
ENDROOT
BRANCH  13  17
ATOM     17  C   UNL     1       4.283   5.484   0.102  0.00  0.00    +0.019 A 
ATOM     18  C   UNL     1       5.236   4.937   0.992  0.00  0.00    +0.067 A 
ATOM     19  N   UNL     1       6.378   5.530   0.777  0.00  0.00    -0.175 NA
ATOM     20  N   UNL     1       6.215   6.473  -0.244  0.00  0.00    -0.263 N 
ATOM     21  C   UNL     1       4.935   6.437  -0.657  0.00  0.00    +0.044 A 
ATOM     22  C   UNL     1       4.324   7.282  -1.745  0.00  0.00    +0.066 C 
ATOM     23  C   UNL     1       4.977   3.856   2.010  0.00  0.00    +0.068 C 
BRANCH  20  24
ATOM     24  C   UNL     1       7.263   7.346  -0.778  0.00  0.00    +0.130 C 
ATOM     25  C   UNL     1       8.419   6.494  -1.327  0.00  0.00    +0.051 C 
ATOM     26  C   UNL     1       9.653   7.389  -1.595  0.00  0.00    +0.168 C 
ATOM     27  S   UNL     1       9.439   8.748  -0.375  0.00  0.00    -0.029 S 
ATOM     28  O   UNL     1       9.271   9.974  -1.073  0.00  0.00    -0.174 OA
ATOM     29  O   UNL     1      10.450   8.641   0.618  0.00  0.00    -0.174 OA
ATOM     30  C   UNL     1       7.824   8.249   0.358  0.00  0.00    +0.192 C 
ENDBRANCH  20  24
ENDBRANCH  13  17
TORSDOF 2
