REMARK  Name = ZINC14832142
REMARK  13 active torsions:
REMARK  status: ('A' for Active; 'I' for Inactive)
REMARK    1  A    between atoms: C_1  and  C_2
REMARK    2  A    between atoms: C_2  and  C_3
REMARK    3  A    between atoms: C_3  and  C_5
REMARK    4  A    between atoms: C_3  and  C_6
REMARK    5  A    between atoms: C_9  and  O_13
REMARK    6  A    between atoms: O_13  and  C_14
REMARK    7  A    between atoms: C_14  and  C_15
REMARK    8  A    between atoms: N_17  and  C_18
REMARK    9  A    between atoms: C_22  and  O_24
REMARK   10  A    between atoms: O_24  and  C_25
REMARK   11  A    between atoms: C_25  and  C_27
REMARK   12  A    between atoms: C_25  and  C_28
REMARK   13  A    between atoms: C_28  and  C_29
REMARK                            x       y       z     vdW  Elec       q    Type
REMARK                         _______ _______ _______ _____ _____    ______ ____
ROOT
ATOM      1  C   UNL     1      -4.075   2.008   9.132  0.00  0.00    +0.255 C 
ATOM      2  O   UNL     1      -4.210   3.208   9.241  0.00  0.00    -0.272 OA
ATOM      3  N   UNL     1      -4.572   1.186  10.078  0.00  0.00    -0.283 N 
ATOM      4  H   UNL     1      -4.518   0.224   9.961  0.00  0.00    +0.155 HD
ENDROOT
BRANCH   3   5
ATOM      5  C   UNL     1      -5.164   1.719  11.228  0.00  0.00    +0.037 A 
ATOM      6  C   UNL     1      -5.026   1.068  12.447  0.00  0.00    +0.023 A 
ATOM      7  C   UNL     1      -5.607   1.598  13.583  0.00  0.00    +0.005 A 
ATOM      8  C   UNL     1      -6.336   2.769  13.508  0.00  0.00    +0.046 A 
ATOM      9  C   UNL     1      -6.481   3.421  12.292  0.00  0.00    +0.123 A 
ATOM     10  C   UNL     1      -5.896   2.896  11.150  0.00  0.00    +0.069 A 
BRANCH   9  11
ATOM     11  O   UNL     1      -7.198   4.574  12.219  0.00  0.00    -0.489 OA
BRANCH  11  12
ATOM     12  C   UNL     1      -7.691   5.109  13.449  0.00  0.00    +0.170 C 
ATOM     13  C   UNL     1      -6.598   5.946  14.116  0.00  0.00    +0.052 C 
BRANCH  12  14
ATOM     14  C   UNL     1      -8.910   5.991  13.169  0.00  0.00    +0.041 C 
ATOM     15  C   UNL     1     -10.047   5.129  12.617  0.00  0.00    +0.007 C 
ENDBRANCH  12  14
ENDBRANCH  11  12
ENDBRANCH   9  11
ENDBRANCH   3   5
BRANCH   1  16
ATOM     16  C   UNL     1      -3.353   1.435   7.940  0.00  0.00    +0.324 C 
BRANCH  16  17
ATOM     17  O   UNL     1      -2.925   2.499   7.087  0.00  0.00    -0.482 OA
BRANCH  17  21
ATOM     18  C   UNL     1      -0.885   1.444   3.658  0.00  0.00    -0.043 A 
ATOM     19  C   UNL     1      -1.328   0.465   4.528  0.00  0.00    +0.007 A 
ATOM     20  C   UNL     1      -2.011   0.815   5.676  0.00  0.00    +0.047 A 
ATOM     21  C   UNL     1      -2.253   2.152   5.958  0.00  0.00    +0.135 A 
ATOM     22  C   UNL     1      -1.808   3.134   5.084  0.00  0.00    +0.060 A 
ATOM     23  C   UNL     1      -1.120   2.778   3.938  0.00  0.00    +0.022 A 
ATOM     24 BR   UNL     1      -2.134   4.957   5.463  0.00  0.00    -0.047 Br
BRANCH  18  25
ATOM     25  C   UNL     1      -0.140   1.059   2.407  0.00  0.00    +0.016 C 
ATOM     26  C   UNL     1       1.254   1.689   2.428  0.00  0.00    +0.012 C 
BRANCH  25  28
ATOM     27  C   UNL     1      -0.219   1.062  -0.091  0.00  0.00    +0.004 C 
ATOM     28  C   UNL     1      -0.908   1.560   1.181  0.00  0.00    +0.004 C 
ENDBRANCH  25  28
ENDBRANCH  18  25
ENDBRANCH  17  21
ENDBRANCH  16  17
ENDBRANCH   1  16
TORSDOF 9
