REMARK  Name = ZINC67251452
REMARK  13 active torsions:
REMARK  status: ('A' for Active; 'I' for Inactive)
REMARK    1  A    between atoms: C_1  and  C_2
REMARK    2  A    between atoms: C_5  and  C_30
REMARK    3  A    between atoms: N_8  and  C_10
REMARK    4  A    between atoms: C_10  and  C_11
REMARK    5  A    between atoms: C_11  and  C_13
REMARK    6  A    between atoms: C_11  and  N_14
REMARK    7  A    between atoms: N_14  and  C_15
REMARK    8  A    between atoms: C_15  and  C_16
REMARK    9  A    between atoms: C_18  and  O_28
REMARK   10  A    between atoms: C_19  and  O_23
REMARK   11  A    between atoms: O_23  and  C_24
REMARK   12  A    between atoms: C_24  and  C_25
REMARK   13  A    between atoms: O_28  and  C_29
REMARK                            x       y       z     vdW  Elec       q    Type
REMARK                         _______ _______ _______ _____ _____    ______ ____
ROOT
ATOM      1  C   UNL     1       5.132  -2.165  -0.833  0.00  0.00    -0.029 A 
ATOM      2  C   UNL     1       6.132  -3.120  -0.870  0.00  0.00    +0.054 A 
ATOM      3  C   UNL     1       6.598  -3.590  -2.087  0.00  0.00    +0.163 A 
ATOM      4  C   UNL     1       6.057  -3.099  -3.272  0.00  0.00    +0.181 A 
ATOM      5  C   UNL     1       5.055  -2.142  -3.229  0.00  0.00    +0.086 A 
ATOM      6  C   UNL     1       4.591  -1.681  -2.009  0.00  0.00    +0.028 A 
ATOM      7 CL   UNL     1       4.379  -1.526  -4.704  0.00  0.00    -0.080 Cl
ENDROOT
BRANCH   3   8
ATOM      8  O   UNL     1       7.581  -4.528  -2.125  0.00  0.00    -0.491 OA
ATOM      9  C   UNL     1       8.089  -4.986  -0.870  0.00  0.00    +0.277 C 
ENDBRANCH   3   8
BRANCH   1  10
ATOM     10  C   UNL     1       4.628  -1.656   0.492  0.00  0.00    +0.116 C 
BRANCH  10  11
ATOM     11  N   UNL     1       3.512  -2.496   0.947  0.00  0.00    -0.311 NA
ATOM     12  H   UNL     1       3.786  -3.466   0.997  0.00  0.00    +0.122 HD
BRANCH  11  13
ATOM     13  C   UNL     1       2.993  -2.028   2.239  0.00  0.00    +0.034 C 
ATOM     14  C   UNL     1       3.825  -2.634   3.372  0.00  0.00    +0.022 C 
BRANCH  13  15
ATOM     15  C   UNL     1       1.534  -2.461   2.390  0.00  0.00    -0.060 C 
BRANCH  15  21
ATOM     16  C   UNL     1      -0.019   1.526   0.010  0.00  0.00    +0.005 C 
ATOM     17  C   UNL     1       0.002  -0.004   0.002  0.00  0.00    -0.031 C 
ATOM     18  C   UNL     1      -1.434  -0.535   0.015  0.00  0.00    +0.003 C 
ATOM     19  C   UNL     1      -1.402  -2.064   0.086  0.00  0.00    -0.031 C 
ATOM     20  C   UNL     1      -0.613  -2.496   1.324  0.00  0.00    -0.076 C 
ATOM     21  N   UNL     1       0.758  -1.980   1.239  0.00  0.00    +0.381 N 
ATOM     22  C   UNL     1       0.740  -0.512   1.242  0.00  0.00    -0.076 C 
ATOM     23  C   UNL     1      -0.728  -2.620  -1.170  0.00  0.00    +0.005 C 
ATOM     24  H   UNL     1       1.188  -2.307   0.386  0.00  0.00    -0.082 HD
ENDBRANCH  15  21
ENDBRANCH  13  15
ENDBRANCH  11  13
ENDBRANCH  10  11
ENDBRANCH   1  10
BRANCH   4  25
ATOM     25  O   UNL     1       6.512  -3.556  -4.470  0.00  0.00    -0.478 OA
BRANCH  25  26
ATOM     26  C   UNL     1       5.850  -4.696  -5.022  0.00  0.00    +0.324 C 
BRANCH  26  27
ATOM     27  C   UNL     1       6.485  -5.056  -6.340  0.00  0.00    +0.248 C 
ATOM     28  O   UNL     1       7.413  -4.401  -6.765  0.00  0.00    -0.272 OA
ATOM     29  N   UNL     1       6.022  -6.105  -7.048  0.00  0.00    -0.327 N 
ATOM     30  H   UNL     1       5.279  -6.629  -6.708  0.00  0.00    +0.145 HD
ATOM     31  H   UNL     1       6.431  -6.337  -7.896  0.00  0.00    +0.145 HD
ENDBRANCH  26  27
ENDBRANCH  25  26
ENDBRANCH   4  25
TORSDOF 9
