REMARK  Name = ZINC64787633
REMARK  6 active torsions:
REMARK  status: ('A' for Active; 'I' for Inactive)
REMARK    1  A    between atoms: C_1  and  C_2
REMARK    2  A    between atoms: C_5  and  C_11
REMARK    3  A    between atoms: C_7  and  N_8
REMARK    4  A    between atoms: C_19  and  C_21
REMARK    5  A    between atoms: N_28  and  C_35
REMARK    6  A    between atoms: N_31  and  C_34
REMARK                            x       y       z     vdW  Elec       q    Type
REMARK                         _______ _______ _______ _____ _____    ______ ____
ROOT
ATOM      1  C   UNL     1       1.540  -4.718   0.859  0.00  0.00    +0.064 A 
ATOM      2  C   UNL     1       2.186  -5.892   1.210  0.00  0.00    +0.089 A 
ATOM      3  C   UNL     1       1.702  -6.926   0.279  0.00  0.00    +0.083 A 
ATOM      4  C   UNL     1       0.828  -6.323  -0.538  0.00  0.00    +0.077 A 
ATOM      5  N   UNL     1       0.721  -4.994  -0.189  0.00  0.00    -0.337 N 
ATOM      6  C   UNL     1      -0.168  -4.055  -0.890  0.00  0.00    +0.150 C 
ATOM      7  C   UNL     1      -1.183  -4.872  -1.699  0.00  0.00    +0.182 C 
ATOM      8  O   UNL     1      -0.501  -5.872  -2.460  0.00  0.00    -0.364 OA
ATOM      9  C   UNL     1       0.044  -6.938  -1.675  0.00  0.00    +0.197 C 
ATOM     10  N   UNL     1       2.212  -8.221   0.424  0.00  0.00    -0.294 N 
ATOM     11  C   UNL     1       3.111  -8.492   1.387  0.00  0.00    +0.332 A 
ATOM     12  O   UNL     1       3.528  -9.630   1.478  0.00  0.00    -0.246 OA
ATOM     13  N   UNL     1       3.572  -7.578   2.250  0.00  0.00    -0.263 N 
ATOM     14  C   UNL     1       3.166  -6.291   2.222  0.00  0.00    +0.266 A 
ATOM     15  O   UNL     1       3.603  -5.482   3.019  0.00  0.00    -0.267 OA
ATOM     16  C   UNL     1       4.552  -7.989   3.259  0.00  0.00    +0.157 C 
ATOM     17  C   UNL     1       1.763  -9.287  -0.475  0.00  0.00    +0.154 C 
ENDROOT
BRANCH   1  22
ATOM     18  C   UNL     1       2.187   0.400   3.404  0.00  0.00    +0.046 C 
ATOM     19  C   UNL     1       2.017  -0.941   2.737  0.00  0.00    -0.020 A 
ATOM     20  C   UNL     1       2.004  -1.026   1.356  0.00  0.00    +0.006 A 
ATOM     21  C   UNL     1       1.849  -2.250   0.739  0.00  0.00    +0.010 A 
ATOM     22  C   UNL     1       1.706  -3.405   1.512  0.00  0.00    +0.001 A 
ATOM     23  C   UNL     1       1.721  -3.311   2.905  0.00  0.00    +0.043 A 
ATOM     24  C   UNL     1       1.881  -2.081   3.509  0.00  0.00    +0.130 A 
BRANCH  24  25
ATOM     25  N   UNL     1       1.902  -1.980   4.985  0.00  0.00    +0.057 N 
ATOM     26  O   UNL     1       2.650  -1.199   5.527  0.00  0.00    -0.126 OA
ATOM     27  O   UNL     1       1.172  -2.678   5.650  0.00  0.00    -0.126 OA
ENDBRANCH  24  25
ENDBRANCH   1  22
BRANCH   9  28
ATOM     28  C   UNL     1       0.955  -7.794  -2.518  0.00  0.00    -0.013 A 
ATOM     29  C   UNL     1       0.614  -9.106  -2.790  0.00  0.00    +0.009 A 
ATOM     30  C   UNL     1       1.447  -9.891  -3.563  0.00  0.00    +0.039 A 
ATOM     31  C   UNL     1       2.625  -9.364  -4.066  0.00  0.00    +0.123 A 
ATOM     32  C   UNL     1       2.965  -8.050  -3.793  0.00  0.00    +0.039 A 
ATOM     33  C   UNL     1       2.127  -7.265  -3.024  0.00  0.00    +0.009 A 
ATOM     34  F   UNL     1       3.441 -10.131  -4.821  0.00  0.00    -0.205 F 
ENDBRANCH   9  28
TORSDOF 3
