REMARK  Name = ZINC58304145
REMARK  2 active torsions:
REMARK  status: ('A' for Active; 'I' for Inactive)
REMARK    1  A    between atoms: C_6  and  S_7
REMARK    2  A    between atoms: S_7  and  N_10
REMARK                            x       y       z     vdW  Elec       q    Type
REMARK                         _______ _______ _______ _____ _____    ______ ____
ROOT
ATOM      1  N   UNL     1      -1.956  -1.133  -1.567  0.00  0.00    -0.174 NA
ATOM      2  C   UNL     1      -2.784  -0.145  -2.273  0.00  0.00    +0.128 C 
ATOM      3  C   UNL     1      -2.051   0.284  -3.551  0.00  0.00    +0.123 C 
ATOM      4  N   UNL     1      -1.618  -0.922  -4.271  0.00  0.00    -0.312 N 
ATOM      5  C   UNL     1      -0.791  -1.911  -3.564  0.00  0.00    +0.123 C 
ATOM      6  C   UNL     1      -1.519  -2.336  -2.289  0.00  0.00    +0.128 C 
ATOM      7  C   UNL     1      -1.983  -1.123  -5.590  0.00  0.00    +0.133 A 
ATOM      8  C   UNL     1      -1.224  -0.544  -6.644  0.00  0.00    +0.051 A 
ATOM      9  C   UNL     1      -0.029   0.296  -6.559  0.00  0.00    -0.025 A 
ATOM     10  C   UNL     1       0.505   0.721  -7.722  0.00  0.00    -0.004 A 
ATOM     11  S   UNL     1      -0.535   0.038  -8.985  0.00  0.00    -0.073 S 
ATOM     12  C   UNL     1      -1.689  -0.818  -7.946  0.00  0.00    +0.114 A 
ATOM     13  N   UNL     1      -2.759  -1.562  -8.154  0.00  0.00    -0.228 NA
ATOM     14  C   UNL     1      -3.423  -2.072  -7.135  0.00  0.00    +0.224 A 
ATOM     15  N   UNL     1      -3.040  -1.862  -5.888  0.00  0.00    -0.220 NA
ATOM     16  C   UNL     1       1.716   1.585  -7.903  0.00  0.00    +0.043 C 
ATOM     17  C   UNL     1       2.056   2.232  -6.553  0.00  0.00    +0.005 C 
ATOM     18  C   UNL     1       2.037   1.148  -5.471  0.00  0.00    +0.005 C 
ATOM     19  C   UNL     1       0.600   0.687  -5.224  0.00  0.00    +0.037 C 
ENDROOT
BRANCH   1  20
ATOM     20  S   UNL     1      -1.520  -0.892   0.012  0.00  0.00    +0.061 S 
ATOM     21  O   UNL     1      -1.241  -2.175   0.557  0.00  0.00    -0.153 OA
ATOM     22  O   UNL     1      -2.491  -0.021   0.574  0.00  0.00    -0.153 OA
BRANCH  20  28
ATOM     23  C   UNL     1      -0.002   1.376   0.006  0.00  0.00    +0.030 A 
ATOM     24  C   UNL     1       1.188   2.078  -0.002  0.00  0.00    +0.030 A 
ATOM     25  C   UNL     1       2.393   1.393  -0.013  0.00  0.00    +0.067 A 
ATOM     26  C   UNL     1       2.399  -0.003  -0.017  0.00  0.00    +0.069 A 
ATOM     27  C   UNL     1       1.201  -0.699  -0.011  0.00  0.00    +0.056 A 
ATOM     28  C   UNL     1       0.004  -0.008   0.002  0.00  0.00    +0.108 A 
ATOM     29  N   UNL     1       3.735  -0.400  -0.029  0.00  0.00    -0.306 N 
ATOM     30  H   UNL     1       4.055  -1.315  -0.034  0.00  0.00    +0.170 HD
ATOM     31  C   UNL     1       4.505   0.705  -0.031  0.00  0.00    +0.325 A 
ATOM     32  O   UNL     1       5.722   0.710  -0.041  0.00  0.00    -0.247 OA
ATOM     33  N   UNL     1       3.725   1.802  -0.022  0.00  0.00    -0.306 N 
ATOM     34  H   UNL     1       4.037   2.720  -0.022  0.00  0.00    +0.170 HD
ENDBRANCH  20  28
ENDBRANCH   1  20
TORSDOF 2
