REMARK  Name = ZINC37677380
REMARK  5 active torsions:
REMARK  status: ('A' for Active; 'I' for Inactive)
REMARK    1  A    between atoms: C_1  and  C_2
REMARK    2  A    between atoms: N_5  and  C_7
REMARK    3  A    between atoms: C_10  and  C_17
REMARK    4  A    between atoms: C_11  and  C_13
REMARK    5  A    between atoms: N_18  and  O_19
REMARK                            x       y       z     vdW  Elec       q    Type
REMARK                         _______ _______ _______ _____ _____    ______ ____
ROOT
ATOM      1  C   UNL     1       0.052  -3.236   1.463  0.00  0.00    +0.066 A 
ATOM      2  C   UNL     1       0.050  -3.108   2.847  0.00  0.00    +0.028 A 
ATOM      3  C   UNL     1       0.068  -4.232   3.644  0.00  0.00    +0.014 A 
ATOM      4  C   UNL     1       0.088  -5.500   3.060  0.00  0.00    +0.029 A 
ATOM      5  C   UNL     1       0.091  -5.624   1.670  0.00  0.00    +0.067 A 
ATOM      6  C   UNL     1       0.067  -4.496   0.878  0.00  0.00    +0.040 A 
ENDROOT
BRANCH   1  11
ATOM      7  C   UNL     1      -0.018   1.503   0.010  0.00  0.00    +0.047 C 
ATOM      8  C   UNL     1       0.002  -0.004   0.002  0.00  0.00    -0.013 A 
ATOM      9  C   UNL     1       0.009  -0.821  -1.134  0.00  0.00    +0.138 A 
ATOM     10  N   UNL     1       0.027  -2.070  -0.744  0.00  0.00    -0.175 NA
ATOM     11  N   UNL     1       0.033  -2.092   0.656  0.00  0.00    -0.240 N 
ATOM     12  C   UNL     1       0.023  -0.805   1.092  0.00  0.00    +0.117 A 
ENDBRANCH   1  11
BRANCH   4  13
ATOM     13  C   UNL     1       0.108  -6.709   3.912  0.00  0.00    +0.163 C 
ATOM     14  N   UNL     1       0.127  -7.890   3.366  0.00  0.00    -0.072 NA
ATOM     15  N   UNL     1       0.106  -6.584   5.292  0.00  0.00    -0.340 N 
ATOM     16  H   UNL     1       0.092  -5.703   5.699  0.00  0.00    +0.144 HD
ATOM     17  H   UNL     1       0.119  -7.376   5.851  0.00  0.00    +0.144 HD
BRANCH  14  18
ATOM     18  O   UNL     1       0.146  -9.047   4.182  0.00  0.00    -0.408 OA
ATOM     19  H   UNL     1       0.160  -9.877   3.687  0.00  0.00    +0.328 HD
ENDBRANCH  14  18
ENDBRANCH   4  13
BRANCH   5  20
ATOM     20  C   UNL     1       0.113  -6.991   1.035  0.00  0.00    +0.418 C 
ATOM     21  F   UNL     1       0.111  -6.858  -0.358  0.00  0.00    -0.166 F 
ATOM     22  F   UNL     1       1.266  -7.673   1.437  0.00  0.00    -0.166 F 
ATOM     23  F   UNL     1      -1.018  -7.710   1.437  0.00  0.00    -0.166 F 
ENDBRANCH   5  20
TORSDOF 4
