REMARK  Name = ZINC63339429
REMARK  4 active torsions:
REMARK  status: ('A' for Active; 'I' for Inactive)
REMARK    1  A    between atoms: C_1  and  C_2
REMARK    2  A    between atoms: C_8  and  O_13
REMARK    3  A    between atoms: O_13  and  C_14
REMARK    4  A    between atoms: N_20  and  C_23
REMARK                            x       y       z     vdW  Elec       q    Type
REMARK                         _______ _______ _______ _____ _____    ______ ____
ROOT
ATOM      1  C   UNL     1       0.002   1.535   0.030  0.00  0.00    +0.044 C 
ATOM      2  C   UNL     1       0.008   0.005   0.003  0.00  0.00    +0.137 C 
ATOM      3  C   UNL     1      -1.412  -0.572   0.014  0.00  0.00    +0.139 C 
ATOM      4  C   UNL     1      -1.923  -0.432   1.443  0.00  0.00    -0.034 C 
ATOM      5  C   UNL     1      -3.041   0.283   1.372  0.00  0.00    +0.003 A 
ATOM      6  C   UNL     1      -4.008   0.693   2.401  0.00  0.00    +0.055 A 
ATOM      7  C   UNL     1      -5.062   1.448   1.982  0.00  0.00    +0.121 A 
ATOM      8  C   UNL     1      -5.264   1.840   0.651  0.00  0.00    +0.047 A 
ATOM      9  C   UNL     1      -4.439   1.514  -0.376  0.00  0.00    +0.029 A 
ATOM     10  C   UNL     1      -3.263   0.696  -0.048  0.00  0.00    +0.043 A 
ATOM     11  N   UNL     1      -2.317   0.222  -0.821  0.00  0.00    -0.375 N 
ATOM     12  C   UNL     1      -1.187  -0.978   2.642  0.00  0.00    +0.052 C 
ATOM     13  C   UNL     1       0.262  -0.459   2.562  0.00  0.00    +0.115 C 
ATOM     14  N   UNL     1       0.713  -0.568   1.172  0.00  0.00    -0.268 N 
ATOM     15  C   UNL     1       1.794  -1.201   0.699  0.00  0.00    +0.316 C 
ATOM     16  O   UNL     1       2.644  -1.709   1.404  0.00  0.00    -0.252 OA
ATOM     17  N   UNL     1       1.833  -1.210  -0.640  0.00  0.00    -0.192 N 
ATOM     18  C   UNL     1       0.793  -0.536  -1.173  0.00  0.00    +0.253 C 
ATOM     19  O   UNL     1       0.539  -0.393  -2.350  0.00  0.00    -0.272 OA
ATOM     20  H   UNL     1      -2.225   0.369  -1.776  0.00  0.00    +0.160 HD
ENDROOT
BRANCH  17  21
ATOM     21  C   UNL     1       2.832  -1.841  -1.395  0.00  0.00    +0.047 A 
ATOM     22  C   UNL     1       3.928  -2.410  -0.761  0.00  0.00    +0.025 A 
ATOM     23  C   UNL     1       4.911  -3.032  -1.506  0.00  0.00    +0.023 A 
ATOM     24  C   UNL     1       4.804  -3.089  -2.884  0.00  0.00    +0.059 A 
ATOM     25  C   UNL     1       3.712  -2.522  -3.520  0.00  0.00    +0.061 A 
ATOM     26  C   UNL     1       2.723  -1.904  -2.777  0.00  0.00    +0.045 A 
ATOM     27 CL   UNL     1       3.581  -2.595  -5.250  0.00  0.00    -0.082 Cl
ATOM     28 CL   UNL     1       6.041  -3.871  -3.818  0.00  0.00    -0.082 Cl
ENDBRANCH  17  21
BRANCH   7  29
ATOM     29  O   UNL     1      -5.973   1.843   2.910  0.00  0.00    -0.495 OA
ATOM     30  C   UNL     1      -7.070   2.634   2.447  0.00  0.00    +0.277 C 
ENDBRANCH   7  29
TORSDOF 2
