REMARK  Name = ZINC33253206
REMARK  9 active torsions:
REMARK  status: ('A' for Active; 'I' for Inactive)
REMARK    1  A    between atoms: C_1  and  C_2
REMARK    2  A    between atoms: C_2  and  S_3
REMARK    3  A    between atoms: S_3  and  N_6
REMARK    4  A    between atoms: N_6  and  C_7
REMARK    5  A    between atoms: C_10  and  N_16
REMARK    6  A    between atoms: C_11  and  C_13
REMARK    7  A    between atoms: N_19  and  C_22
REMARK    8  A    between atoms: C_22  and  C_23
REMARK    9  A    between atoms: N_25  and  C_26
REMARK                            x       y       z     vdW  Elec       q    Type
REMARK                         _______ _______ _______ _____ _____    ______ ____
ROOT
ATOM      1  N   UNL     1       2.949  -5.152  -5.944  0.00  0.00    -0.327 N 
ATOM      2  C   UNL     1       2.104  -5.869  -6.911  0.00  0.00    +0.120 C 
ATOM      3  C   UNL     1       2.344  -7.374  -6.745  0.00  0.00    +0.104 C 
ATOM      4  N   UNL     1       3.783  -7.651  -6.851  0.00  0.00    -0.291 NA
ATOM      5  C   UNL     1       4.533  -6.997  -5.770  0.00  0.00    +0.104 C 
ATOM      6  C   UNL     1       4.384  -5.473  -5.901  0.00  0.00    +0.120 C 
ENDROOT
BRANCH   1  10
ATOM      7  C   UNL     1       1.323  -2.273  -3.401  0.00  0.00    +0.075 A 
ATOM      8  C   UNL     1       1.311  -3.618  -3.041  0.00  0.00    +0.028 A 
ATOM      9  C   UNL     1       1.849  -4.569  -3.882  0.00  0.00    +0.026 A 
ATOM     10  C   UNL     1       2.407  -4.192  -5.097  0.00  0.00    +0.044 A 
ATOM     11  C   UNL     1       2.422  -2.837  -5.467  0.00  0.00    +0.086 A 
ATOM     12  C   UNL     1       1.868  -1.880  -4.609  0.00  0.00    +0.043 A 
BRANCH  11  13
ATOM     13  C   UNL     1       3.010  -2.427  -6.751  0.00  0.00    +0.388 C 
ATOM     14  O   UNL     1       3.108  -1.240  -7.028  0.00  0.00    -0.241 OA
ATOM     15  O   UNL     1       3.402  -3.274  -7.542  0.00  0.00    -0.241 OA
ENDBRANCH  11  13
BRANCH   7  16
ATOM     16  N   UNL     1       0.774  -1.316  -2.539  0.00  0.00    -0.103 NA
BRANCH  16  17
ATOM     17  S   UNL     1       0.120  -1.783  -1.091  0.00  0.00    +0.062 S 
ATOM     18  O   UNL     1       1.211  -2.318  -0.356  0.00  0.00    -0.154 OA
ATOM     19  O   UNL     1      -0.988  -2.601  -1.441  0.00  0.00    -0.154 OA
BRANCH  17  21
ATOM     20  C   UNL     1      -1.088  -0.559   1.036  0.00  0.00    +0.030 C 
ATOM     21  C   UNL     1      -0.458  -0.245  -0.322  0.00  0.00    +0.187 C 
ENDBRANCH  17  21
ENDBRANCH  16  17
ENDBRANCH   7  16
ENDBRANCH   1  10
BRANCH   4  22
ATOM     22  C   UNL     1       4.040  -9.098  -6.869  0.00  0.00    +0.180 C 
BRANCH  22  23
ATOM     23  C   UNL     1       5.484  -9.347  -7.223  0.00  0.00    +0.231 C 
ATOM     24  O   UNL     1       6.225  -8.411  -7.438  0.00  0.00    -0.274 OA
ATOM     25  N   UNL     1       5.950 -10.609  -7.300  0.00  0.00    -0.284 N 
ATOM     26  H   UNL     1       5.342 -11.358  -7.201  0.00  0.00    +0.155 HD
BRANCH  25  27
ATOM     27  C   UNL     1       7.314 -10.838  -7.522  0.00  0.00    +0.034 A 
ATOM     28  C   UNL     1       7.721 -11.942  -8.260  0.00  0.00    +0.026 A 
ATOM     29  C   UNL     1       9.066 -12.167  -8.478  0.00  0.00    +0.040 A 
ATOM     30  C   UNL     1      10.008 -11.293  -7.961  0.00  0.00    +0.124 A 
ATOM     31  C   UNL     1       9.604 -10.192  -7.225  0.00  0.00    +0.040 A 
ATOM     32  C   UNL     1       8.259  -9.960  -7.010  0.00  0.00    +0.026 A 
ATOM     33  F   UNL     1      11.324 -11.515  -8.175  0.00  0.00    -0.205 F 
ENDBRANCH  25  27
ENDBRANCH  22  23
ENDBRANCH   4  22
TORSDOF 8
