REMARK  Name = ZINC02667100
REMARK  6 active torsions:
REMARK  status: ('A' for Active; 'I' for Inactive)
REMARK    1  A    between atoms: C_1  and  C_2
REMARK    2  A    between atoms: C_2  and  C_31
REMARK    3  A    between atoms: C_9  and  C_21
REMARK    4  A    between atoms: C_17  and  C_19
REMARK    5  A    between atoms: C_17  and  C_20
REMARK    6  A    between atoms: N_23  and  C_24
REMARK                            x       y       z     vdW  Elec       q    Type
REMARK                         _______ _______ _______ _____ _____    ______ ____
ROOT
ATOM      1  C   UNL     1      -0.504  -3.903   0.947  0.00  0.00    +0.074 C 
ATOM      2  C   UNL     1      -1.369  -2.695   0.585  0.00  0.00    +0.166 C 
ATOM      3  O   UNL     1      -0.913  -2.132  -0.651  0.00  0.00    -0.341 OA
ATOM      4  C   UNL     1      -0.507  -0.759  -0.373  0.00  0.00    +0.187 C 
ATOM      5  C   UNL     1      -0.371  -0.694   1.125  0.00  0.00    +0.191 C 
ATOM      6  O   UNL     1      -1.271  -1.708   1.619  0.00  0.00    -0.340 OA
ATOM      7  C   UNL     1       1.013  -0.912   1.667  0.00  0.00    +0.238 C 
ATOM      8  O   UNL     1       2.078  -0.569   0.833  0.00  0.00    -0.333 OA
ATOM      9  C   UNL     1       2.035  -0.831  -0.555  0.00  0.00    +0.286 C 
ATOM     10  C   UNL     1       0.705  -0.406  -1.176  0.00  0.00    +0.209 C 
ATOM     11  O   UNL     1       0.843   0.998  -1.417  0.00  0.00    -0.338 OA
ATOM     12  C   UNL     1       2.252   1.272  -1.460  0.00  0.00    +0.168 C 
ATOM     13  O   UNL     1       2.975   0.057  -1.215  0.00  0.00    -0.318 OA
ATOM     14  C   UNL     1       2.625   1.820  -2.839  0.00  0.00    +0.074 C 
ATOM     15  C   UNL     1       2.607   2.304  -0.388  0.00  0.00    +0.074 C 
ATOM     16  C   UNL     1      -2.827  -3.136   0.437  0.00  0.00    +0.074 C 
ENDROOT
BRANCH   7  17
ATOM     17  C   UNL     1       1.150  -2.370   2.020  0.00  0.00    +0.249 C 
ATOM     18  O   UNL     1       0.386  -2.876   2.815  0.00  0.00    -0.273 OA
ATOM     19  N   UNL     1       2.122  -3.113   1.454  0.00  0.00    -0.283 N 
ATOM     20  H   UNL     1       2.789  -2.690   0.891  0.00  0.00    +0.155 HD
BRANCH  19  21
ATOM     21  C   UNL     1       2.167  -4.494   1.677  0.00  0.00    +0.034 A 
ATOM     22  C   UNL     1       1.414  -5.059   2.697  0.00  0.00    +0.025 A 
ATOM     23  C   UNL     1       1.457  -6.423   2.913  0.00  0.00    +0.022 A 
ATOM     24  C   UNL     1       2.258  -7.224   2.119  0.00  0.00    +0.041 A 
ATOM     25  C   UNL     1       3.014  -6.663   1.104  0.00  0.00    +0.022 A 
ATOM     26  C   UNL     1       2.971  -5.301   0.882  0.00  0.00    +0.025 A 
ATOM     27 CL   UNL     1       2.316  -8.937   2.396  0.00  0.00    -0.084 Cl
ENDBRANCH  19  21
ENDBRANCH   7  17
TORSDOF 2
