REMARK  Name = ZINC39875446
REMARK  5 active torsions:
REMARK  status: ('A' for Active; 'I' for Inactive)
REMARK    1  A    between atoms: C_1  and  C_2
REMARK    2  A    between atoms: C_5  and  N_9
REMARK    3  A    between atoms: C_10  and  C_26
REMARK    4  A    between atoms: C_29  and  O_32
REMARK    5  A    between atoms: O_32  and  C_33
REMARK                            x       y       z     vdW  Elec       q    Type
REMARK                         _______ _______ _______ _____ _____    ______ ____
ROOT
ATOM      1  N   UNL     1       0.057  -4.169  -0.022  0.00  0.00    -0.253 N 
ATOM      2  C   UNL     1       0.069  -5.041   1.164  0.00  0.00    +0.150 C 
ATOM      3  C   UNL     1       0.089  -6.440   0.640  0.00  0.00    +0.072 A 
ATOM      4  C   UNL     1       0.117  -7.731   1.334  0.00  0.00    +0.199 A 
ATOM      5  O   UNL     1      -0.049  -7.846   2.536  0.00  0.00    -0.287 OA
ATOM      6  C   UNL     1       0.366  -8.885   0.434  0.00  0.00    +0.065 A 
ATOM      7  C   UNL     1       0.619 -10.151   0.962  0.00  0.00    +0.030 A 
ATOM      8  C   UNL     1       0.853 -11.209   0.111  0.00  0.00    +0.019 A 
ATOM      9  C   UNL     1       0.837 -11.013  -1.264  0.00  0.00    +0.019 A 
ATOM     10  C   UNL     1       0.588  -9.769  -1.796  0.00  0.00    +0.048 A 
ATOM     11  C   UNL     1       0.345  -8.682  -0.956  0.00  0.00    +0.140 A 
ATOM     12  O   UNL     1       0.093  -7.472  -1.506  0.00  0.00    -0.450 OA
ATOM     13  C   UNL     1       0.084  -6.374  -0.725  0.00  0.00    +0.199 A 
ATOM     14  C   UNL     1       0.061  -4.955  -1.118  0.00  0.00    +0.287 C 
ATOM     15  O   UNL     1       0.050  -4.551  -2.264  0.00  0.00    -0.266 OA
ATOM     16 BR   UNL     1       1.195 -12.930   0.817  0.00  0.00    -0.050 Br
ENDROOT
BRANCH   1  21
ATOM     17  C   UNL     1      -0.018   1.503   0.010  0.00  0.00    +0.045 C 
ATOM     18  C   UNL     1       0.002  -0.004   0.002  0.00  0.00    -0.032 A 
ATOM     19  C   UNL     1       0.006  -0.688  -1.200  0.00  0.00    +0.006 A 
ATOM     20  C   UNL     1       0.024  -2.068  -1.212  0.00  0.00    +0.024 A 
ATOM     21  C   UNL     1       0.039  -2.772  -0.013  0.00  0.00    +0.039 A 
ATOM     22  C   UNL     1       0.036  -2.083   1.193  0.00  0.00    +0.043 A 
ATOM     23  C   UNL     1       0.023  -0.701   1.198  0.00  0.00    +0.046 A 
ATOM     24 CL   UNL     1       0.026   0.161   2.704  0.00  0.00    -0.083 Cl
ENDBRANCH   1  21
BRANCH   2  25
ATOM     25  C   UNL     1      -1.171  -4.812   1.990  0.00  0.00    -0.022 A 
ATOM     26  C   UNL     1      -2.392  -4.629   1.367  0.00  0.00    +0.009 A 
ATOM     27  C   UNL     1      -3.529  -4.418   2.121  0.00  0.00    +0.046 A 
ATOM     28  C   UNL     1      -3.446  -4.391   3.506  0.00  0.00    +0.120 A 
ATOM     29  C   UNL     1      -2.220  -4.575   4.129  0.00  0.00    +0.046 A 
ATOM     30  C   UNL     1      -1.086  -4.791   3.370  0.00  0.00    +0.009 A 
BRANCH  28  31
ATOM     31  O   UNL     1      -4.564  -4.183   4.251  0.00  0.00    -0.495 OA
ATOM     32  C   UNL     1      -4.403  -4.167   5.671  0.00  0.00    +0.277 C 
ENDBRANCH  28  31
ENDBRANCH   2  25
TORSDOF 3
