REMARK  Name = ZINC35202949
REMARK  5 active torsions:
REMARK  status: ('A' for Active; 'I' for Inactive)
REMARK    1  A    between atoms: C_4  and  N_7
REMARK    2  A    between atoms: N_9  and  C_26
REMARK    3  A    between atoms: C_13  and  C_16
REMARK    4  A    between atoms: N_18  and  C_19
REMARK    5  A    between atoms: C_26  and  C_27
REMARK                            x       y       z     vdW  Elec       q    Type
REMARK                         _______ _______ _______ _____ _____    ______ ____
ROOT
ATOM      1  N   UNL     1       2.923  -0.343  -0.093  0.00  0.00    -0.226 NA
ATOM      2  C   UNL     1       3.486  -1.218   0.707  0.00  0.00    +0.164 C 
ATOM      3  N   UNL     1       2.793  -1.772   1.768  0.00  0.00    -0.246 N 
ATOM      4  C   UNL     1       3.173  -2.862   2.418  0.00  0.00    +0.223 C 
ATOM      5  O   UNL     1       2.385  -3.289   3.234  0.00  0.00    -0.275 OA
ATOM      6  C   UNL     1       4.441  -3.632   2.280  0.00  0.00    +0.120 C 
ATOM      7  C   UNL     1       5.050  -3.510   0.882  0.00  0.00    +0.149 C 
ATOM      8  S   UNL     1       5.162  -1.742   0.469  0.00  0.00    -0.077 S 
ENDROOT
BRANCH   1  12
ATOM      9  C   UNL     1      -1.189  -0.308  -0.559  0.00  0.00    +0.000 A 
ATOM     10  C   UNL     1      -0.524   0.858  -0.224  0.00  0.00    +0.002 A 
ATOM     11  C   UNL     1       0.846   0.853  -0.067  0.00  0.00    +0.028 A 
ATOM     12  C   UNL     1       1.562  -0.332  -0.247  0.00  0.00    +0.067 A 
ATOM     13  C   UNL     1       0.885  -1.505  -0.586  0.00  0.00    +0.028 A 
ATOM     14  C   UNL     1      -0.486  -1.486  -0.740  0.00  0.00    +0.002 A 
ENDBRANCH   1  12
BRANCH   7  15
ATOM     15  C   UNL     1       6.425  -4.127   0.869  0.00  0.00    +0.231 C 
ATOM     16  O   UNL     1       7.101  -4.122   1.876  0.00  0.00    -0.274 OA
ATOM     17  N   UNL     1       6.904  -4.683  -0.261  0.00  0.00    -0.282 N 
ATOM     18  H   UNL     1       6.335  -4.757  -1.044  0.00  0.00    +0.155 HD
BRANCH  17  19
ATOM     19  C   UNL     1       8.221  -5.155  -0.306  0.00  0.00    +0.069 A 
ATOM     20  C   UNL     1       8.802  -5.705   0.828  0.00  0.00    +0.026 A 
ATOM     21  C   UNL     1      10.102  -6.170   0.781  0.00  0.00    +0.002 A 
ATOM     22  C   UNL     1      10.826  -6.087  -0.394  0.00  0.00    +0.003 A 
ATOM     23  C   UNL     1      10.253  -5.539  -1.526  0.00  0.00    +0.040 A 
ATOM     24  C   UNL     1       8.949  -5.078  -1.488  0.00  0.00    +0.144 A 
ATOM     25  F   UNL     1       8.387  -4.548  -2.596  0.00  0.00    -0.204 F 
ENDBRANCH  17  19
ENDBRANCH   7  15
BRANCH   3  26
ATOM     26  C   UNL     1       1.560  -1.111   2.202  0.00  0.00    +0.150 C 
BRANCH  26  27
ATOM     27  C   UNL     1       1.684  -0.717   3.652  0.00  0.00    -0.026 A 
ATOM     28  C   UNL     1       1.169  -1.540   4.636  0.00  0.00    +0.009 A 
ATOM     29  C   UNL     1       1.280  -1.184   5.967  0.00  0.00    +0.050 A 
ATOM     30  C   UNL     1       1.909  -0.000   6.318  0.00  0.00    +0.166 A 
ATOM     31  C   UNL     1       2.428   0.829   5.326  0.00  0.00    +0.167 A 
ATOM     32  C   UNL     1       2.317   0.462   3.995  0.00  0.00    +0.054 A 
ATOM     33  O   UNL     1       2.990   1.921   5.921  0.00  0.00    -0.453 OA
ATOM     34  C   UNL     1       2.451   1.952   7.256  0.00  0.00    +0.466 C 
ATOM     35  O   UNL     1       2.146   0.573   7.534  0.00  0.00    -0.453 OA
ENDBRANCH  26  27
ENDBRANCH   3  26
TORSDOF 5
