REMARK  Name = ZINC00934920
REMARK  7 active torsions:
REMARK  status: ('A' for Active; 'I' for Inactive)
REMARK    1  A    between atoms: C_1  and  C_2
REMARK    2  A    between atoms: C_5  and  N_8
REMARK    3  A    between atoms: C_11  and  C_22
REMARK    4  A    between atoms: C_15  and  C_16
REMARK    5  A    between atoms: C_15  and  C_18
REMARK    6  A    between atoms: N_20  and  C_21
REMARK    7  A    between atoms: C_22  and  C_23
REMARK                            x       y       z     vdW  Elec       q    Type
REMARK                         _______ _______ _______ _____ _____    ______ ____
ROOT
ATOM      1  N   UNL     1      -1.487   3.665  -0.292  0.00  0.00    -0.232 N 
ATOM      2  C   UNL     1      -2.656   4.252  -0.096  0.00  0.00    +0.238 C 
ATOM      3  O   UNL     1      -2.761   5.454   0.027  0.00  0.00    -0.274 OA
ATOM      4  C   UNL     1      -3.858   3.324  -0.030  0.00  0.00    +0.143 C 
ATOM      5  S   UNL     1      -3.034   1.702  -0.283  0.00  0.00    -0.095 S 
ATOM      6  C   UNL     1      -1.360   2.305  -0.439  0.00  0.00    +0.098 C 
ATOM      7  C   UNL     1      -0.196   1.567  -0.654  0.00  0.00    +0.141 C 
ENDROOT
BRANCH   1  12
ATOM      8  C   UNL     1       3.178   6.886  -0.554  0.00  0.00    +0.044 C 
ATOM      9  C   UNL     1       1.939   6.031  -0.484  0.00  0.00    -0.050 A 
ATOM     10  C   UNL     1       1.005   6.084  -1.503  0.00  0.00    +0.005 A 
ATOM     11  C   UNL     1      -0.131   5.301  -1.442  0.00  0.00    +0.024 A 
ATOM     12  C   UNL     1      -0.336   4.460  -0.356  0.00  0.00    +0.042 A 
ATOM     13  C   UNL     1       0.601   4.414   0.668  0.00  0.00    +0.024 A 
ATOM     14  C   UNL     1       1.738   5.194   0.598  0.00  0.00    +0.005 A 
ENDBRANCH   1  12
BRANCH   7  15
ATOM     15  C   UNL     1       1.072   2.255  -0.898  0.00  0.00    +0.257 C 
ATOM     16  O   UNL     1       1.885   2.371   0.001  0.00  0.00    -0.269 OA
ATOM     17  N   UNL     1       1.340   2.760  -2.118  0.00  0.00    -0.314 N 
ATOM     18  C   UNL     1       2.639   3.383  -2.384  0.00  0.00    +0.128 C 
ATOM     19  H   UNL     1       0.672   2.712  -2.821  0.00  0.00    +0.149 HD
ENDBRANCH   7  15
BRANCH   7  20
ATOM     20  C   UNL     1      -0.242   0.136  -0.641  0.00  0.00    +0.107 C 
ATOM     21  N   UNL     1      -0.279  -1.000  -0.630  0.00  0.00    -0.191 NA
ENDBRANCH   7  20
BRANCH   4  22
ATOM     22  C   UNL     1      -4.537   3.394   1.340  0.00  0.00    +0.059 C 
BRANCH  22  23
ATOM     23  C   UNL     1      -5.681   2.413   1.384  0.00  0.00    -0.046 A 
ATOM     24  C   UNL     1      -6.947   2.812   0.999  0.00  0.00    +0.006 A 
ATOM     25  C   UNL     1      -7.996   1.912   1.034  0.00  0.00    +0.038 A 
ATOM     26  C   UNL     1      -7.779   0.614   1.466  0.00  0.00    +0.123 A 
ATOM     27  C   UNL     1      -6.512   0.218   1.856  0.00  0.00    +0.038 A 
ATOM     28  C   UNL     1      -5.464   1.118   1.815  0.00  0.00    +0.006 A 
ATOM     29  F   UNL     1      -8.805  -0.265   1.505  0.00  0.00    -0.205 F 
ENDBRANCH  22  23
ENDBRANCH   4  22
TORSDOF 5
