REMARK  Name = ZINC22052786
REMARK  17 active torsions:
REMARK  status: ('A' for Active; 'I' for Inactive)
REMARK    1  A    between atoms: C_2  and  O_5
REMARK    2  A    between atoms: O_5  and  C_6
REMARK    3  A    between atoms: C_6  and  C_7
REMARK    4  A    between atoms: C_7  and  C_8
REMARK    5  A    between atoms: C_8  and  C_9
REMARK    6  A    between atoms: C_9  and  C_10
REMARK    7  A    between atoms: C_10  and  C_23
REMARK    8  A    between atoms: N_11  and  O_12
REMARK    9  A    between atoms: O_12  and  C_13
REMARK   10  A    between atoms: C_13  and  C_14
REMARK   11  A    between atoms: C_14  and  N_15
REMARK   12  A    between atoms: C_16  and  O_18
REMARK   13  A    between atoms: O_18  and  C_19
REMARK   14  A    between atoms: C_19  and  C_20
REMARK   15  A    between atoms: C_19  and  C_21
REMARK   16  A    between atoms: C_19  and  C_22
REMARK   17  A    between atoms: C_26  and  C_29
REMARK                            x       y       z     vdW  Elec       q    Type
REMARK                         _______ _______ _______ _____ _____    ______ ____
ROOT
ATOM      1  C   UNL     1       0.730  -1.850  -1.252  0.00  0.00    +0.087 C 
ATOM      2  N   UNL     1       0.646  -0.565  -1.127  0.00  0.00    -0.089 NA
ENDROOT
BRANCH   1   3
ATOM      3  C   UNL     1       1.401  -2.435  -2.430  0.00  0.00    -0.001 A 
ATOM      4  C   UNL     1       1.498  -3.821  -2.565  0.00  0.00    +0.010 A 
ATOM      5  C   UNL     1       2.123  -4.361  -3.671  0.00  0.00    +0.013 A 
ATOM      6  C   UNL     1       2.661  -3.532  -4.638  0.00  0.00    +0.055 A 
ATOM      7  C   UNL     1       2.573  -2.157  -4.508  0.00  0.00    +0.013 A 
ATOM      8  C   UNL     1       1.946  -1.604  -3.411  0.00  0.00    +0.010 A 
BRANCH   6   9
ATOM      9  C   UNL     1       3.347  -4.129  -5.840  0.00  0.00    +0.417 C 
ATOM     10  F   UNL     1       4.707  -4.301  -5.563  0.00  0.00    -0.166 F 
ATOM     11  F   UNL     1       2.771  -5.369  -6.138  0.00  0.00    -0.166 F 
ATOM     12  F   UNL     1       3.199  -3.271  -6.936  0.00  0.00    -0.166 F 
ENDBRANCH   6   9
ENDBRANCH   1   3
BRANCH   1  13
ATOM     13  C   UNL     1       0.142  -2.749  -0.196  0.00  0.00    +0.059 C 
BRANCH  13  14
ATOM     14  C   UNL     1      -1.012  -3.555  -0.796  0.00  0.00    +0.008 C 
BRANCH  14  15
ATOM     15  C   UNL     1      -1.608  -4.468   0.277  0.00  0.00    +0.028 C 
BRANCH  15  16
ATOM     16  C   UNL     1      -2.762  -5.274  -0.323  0.00  0.00    +0.159 C 
BRANCH  16  18
ATOM     17  C   UNL     1      -4.411  -6.927   0.220  0.00  0.00    +0.193 C 
ATOM     18  O   UNL     1      -3.319  -6.127   0.679  0.00  0.00    -0.383 OA
ENDBRANCH  16  18
ENDBRANCH  15  16
ENDBRANCH  14  15
ENDBRANCH  13  14
ENDBRANCH   1  13
BRANCH   2  19
ATOM     19  O   UNL     1       0.002  -0.004   0.002  0.00  0.00    -0.392 OA
BRANCH  19  20
ATOM     20  C   UNL     1      -0.017   1.425   0.010  0.00  0.00    +0.281 C 
BRANCH  20  21
ATOM     21  C   UNL     1      -0.733   1.918   1.269  0.00  0.00    +0.151 C 
BRANCH  21  22
ATOM     22  N   UNL     1       0.040   1.535   2.452  0.00  0.00    -0.278 N 
ATOM     23  C   UNL     1      -0.402   1.865   3.682  0.00  0.00    +0.401 C 
ATOM     24  O   UNL     1      -1.441   2.482   3.809  0.00  0.00    -0.226 OA
ATOM     25  H   UNL     1       0.981   0.977   2.338  0.00  0.00    +0.152 HD
BRANCH  23  26
ATOM     26  O   UNL     1       0.309   1.513   4.770  0.00  0.00    -0.445 OA
BRANCH  26  27
ATOM     27  C   UNL     1      -0.227   1.903   6.062  0.00  0.00    +0.107 C 
ATOM     28  C   UNL     1      -1.609   1.274   6.252  0.00  0.00    +0.055 C 
ATOM     29  C   UNL     1       0.710   1.418   7.170  0.00  0.00    +0.055 C 
ATOM     30  C   UNL     1      -0.347   3.426   6.126  0.00  0.00    +0.055 C 
ENDBRANCH  26  27
ENDBRANCH  23  26
ENDBRANCH  21  22
ENDBRANCH  20  21
ENDBRANCH  19  20
ENDBRANCH   2  19
TORSDOF 13
