REMARK  Name = ZINC67250949
REMARK  2 active torsions:
REMARK  status: ('A' for Active; 'I' for Inactive)
REMARK    1  A    between atoms: C_6  and  C_7
REMARK    2  A    between atoms: N_16  and  C_17
REMARK                            x       y       z     vdW  Elec       q    Type
REMARK                         _______ _______ _______ _____ _____    ______ ____
ROOT
ATOM      1  C   UNL     1      -1.661  -0.673   0.443  0.00  0.00    +0.166 C 
ATOM      2  C   UNL     1      -1.893  -0.953  -1.047  0.00  0.00    +0.145 C 
ATOM      3  N   UNL     1      -2.914  -2.005  -1.168  0.00  0.00    -0.280 N 
ATOM      4  C   UNL     1      -2.735  -3.237  -0.383  0.00  0.00    +0.137 C 
ATOM      5  C   UNL     1      -2.462  -2.846   1.075  0.00  0.00    +0.179 C 
ATOM      6  O   UNL     1      -1.387  -1.904   1.117  0.00  0.00    -0.369 OA
ATOM      7  C   UNL     1      -3.982  -1.846  -1.974  0.00  0.00    +0.307 C 
ATOM      8  O   UNL     1      -4.162  -0.786  -2.542  0.00  0.00    -0.252 OA
ATOM      9  N   UNL     1      -4.851  -2.861  -2.150  0.00  0.00    -0.267 N 
ATOM     10  H   UNL     1      -4.745  -3.683  -1.646  0.00  0.00    +0.156 HD
ENDROOT
BRANCH   9  11
ATOM     11  C   UNL     1      -5.909  -2.728  -3.060  0.00  0.00    +0.073 A 
ATOM     12  C   UNL     1      -5.867  -1.742  -4.035  0.00  0.00    +0.029 A 
ATOM     13  C   UNL     1      -6.910  -1.611  -4.932  0.00  0.00    +0.043 A 
ATOM     14  C   UNL     1      -7.999  -2.463  -4.859  0.00  0.00    +0.161 A 
ATOM     15  C   UNL     1      -8.046  -3.450  -3.887  0.00  0.00    +0.195 A 
ATOM     16  C   UNL     1      -6.999  -3.588  -2.990  0.00  0.00    +0.182 A 
ATOM     17  F   UNL     1      -7.040  -4.553  -2.045  0.00  0.00    -0.200 F 
ATOM     18  F   UNL     1      -9.109  -4.280  -3.817  0.00  0.00    -0.199 F 
ATOM     19  F   UNL     1      -9.018  -2.333  -5.737  0.00  0.00    -0.202 F 
ENDBRANCH   9  11
BRANCH   1  25
ATOM     20  C   UNL     1      -0.704   1.607   0.825  0.00  0.00    +0.009 A 
ATOM     21  C   UNL     1       0.370   2.465   0.972  0.00  0.00    +0.041 A 
ATOM     22  C   UNL     1       1.662   1.975   0.898  0.00  0.00    +0.158 A 
ATOM     23  C   UNL     1       1.878   0.624   0.676  0.00  0.00    +0.159 A 
ATOM     24  C   UNL     1       0.801  -0.233   0.529  0.00  0.00    +0.047 A 
ATOM     25  C   UNL     1      -0.489   0.260   0.603  0.00  0.00    -0.015 A 
ATOM     26  F   UNL     1       3.139   0.143   0.603  0.00  0.00    -0.202 F 
ATOM     27  F   UNL     1       2.712   2.813   1.042  0.00  0.00    -0.202 F 
ENDBRANCH   1  25
TORSDOF 2
