REMARK  Name = ZINC08840476
REMARK  7 active torsions:
REMARK  status: ('A' for Active; 'I' for Inactive)
REMARK    1  A    between atoms: C_1  and  C_2
REMARK    2  A    between atoms: C_2  and  C_3
REMARK    3  A    between atoms: C_3  and  S_4
REMARK    4  A    between atoms: S_4  and  N_7
REMARK    5  A    between atoms: C_13  and  N_17
REMARK    6  A    between atoms: N_17  and  S_18
REMARK    7  A    between atoms: S_18  and  C_21
REMARK                            x       y       z     vdW  Elec       q    Type
REMARK                         _______ _______ _______ _____ _____    ______ ____
ROOT
ATOM      1  N   UNL     1      -7.047   5.758   3.487  0.00  0.00    -0.177 NA
ATOM      2  C   UNL     1      -6.715   6.741   2.442  0.00  0.00    +0.114 C 
ATOM      3  C   UNL     1      -5.217   6.641   2.162  0.00  0.00    +0.052 C 
ATOM      4  C   UNL     1      -4.799   5.204   1.986  0.00  0.00    -0.042 A 
ATOM      5  C   UNL     1      -3.599   4.960   1.327  0.00  0.00    +0.006 A 
ATOM      6  C   UNL     1      -3.144   3.671   1.149  0.00  0.00    +0.025 A 
ATOM      7  C   UNL     1      -3.897   2.603   1.621  0.00  0.00    +0.048 A 
ATOM      8  C   UNL     1      -5.096   2.847   2.273  0.00  0.00    +0.029 A 
ATOM      9  C   UNL     1      -5.547   4.146   2.454  0.00  0.00    -0.027 A 
ATOM     10  C   UNL     1      -6.865   4.340   3.160  0.00  0.00    +0.144 C 
ENDROOT
BRANCH   1  11
ATOM     11  S   UNL     1      -7.603   6.236   4.972  0.00  0.00    +0.032 S 
ATOM     12  O   UNL     1      -8.218   7.496   4.742  0.00  0.00    -0.158 OA
ATOM     13  O   UNL     1      -8.365   5.133   5.445  0.00  0.00    -0.158 OA
BRANCH  11  14
ATOM     14  C   UNL     1      -6.111   6.444   5.983  0.00  0.00    +0.185 C 
BRANCH  14  16
ATOM     15  C   UNL     1      -5.250   7.065   8.245  0.00  0.00    +0.005 C 
ATOM     16  C   UNL     1      -6.508   6.889   7.392  0.00  0.00    +0.021 C 
ENDBRANCH  14  16
ENDBRANCH  11  14
ENDBRANCH   1  11
BRANCH   7  17
ATOM     17  N   UNL     1      -3.446   1.293   1.445  0.00  0.00    -0.216 N 
ATOM     18  H   UNL     1      -3.473   0.667   2.186  0.00  0.00    +0.174 HD
BRANCH  17  19
ATOM     19  S   UNL     1      -2.866   0.808  -0.028  0.00  0.00    +0.075 S 
ATOM     20  O   UNL     1      -2.590  -0.582   0.082  0.00  0.00    -0.150 OA
ATOM     21  O   UNL     1      -1.876   1.754  -0.406  0.00  0.00    -0.150 OA
BRANCH  19  22
ATOM     22  C   UNL     1      -4.185   0.969  -1.185  0.00  0.00    +0.144 A 
ATOM     23  C   UNL     1      -4.091   1.885  -2.216  0.00  0.00    +0.034 A 
ATOM     24  C   UNL     1      -5.122   2.008  -3.128  0.00  0.00    +0.040 A 
ATOM     25  C   UNL     1      -6.253   1.217  -3.007  0.00  0.00    +0.126 A 
ATOM     26  C   UNL     1      -6.350   0.303  -1.973  0.00  0.00    +0.078 A 
ATOM     27  C   UNL     1      -5.316   0.181  -1.059  0.00  0.00    +0.153 A 
ATOM     28  F   UNL     1      -5.410  -0.711  -0.049  0.00  0.00    -0.203 F 
ATOM     29  F   UNL     1      -7.260   1.338  -3.899  0.00  0.00    -0.205 F 
ENDBRANCH  19  22
ENDBRANCH  17  19
ENDBRANCH   7  17
TORSDOF 6
