REMARK  Name = ZINC64093830
REMARK  5 active torsions:
REMARK  status: ('A' for Active; 'I' for Inactive)
REMARK    1  A    between atoms: C_1  and  C_2
REMARK    2  A    between atoms: C_5  and  S_8
REMARK    3  A    between atoms: S_8  and  C_9
REMARK    4  A    between atoms: C_11  and  N_16
REMARK    5  A    between atoms: C_19  and  C_22
REMARK                            x       y       z     vdW  Elec       q    Type
REMARK                         _______ _______ _______ _____ _____    ______ ____
ROOT
ATOM      1  C   UNL     1       0.223  -4.966   1.677  0.00  0.00    +0.108 A 
ATOM      2  C   UNL     1       0.387  -6.297   2.054  0.00  0.00    +0.079 A 
ATOM      3  C   UNL     1       0.516  -6.591   3.407  0.00  0.00    +0.127 A 
ATOM      4  N   UNL     1       0.479  -5.598   4.293  0.00  0.00    -0.200 NA
ATOM      5  C   UNL     1       0.321  -4.343   3.899  0.00  0.00    +0.215 A 
ATOM      6  N   UNL     1       0.201  -4.025   2.619  0.00  0.00    -0.208 NA
ATOM      7  N   UNL     1       0.287  -3.338   4.849  0.00  0.00    -0.327 N 
ATOM      8  H   UNL     1       0.378  -3.556   5.790  0.00  0.00    +0.145 HD
ATOM      9  H   UNL     1       0.172  -2.415   4.574  0.00  0.00    +0.145 HD
ENDROOT
BRANCH   3  10
ATOM     10  N   UNL     1       0.681  -7.902   3.829  0.00  0.00    -0.315 N 
ATOM     11  C   UNL     1       0.589  -8.247   5.254  0.00  0.00    +0.107 C 
ATOM     12  C   UNL     1      -0.439  -9.371   5.423  0.00  0.00    +0.028 C 
ATOM     13  C   UNL     1      -0.061 -10.543   4.516  0.00  0.00    +0.037 C 
ATOM     14  C   UNL     1      -0.081 -10.087   3.055  0.00  0.00    +0.028 C 
ATOM     15  C   UNL     1       0.945  -8.973   2.858  0.00  0.00    +0.107 C 
BRANCH  13  16
ATOM     16  C   UNL     1      -1.050 -11.664   4.705  0.00  0.00    +0.032 C 
ATOM     17  N   UNL     1      -2.099 -11.519   5.462  0.00  0.00    -0.246 NA
ATOM     18  C   UNL     1      -2.991 -12.493   5.648  0.00  0.00    +0.211 C 
ATOM     19  N   UNL     1      -2.936 -13.682   5.115  0.00  0.00    -0.169 NA
ATOM     20  C   UNL     1      -1.933 -14.046   4.299  0.00  0.00    +0.243 C 
ATOM     21  O   UNL     1      -1.885 -15.155   3.805  0.00  0.00    -0.273 OA
ATOM     22  C   UNL     1      -0.865 -13.004   4.016  0.00  0.00    +0.149 C 
ENDBRANCH  13  16
ENDBRANCH   3  10
BRANCH   1  23
ATOM     23  S   UNL     1       0.055  -4.534  -0.022  0.00  0.00    -0.070 S 
BRANCH  23  28
ATOM     24  C   UNL     1      -0.005   1.502   0.006  0.00  0.00    +0.044 C 
ATOM     25  C   UNL     1       0.010  -0.005  -0.001  0.00  0.00    -0.050 A 
ATOM     26  C   UNL     1       1.215  -0.682  -0.017  0.00  0.00    +0.004 A 
ATOM     27  C   UNL     1       1.233  -2.063  -0.023  0.00  0.00    +0.015 A 
ATOM     28  C   UNL     1       0.037  -2.772  -0.014  0.00  0.00    +0.014 A 
ATOM     29  C   UNL     1      -1.172  -2.087   0.002  0.00  0.00    +0.015 A 
ATOM     30  C   UNL     1      -1.182  -0.707   0.014  0.00  0.00    +0.004 A 
ENDBRANCH  23  28
ENDBRANCH   1  23
TORSDOF 4
