REMARK  Name = ZINC01072494
REMARK  5 active torsions:
REMARK  status: ('A' for Active; 'I' for Inactive)
REMARK    1  A    between atoms: C_3  and  C_31
REMARK    2  A    between atoms: C_5  and  N_7
REMARK    3  A    between atoms: C_10  and  C_17
REMARK    4  A    between atoms: C_12  and  C_15
REMARK    5  A    between atoms: C_13  and  N_14
REMARK                            x       y       z     vdW  Elec       q    Type
REMARK                         _______ _______ _______ _____ _____    ______ ____
ROOT
ATOM      1  N   UNL     1      -0.071   5.236   0.009  0.00  0.00    -0.260 N 
ATOM      2  C   UNL     1       1.109   5.925   0.112  0.00  0.00    +0.024 C 
ATOM      3  C   UNL     1       1.180   7.223  -0.258  0.00  0.00    +0.025 C 
ATOM      4  C   UNL     1      -0.035   7.949  -0.778  0.00  0.00    +0.097 C 
ATOM      5  C   UNL     1      -1.296   7.216  -0.429  0.00  0.00    +0.077 C 
ATOM      6  C   UNL     1      -1.270   5.910  -0.060  0.00  0.00    +0.107 C 
ATOM      7  C   UNL     1       2.388   7.936  -0.164  0.00  0.00    +0.162 C 
ATOM      8  O   UNL     1       2.415   9.108  -0.487  0.00  0.00    -0.292 OA
ATOM      9  C   UNL     1       3.647   7.277   0.327  0.00  0.00    +0.080 C 
ATOM     10  C   UNL     1       3.587   5.781   0.000  0.00  0.00    +0.014 C 
ATOM     11  C   UNL     1       2.322   5.198   0.633  0.00  0.00    +0.052 C 
ENDROOT
BRANCH   4  12
ATOM     12  C   UNL     1       0.067   8.071  -2.277  0.00  0.00    -0.031 A 
ATOM     13  C   UNL     1       0.113   6.932  -3.060  0.00  0.00    +0.008 A 
ATOM     14  C   UNL     1       0.202   7.039  -4.435  0.00  0.00    +0.050 A 
ATOM     15  C   UNL     1       0.255   8.288  -5.032  0.00  0.00    +0.166 A 
ATOM     16  C   UNL     1       0.214   9.435  -4.243  0.00  0.00    +0.167 A 
ATOM     17  C   UNL     1       0.120   9.320  -2.865  0.00  0.00    +0.054 A 
ATOM     18  O   UNL     1       0.281  10.528  -5.058  0.00  0.00    -0.453 OA
ATOM     19  C   UNL     1      -0.048  10.046  -6.374  0.00  0.00    +0.466 C 
ATOM     20  O   UNL     1       0.348   8.662  -6.341  0.00  0.00    -0.453 OA
ENDBRANCH   4  12
BRANCH   1  25
ATOM     21  C   UNL     1      -0.133   1.734   1.129  0.00  0.00    +0.002 A 
ATOM     22  C   UNL     1      -0.033   1.070  -0.081  0.00  0.00    +0.012 A 
ATOM     23  C   UNL     1       0.059   1.786  -1.260  0.00  0.00    +0.057 A 
ATOM     24  C   UNL     1       0.042   3.167  -1.234  0.00  0.00    +0.036 A 
ATOM     25  C   UNL     1      -0.058   3.837  -0.021  0.00  0.00    +0.040 A 
ATOM     26  C   UNL     1      -0.145   3.114   1.162  0.00  0.00    +0.024 A 
BRANCH  23  27
ATOM     27  C   UNL     1       0.173   1.060  -2.575  0.00  0.00    +0.417 C 
ATOM     28  F   UNL     1       0.165  -0.321  -2.347  0.00  0.00    -0.166 F 
ATOM     29  F   UNL     1      -0.908   1.404  -3.393  0.00  0.00    -0.166 F 
ATOM     30  F   UNL     1       1.369   1.421  -3.205  0.00  0.00    -0.166 F 
ENDBRANCH  23  27
ENDBRANCH   1  25
BRANCH   6  31
ATOM     31  N   UNL     1      -2.441   5.259   0.247  0.00  0.00    -0.345 N 
ATOM     32  H   UNL     1      -2.417   4.354   0.595  0.00  0.00    +0.144 HD
ATOM     33  H   UNL     1      -3.292   5.705   0.115  0.00  0.00    +0.144 HD
ENDBRANCH   6  31
BRANCH   5  34
ATOM     34  C   UNL     1      -2.550   7.906  -0.485  0.00  0.00    +0.099 C 
ATOM     35  N   UNL     1      -3.544   8.454  -0.530  0.00  0.00    -0.191 NA
ENDBRANCH   5  34
TORSDOF 5
