REMARK  Name = ZINC05395628
REMARK  11 active torsions:
REMARK  status: ('A' for Active; 'I' for Inactive)
REMARK    1  A    between atoms: C_1  and  C_2
REMARK    2  A    between atoms: C_4  and  O_40
REMARK    3  A    between atoms: C_6  and  N_63
REMARK    4  A    between atoms: C_9  and  O_12
REMARK    5  A    between atoms: O_12  and  C_13
REMARK    6  A    between atoms: C_16  and  O_38
REMARK    7  A    between atoms: C_20  and  O_37
REMARK    8  A    between atoms: C_23  and  O_24
REMARK    9  A    between atoms: C_31  and  O_35
REMARK   10  A    between atoms: O_35  and  C_36
REMARK   11  A    between atoms: O_38  and  C_39
REMARK                            x       y       z     vdW  Elec       q    Type
REMARK                         _______ _______ _______ _____ _____    ______ ____
ROOT
ATOM      1  C   UNL     1       2.122   1.085  -1.082  0.00  0.00    +0.163 C 
ATOM      2  C   UNL     1       2.821  -0.202  -0.649  0.00  0.00    +0.110 C 
ATOM      3  C   UNL     1       3.880   0.090   0.377  0.00  0.00    +0.101 C 
ATOM      4  C   UNL     1       4.607   1.212   0.312  0.00  0.00    +0.053 C 
ATOM      5  C   UNL     1       4.358   2.173  -0.775  0.00  0.00    +0.029 A 
ATOM      6  C   UNL     1       3.147   2.120  -1.465  0.00  0.00    +0.034 A 
ATOM      7  C   UNL     1       2.891   3.013  -2.495  0.00  0.00    +0.135 A 
ATOM      8  C   UNL     1       3.847   3.974  -2.846  0.00  0.00    +0.078 A 
ATOM      9  C   UNL     1       5.074   4.035  -2.149  0.00  0.00    +0.079 A 
ATOM     10  C   UNL     1       5.329   3.135  -1.115  0.00  0.00    +0.136 A 
ATOM     11  C   UNL     1       6.081   5.047  -2.513  0.00  0.00    +0.198 C 
ATOM     12  O   UNL     1       7.137   5.099  -1.914  0.00  0.00    -0.286 OA
ATOM     13  C   UNL     1       5.803   5.998  -3.609  0.00  0.00    +0.037 A 
ATOM     14  C   UNL     1       6.745   6.960  -3.960  0.00  0.00    +0.012 A 
ATOM     15  C   UNL     1       6.480   7.848  -4.988  0.00  0.00    +0.004 A 
ATOM     16  C   UNL     1       5.283   7.790  -5.674  0.00  0.00    +0.046 A 
ATOM     17  C   UNL     1       4.327   6.836  -5.340  0.00  0.00    +0.132 A 
ATOM     18  C   UNL     1       4.581   5.933  -4.304  0.00  0.00    +0.075 A 
ATOM     19  C   UNL     1       3.575   4.919  -3.938  0.00  0.00    +0.202 C 
ATOM     20  O   UNL     1       2.519   4.864  -4.541  0.00  0.00    -0.286 OA
ENDROOT
BRANCH  10  21
ATOM     21  O   UNL     1       6.504   3.185  -0.442  0.00  0.00    -0.505 OA
ATOM     22  H   UNL     1       7.201   2.636  -0.826  0.00  0.00    +0.292 HD
ENDBRANCH  10  21
BRANCH  17  23
ATOM     23  O   UNL     1       3.153   6.783  -6.018  0.00  0.00    -0.494 OA
ATOM     24  C   UNL     1       2.964   7.738  -7.064  0.00  0.00    +0.277 C 
ENDBRANCH  17  23
BRANCH   7  25
ATOM     25  O   UNL     1       1.712   2.954  -3.163  0.00  0.00    -0.506 OA
ATOM     26  H   UNL     1       1.726   2.372  -3.935  0.00  0.00    +0.292 HD
ENDBRANCH   7  25
BRANCH   3  27
ATOM     27  O   UNL     1       4.102  -0.791   1.379  0.00  0.00    -0.499 OA
ATOM     28  C   UNL     1       5.121  -0.458   2.324  0.00  0.00    +0.276 C 
ENDBRANCH   3  27
BRANCH   1  29
ATOM     29  O   UNL     1       1.328   1.581  -0.002  0.00  0.00    -0.343 OA
BRANCH  29  35
ATOM     30  C   UNL     1      -2.682   1.644  -2.536  0.00  0.00    +0.040 C 
ATOM     31  C   UNL     1      -2.053   1.100  -1.252  0.00  0.00    +0.145 C 
ATOM     32  C   UNL     1      -2.853   1.594  -0.043  0.00  0.00    +0.129 C 
ATOM     33  C   UNL     1      -2.183   1.095   1.241  0.00  0.00    -0.039 C 
ATOM     34  C   UNL     1      -0.730   1.580   1.267  0.00  0.00    +0.048 C 
ATOM     35  C   UNL     1      -0.013   1.086   0.008  0.00  0.00    +0.250 C 
ATOM     36  O   UNL     1      -0.704   1.559  -1.149  0.00  0.00    -0.346 OA
BRANCH  33  39
ATOM     37  H   UNL     1      -2.477   1.310   3.267  0.00  0.00    -0.090 HD
ATOM     38  H   UNL     1      -2.947   2.633   2.376  0.00  0.00    -0.090 HD
ATOM     39  N   UNL     1      -2.924   1.615   2.404  0.00  0.00    +0.382 N 
ATOM     40  H   UNL     1      -3.885   1.257   2.379  0.00  0.00    -0.090 HD
ENDBRANCH  33  39
BRANCH  32  41
ATOM     41  O   UNL     1      -2.882   3.023  -0.043  0.00  0.00    -0.391 OA
ATOM     42  H   UNL     1      -3.289   3.408  -0.831  0.00  0.00    +0.210 HD
ENDBRANCH  32  41
ENDBRANCH  29  35
ENDBRANCH   1  29
TORSDOF 8
