REMARK  Name = ZINC62191842
REMARK  2 active torsions:
REMARK  status: ('A' for Active; 'I' for Inactive)
REMARK    1  A    between atoms: C_6  and  C_7
REMARK    2  A    between atoms: N_17  and  C_18
REMARK                            x       y       z     vdW  Elec       q    Type
REMARK                         _______ _______ _______ _____ _____    ______ ____
ROOT
ATOM      1  C   UNL     1      -1.424  -0.671  -0.025  0.00  0.00    +0.194 C 
ATOM      2  C   UNL     1      -1.503  -1.361  -1.359  0.00  0.00    +0.238 C 
ATOM      3  O   UNL     1      -2.231  -0.895  -2.209  0.00  0.00    -0.273 OA
ATOM      4  N   UNL     1      -0.809  -2.462  -1.649  0.00  0.00    -0.312 N 
ATOM      5  C   UNL     1       0.032  -3.184  -0.704  0.00  0.00    +0.123 C 
ATOM      6  C   UNL     1       0.452  -2.274   0.453  0.00  0.00    +0.129 C 
ATOM      7  N   UNL     1      -0.744  -1.556   0.933  0.00  0.00    -0.268 N 
ATOM      8  C   UNL     1      -1.196  -1.705   2.194  0.00  0.00    +0.307 C 
ATOM      9  O   UNL     1      -0.563  -2.368   2.992  0.00  0.00    -0.252 OA
ATOM     10  N   UNL     1      -2.349  -1.118   2.570  0.00  0.00    -0.269 N 
ATOM     11  H   UNL     1      -0.868  -2.807  -2.554  0.00  0.00    +0.149 HD
ATOM     12  H   UNL     1      -2.892  -0.651   1.915  0.00  0.00    +0.156 HD
ENDROOT
BRANCH   1  18
ATOM     13  C   UNL     1      -1.180   1.797   0.309  0.00  0.00    +0.009 A 
ATOM     14  C   UNL     1      -0.468   2.975   0.181  0.00  0.00    +0.038 A 
ATOM     15  C   UNL     1       0.777   2.969  -0.423  0.00  0.00    +0.123 A 
ATOM     16  C   UNL     1       1.309   1.782  -0.898  0.00  0.00    +0.038 A 
ATOM     17  C   UNL     1       0.596   0.605  -0.769  0.00  0.00    +0.009 A 
ATOM     18  C   UNL     1      -0.648   0.613  -0.165  0.00  0.00    -0.018 A 
ATOM     19  F   UNL     1       1.473   4.120  -0.550  0.00  0.00    -0.205 F 
ENDBRANCH   1  18
BRANCH  10  20
ATOM     20  C   UNL     1      -2.764  -1.181   3.906  0.00  0.00    +0.035 A 
ATOM     21  C   UNL     1      -2.499  -2.315   4.663  0.00  0.00    +0.025 A 
ATOM     22  C   UNL     1      -2.909  -2.375   5.980  0.00  0.00    +0.022 A 
ATOM     23  C   UNL     1      -3.583  -1.306   6.546  0.00  0.00    +0.041 A 
ATOM     24  C   UNL     1      -3.848  -0.176   5.793  0.00  0.00    +0.022 A 
ATOM     25  C   UNL     1      -3.434  -0.108   4.477  0.00  0.00    +0.025 A 
ATOM     26 CL   UNL     1      -4.097  -1.385   8.202  0.00  0.00    -0.084 Cl
ENDBRANCH  10  20
TORSDOF 2
