REMARK  Name = ZINC40802300
REMARK  5 active torsions:
REMARK  status: ('A' for Active; 'I' for Inactive)
REMARK    1  A    between atoms: C_1  and  C_2
REMARK    2  A    between atoms: C_11  and  N_12
REMARK    3  A    between atoms: C_14  and  N_31
REMARK    4  A    between atoms: C_15  and  N_19
REMARK    5  A    between atoms: C_23  and  C_26
REMARK                            x       y       z     vdW  Elec       q    Type
REMARK                         _______ _______ _______ _____ _____    ______ ____
ROOT
ATOM      1  N   UNL     1       0.064  -4.885  -1.143  0.00  0.00    -0.297 N 
ATOM      2  C   UNL     1       0.188  -6.269  -1.087  0.00  0.00    +0.149 A 
ATOM      3  C   UNL     1       0.305  -7.018  -2.260  0.00  0.00    +0.106 A 
ATOM      4  C   UNL     1       0.427  -8.404  -2.147  0.00  0.00    +0.150 A 
ATOM      5  N   UNL     1       0.428  -8.954  -0.935  0.00  0.00    -0.219 NA
ATOM      6  C   UNL     1       0.316  -8.211   0.147  0.00  0.00    +0.225 A 
ATOM      7  N   UNL     1       0.204  -6.899   0.085  0.00  0.00    -0.219 NA
ATOM      8  H   UNL     1      -0.030  -4.441  -2.000  0.00  0.00    +0.154 HD
ENDROOT
BRANCH   1  19
ATOM      9  C   UNL     1      -2.360   0.941   0.382  0.00  0.00    +0.063 C 
ATOM     10  C   UNL     1      -1.714  -0.416   0.275  0.00  0.00    +0.013 A 
ATOM     11  C   UNL     1      -1.769  -1.099  -0.937  0.00  0.00    +0.021 A 
ATOM     12  C   UNL     1      -1.188  -2.332  -1.052  0.00  0.00    +0.013 A 
ATOM     13  C   UNL     1      -0.548  -2.871   0.076  0.00  0.00    +0.020 A 
ATOM     14  C   UNL     1      -0.528  -2.124   1.279  0.00  0.00    +0.048 A 
ATOM     15  N   UNL     1      -1.110  -0.921   1.324  0.00  0.00    -0.358 N 
ATOM     16  C   UNL     1       0.112  -2.660   2.409  0.00  0.00    +0.026 A 
ATOM     17  C   UNL     1       0.704  -3.885   2.341  0.00  0.00    +0.004 A 
ATOM     18  C   UNL     1       0.690  -4.627   1.165  0.00  0.00    +0.024 A 
ATOM     19  C   UNL     1       0.073  -4.137   0.032  0.00  0.00    +0.042 A 
ATOM     20  H   UNL     1      -1.090  -0.413   2.150  0.00  0.00    +0.166 HD
ENDBRANCH   1  19
BRANCH   4  21
ATOM     21  N   UNL     1       0.546  -9.198  -3.283  0.00  0.00    -0.282 N 
ATOM     22  C   UNL     1       0.667 -10.579  -3.158  0.00  0.00    +0.142 A 
ATOM     23  C   UNL     1       0.791 -11.367  -4.299  0.00  0.00    +0.081 A 
ATOM     24  C   UNL     1       0.911 -12.739  -4.159  0.00  0.00    +0.037 A 
ATOM     25  C   UNL     1       0.903 -13.277  -2.879  0.00  0.00    +0.074 A 
ATOM     26  C   UNL     1       0.776 -12.436  -1.792  0.00  0.00    +0.125 A 
ATOM     27  N   UNL     1       0.669 -11.131  -1.954  0.00  0.00    -0.238 NA
ATOM     28 CL   UNL     1       0.795 -10.639  -5.875  0.00  0.00    -0.080 Cl
ATOM     29  H   UNL     1       0.544  -8.789  -4.162  0.00  0.00    +0.155 HD
BRANCH  25  30
ATOM     30  C   UNL     1       1.030 -14.765  -2.679  0.00  0.00    +0.419 C 
ATOM     31  F   UNL     1       2.382 -15.106  -2.558  0.00  0.00    -0.166 F 
ATOM     32  F   UNL     1       0.349 -15.139  -1.515  0.00  0.00    -0.166 F 
ATOM     33  F   UNL     1       0.478 -15.433  -3.777  0.00  0.00    -0.166 F 
ENDBRANCH  25  30
ENDBRANCH   4  21
BRANCH   3  34
ATOM     34  N   UNL     1       0.299  -6.395  -3.517  0.00  0.00    -0.353 N 
ATOM     35  H   UNL     1       0.213  -5.431  -3.580  0.00  0.00    +0.143 HD
ATOM     36  H   UNL     1       0.380  -6.928  -4.323  0.00  0.00    +0.143 HD
ENDBRANCH   3  34
TORSDOF 4
