REMARK  Name = ZINC09317624
REMARK  6 active torsions:
REMARK  status: ('A' for Active; 'I' for Inactive)
REMARK    1  A    between atoms: C_1  and  O_2
REMARK    2  A    between atoms: O_2  and  C_3
REMARK    3  A    between atoms: C_6  and  C_9
REMARK    4  A    between atoms: C_9  and  C_11
REMARK    5  A    between atoms: N_29  and  C_32
REMARK    6  A    between atoms: C_37  and  C_38
REMARK                            x       y       z     vdW  Elec       q    Type
REMARK                         _______ _______ _______ _____ _____    ______ ____
ROOT
ATOM      1  C   UNL     1       1.838   2.833  -0.675  0.00  0.00    +0.141 C 
ATOM      2  C   UNL     1       1.643   1.787   0.423  0.00  0.00    +0.116 C 
ATOM      3  C   UNL     1       2.118   0.518  -0.395  0.00  0.00    +0.113 C 
ATOM      4  C   UNL     1       3.362   0.992  -0.998  0.00  0.00    +0.100 C 
ATOM      5  C   UNL     1       3.696   3.058  -2.428  0.00  0.00    +0.054 C 
ATOM      6  C   UNL     1       4.365   2.352  -3.353  0.00  0.00    +0.022 C 
ATOM      7  C   UNL     1       4.369   0.878  -3.294  0.00  0.00    -0.019 A 
ATOM      8  C   UNL     1       3.876   0.211  -2.167  0.00  0.00    -0.021 A 
ATOM      9  C   UNL     1       3.870  -1.169  -2.141  0.00  0.00    +0.006 A 
ATOM     10  C   UNL     1       4.366  -1.891  -3.211  0.00  0.00    +0.000 A 
ATOM     11  C   UNL     1       4.878  -1.236  -4.317  0.00  0.00    +0.001 A 
ATOM     12  C   UNL     1       4.885   0.142  -4.362  0.00  0.00    +0.008 A 
ATOM     13  C   UNL     1       1.581  -0.556   0.405  0.00  0.00    +0.232 C 
ATOM     14  O   UNL     1       2.072  -1.647   0.602  0.00  0.00    -0.274 OA
ATOM     15  N   UNL     1       0.393  -0.072   0.894  0.00  0.00    -0.209 N 
ATOM     16  C   UNL     1       0.263   1.277   0.726  0.00  0.00    +0.232 C 
ATOM     17  O   UNL     1      -0.757   1.928   0.800  0.00  0.00    -0.274 OA
ATOM     18  N   UNL     1       3.209   2.425  -1.129  0.00  0.00    -0.384 NA
ATOM     19  H   UNL     1       3.844   2.810  -0.420  0.00  0.00    +0.127 HD
ENDROOT
BRANCH  15  20
ATOM     20  C   UNL     1      -0.581  -0.877   1.502  0.00  0.00    +0.056 A 
ATOM     21  C   UNL     1      -1.580  -1.460   0.735  0.00  0.00    +0.024 A 
ATOM     22  C   UNL     1      -2.538  -2.252   1.337  0.00  0.00    +0.002 A 
ATOM     23  C   UNL     1      -2.502  -2.465   2.703  0.00  0.00    +0.001 A 
ATOM     24  C   UNL     1      -1.509  -1.885   3.470  0.00  0.00    +0.014 A 
ATOM     25  C   UNL     1      -0.545  -1.097   2.873  0.00  0.00    +0.077 A 
BRANCH  25  26
ATOM     26  C   UNL     1       0.541  -0.470   3.709  0.00  0.00    +0.419 C 
ATOM     27  F   UNL     1       0.367  -0.835   5.048  0.00  0.00    -0.166 F 
ATOM     28  F   UNL     1       1.790  -0.918   3.262  0.00  0.00    -0.166 F 
ATOM     29  F   UNL     1       0.476   0.922   3.592  0.00  0.00    -0.166 F 
ENDBRANCH  25  26
ENDBRANCH  15  20
BRANCH   1  30
ATOM     30  C   UNL     1       2.110   4.185  -0.066  0.00  0.00    +0.183 C 
ATOM     31  O   UNL     1       3.252   4.547   0.122  0.00  0.00    -0.290 OA
BRANCH  30  35
ATOM     32  C   UNL     1      -1.116   6.720   0.987  0.00  0.00    +0.120 A 
ATOM     33  C   UNL     1       0.186   7.081   1.318  0.00  0.00    +0.046 A 
ATOM     34  C   UNL     1       1.234   6.264   0.979  0.00  0.00    +0.015 A 
ATOM     35  C   UNL     1       0.991   5.064   0.299  0.00  0.00    +0.019 A 
ATOM     36  C   UNL     1      -0.321   4.708  -0.037  0.00  0.00    +0.015 A 
ATOM     37  C   UNL     1      -1.362   5.529   0.311  0.00  0.00    +0.046 A 
BRANCH  32  39
ATOM     38  C   UNL     1      -3.460   7.101   0.955  0.00  0.00    +0.277 C 
ATOM     39  O   UNL     1      -2.149   7.532   1.325  0.00  0.00    -0.495 OA
ENDBRANCH  32  39
ENDBRANCH  30  35
ENDBRANCH   1  30
TORSDOF 5
