REMARK  Name = ZINC28556203
REMARK  2 active torsions:
REMARK  status: ('A' for Active; 'I' for Inactive)
REMARK    1  A    between atoms: C_3  and  S_8
REMARK    2  A    between atoms: S_8  and  N_11
REMARK                            x       y       z     vdW  Elec       q    Type
REMARK                         _______ _______ _______ _____ _____    ______ ____
ROOT
ATOM      1  N   UNL     1      -0.257   7.748  -2.550  0.00  0.00    -0.174 NA
ATOM      2  C   UNL     1       0.515   8.367  -1.462  0.00  0.00    +0.128 C 
ATOM      3  C   UNL     1       1.802   7.560  -1.258  0.00  0.00    +0.123 C 
ATOM      4  N   UNL     1       1.462   6.146  -1.053  0.00  0.00    -0.312 N 
ATOM      5  C   UNL     1       0.808   5.577  -2.239  0.00  0.00    +0.123 C 
ATOM      6  C   UNL     1      -0.519   6.303  -2.483  0.00  0.00    +0.128 C 
ATOM      7  C   UNL     1       2.580   5.415  -0.706  0.00  0.00    +0.132 A 
ATOM      8  C   UNL     1       2.658   4.757   0.545  0.00  0.00    +0.044 A 
ATOM      9  C   UNL     1       1.619   4.816   1.480  0.00  0.00    +0.062 A 
ATOM     10  C   UNL     1       1.741   4.165   2.677  0.00  0.00    +0.163 A 
ATOM     11  C   UNL     1       2.899   3.434   2.976  0.00  0.00    +0.164 A 
ATOM     12  C   UNL     1       3.937   3.362   2.071  0.00  0.00    +0.078 A 
ATOM     13  C   UNL     1       3.832   4.022   0.841  0.00  0.00    +0.080 A 
ATOM     14  N   UNL     1       4.815   3.981  -0.072  0.00  0.00    -0.235 NA
ATOM     15  C   UNL     1       4.687   4.611  -1.216  0.00  0.00    +0.223 A 
ATOM     16  N   UNL     1       3.609   5.309  -1.536  0.00  0.00    -0.220 NA
ATOM     17  O   UNL     1       3.019   2.783   4.165  0.00  0.00    -0.485 OA
ATOM     18  C   UNL     1       2.124   3.179   5.210  0.00  0.00    +0.270 C 
ATOM     19  C   UNL     1       0.709   3.267   4.623  0.00  0.00    +0.270 C 
ATOM     20  O   UNL     1       0.718   4.240   3.573  0.00  0.00    -0.485 OA
ENDROOT
BRANCH   1  21
ATOM     21  S   UNL     1      -0.816   8.655  -3.818  0.00  0.00    +0.061 S 
ATOM     22  O   UNL     1      -1.929   7.957  -4.357  0.00  0.00    -0.153 OA
ATOM     23  O   UNL     1      -0.909   9.993  -3.350  0.00  0.00    -0.153 OA
BRANCH  21  26
ATOM     24  C   UNL     1       1.416   7.647  -7.004  0.00  0.00    +0.040 A 
ATOM     25  C   UNL     1       0.435   7.658  -6.030  0.00  0.00    +0.031 A 
ATOM     26  C   UNL     1       0.435   8.642  -5.059  0.00  0.00    +0.106 A 
ATOM     27  C   UNL     1       1.413   9.620  -5.064  0.00  0.00    +0.031 A 
ATOM     28  C   UNL     1       2.397   9.608  -6.034  0.00  0.00    +0.040 A 
ATOM     29  C   UNL     1       2.398   8.623  -7.007  0.00  0.00    +0.124 A 
ATOM     30  F   UNL     1       3.358   8.613  -7.958  0.00  0.00    -0.205 F 
ENDBRANCH  21  26
ENDBRANCH   1  21
TORSDOF 2
