REMARK  Name = ZINC02299866
REMARK  6 active torsions:
REMARK  status: ('A' for Active; 'I' for Inactive)
REMARK    1  A    between atoms: C_4  and  C_7
REMARK    2  A    between atoms: C_7  and  C_8
REMARK    3  A    between atoms: C_7  and  C_14
REMARK    4  A    between atoms: N_19  and  C_20
REMARK    5  A    between atoms: C_20  and  C_21
REMARK    6  A    between atoms: C_20  and  C_27
REMARK                            x       y       z     vdW  Elec       q    Type
REMARK                         _______ _______ _______ _____ _____    ______ ____
ROOT
ATOM      1  C   UNL     1       1.135  -2.134  -0.069  0.00  0.00    +0.232 C 
ATOM      2  O   UNL     1       0.155  -2.847  -0.088  0.00  0.00    -0.274 OA
ATOM      3  N   UNL     1       0.993  -0.793  -0.078  0.00  0.00    -0.239 N 
ATOM      4  C   UNL     1      -0.238  -0.246  -0.107  0.00  0.00    +0.307 C 
ATOM      5  O   UNL     1      -1.221  -0.961  -0.126  0.00  0.00    -0.252 OA
ATOM      6  N   UNL     1      -0.380   1.094  -0.116  0.00  0.00    -0.288 N 
ATOM      7  H   UNL     1       1.777  -0.222  -0.064  0.00  0.00    +0.159 HD
ATOM      8  H   UNL     1       0.404   1.665  -0.102  0.00  0.00    +0.151 HD
ENDROOT
BRANCH   1   9
ATOM      9  C   UNL     1       2.512  -2.745  -0.037  0.00  0.00    +0.135 C 
BRANCH   9  13
ATOM     10  C   UNL     1       2.177  -7.004  -0.026  0.00  0.00    +0.000 A 
ATOM     11  C   UNL     1       2.912  -6.366   0.956  0.00  0.00    +0.000 A 
ATOM     12  C   UNL     1       3.021  -4.988   0.952  0.00  0.00    +0.005 A 
ATOM     13  C   UNL     1       2.394  -4.248  -0.033  0.00  0.00    -0.031 A 
ATOM     14  C   UNL     1       1.654  -4.885  -1.011  0.00  0.00    +0.005 A 
ATOM     15  C   UNL     1       1.550  -6.264  -1.011  0.00  0.00    +0.000 A 
ENDBRANCH   9  13
BRANCH   9  16
ATOM     16  C   UNL     1       3.286  -2.305  -1.252  0.00  0.00    -0.031 A 
ATOM     17  C   UNL     1       2.736  -2.452  -2.512  0.00  0.00    +0.005 A 
ATOM     18  C   UNL     1       3.445  -2.044  -3.627  0.00  0.00    +0.000 A 
ATOM     19  C   UNL     1       4.707  -1.498  -3.483  0.00  0.00    +0.000 A 
ATOM     20  C   UNL     1       5.258  -1.357  -2.223  0.00  0.00    +0.000 A 
ATOM     21  C   UNL     1       4.548  -1.760  -1.108  0.00  0.00    +0.005 A 
ENDBRANCH   9  16
ENDBRANCH   1   9
BRANCH   6  22
ATOM     22  C   UNL     1      -1.719   1.689  -0.154  0.00  0.00    +0.135 C 
BRANCH  22  23
ATOM     23  C   UNL     1      -2.265   1.785   1.247  0.00  0.00    -0.023 A 
ATOM     24  C   UNL     1      -1.435   2.150   2.289  0.00  0.00    +0.006 A 
ATOM     25  C   UNL     1      -1.938   2.243   3.574  0.00  0.00    +0.000 A 
ATOM     26  C   UNL     1      -3.269   1.961   3.817  0.00  0.00    +0.000 A 
ATOM     27  C   UNL     1      -4.098   1.590   2.775  0.00  0.00    +0.000 A 
ATOM     28  C   UNL     1      -3.597   1.502   1.490  0.00  0.00    +0.006 A 
ENDBRANCH  22  23
BRANCH  22  29
ATOM     29  C   UNL     1      -1.639   3.067  -0.758  0.00  0.00    -0.023 A 
ATOM     30  C   UNL     1      -0.586   3.903  -0.435  0.00  0.00    +0.006 A 
ATOM     31  C   UNL     1      -0.510   5.166  -0.993  0.00  0.00    +0.000 A 
ATOM     32  C   UNL     1      -1.493   5.596  -1.865  0.00  0.00    +0.000 A 
ATOM     33  C   UNL     1      -2.548   4.763  -2.183  0.00  0.00    +0.000 A 
ATOM     34  C   UNL     1      -2.621   3.498  -1.630  0.00  0.00    +0.006 A 
ENDBRANCH  22  29
ENDBRANCH   6  22
TORSDOF 6
