REMARK  Name = ZINC03830223
REMARK  4 active torsions:
REMARK  status: ('A' for Active; 'I' for Inactive)
REMARK    1  A    between atoms: C_1  and  C_2
REMARK    2  A    between atoms: C_13  and  O_15
REMARK    3  A    between atoms: C_19  and  C_26
REMARK    4  A    between atoms: C_22  and  O_25
REMARK                            x       y       z     vdW  Elec       q    Type
REMARK                         _______ _______ _______ _____ _____    ______ ____
ROOT
ATOM      1  C   UNL     1      -0.172   1.960  -0.272  0.00  0.00    +0.014 C 
ATOM      2  C   UNL     1      -0.145   0.437  -0.133  0.00  0.00    -0.003 C 
ATOM      3  C   UNL     1       0.389  -0.251  -1.393  0.00  0.00    +0.010 C 
ATOM      4  C   UNL     1       1.888  -0.003  -1.533  0.00  0.00    +0.005 C 
ATOM      5  C   UNL     1       2.615  -0.635  -0.339  0.00  0.00    +0.003 C 
ATOM      6  C   UNL     1       2.127   0.035   0.947  0.00  0.00    +0.000 C 
ATOM      7  C   UNL     1       0.649  -0.025   1.100  0.00  0.00    +0.001 C 
ATOM      8  C   UNL     1       0.167  -1.457   1.369  0.00  0.00    +0.007 C 
ATOM      9  C   UNL     1      -1.250  -1.546   0.767  0.00  0.00    +0.032 C 
ATOM     10  C   UNL     1      -1.554  -0.162   0.155  0.00  0.00    +0.121 C 
ATOM     11  C   UNL     1       2.795  -0.668   2.137  0.00  0.00    +0.031 C 
ATOM     12  C   UNL     1       4.282  -0.694   1.944  0.00  0.00    -0.027 C 
ATOM     13  C   UNL     1       4.858  -0.575   0.791  0.00  0.00    -0.065 C 
ATOM     14  C   UNL     1       4.113  -0.422  -0.513  0.00  0.00    -0.008 C 
ATOM     15  C   UNL     1       4.409   0.961  -1.089  0.00  0.00    +0.014 C 
ATOM     16  C   UNL     1       5.793   1.428  -0.639  0.00  0.00    +0.032 C 
ATOM     17  C   UNL     1       6.762   0.252  -0.528  0.00  0.00    +0.119 C 
ATOM     18  C   UNL     1       6.375  -0.584   0.701  0.00  0.00    +0.062 C 
ATOM     19  C   UNL     1       4.634  -1.462  -1.508  0.00  0.00    +0.016 C 
ENDROOT
BRANCH  10  20
ATOM     20  O   UNL     1      -2.296  -0.302  -1.058  0.00  0.00    -0.391 OA
ATOM     21  H   UNL     1      -3.182  -0.670  -0.937  0.00  0.00    +0.210 HD
ENDBRANCH  10  20
BRANCH  17  22
ATOM     22  O   UNL     1       6.693  -0.536  -1.717  0.00  0.00    -0.391 OA
ATOM     23  H   UNL     1       7.349  -1.245  -1.758  0.00  0.00    +0.210 HD
ENDBRANCH  17  22
TORSDOF 2
