REMARK  Name = ZINC39984269
REMARK  4 active torsions:
REMARK  status: ('A' for Active; 'I' for Inactive)
REMARK    1  A    between atoms: C_4  and  S_7
REMARK    2  A    between atoms: S_7  and  N_10
REMARK    3  A    between atoms: C_12  and  N_22
REMARK    4  A    between atoms: N_22  and  C_23
REMARK                            x       y       z     vdW  Elec       q    Type
REMARK                         _______ _______ _______ _____ _____    ______ ____
ROOT
ATOM      1  N   UNL     1       4.604  -0.905   1.373  0.00  0.00    -0.110 NA
ATOM      2  C   UNL     1       5.616  -1.629   1.749  0.00  0.00    +0.192 C 
ATOM      3  C   UNL     1       5.851  -1.917   3.215  0.00  0.00    +0.237 C 
ATOM      4  N   UNL     1       7.013  -2.743   3.576  0.00  0.00    -0.359 N 
ATOM      5  C   UNL     1       7.782  -3.186   2.620  0.00  0.00    +0.063 A 
ATOM      6  C   UNL     1       8.957  -4.016   2.928  0.00  0.00    +0.027 A 
ATOM      7  C   UNL     1       9.729  -4.457   1.911  0.00  0.00    +0.002 A 
ATOM      8  C   UNL     1       9.439  -4.143   0.573  0.00  0.00    +0.002 A 
ATOM      9  C   UNL     1       8.379  -3.387   0.213  0.00  0.00    +0.030 A 
ATOM     10  C   UNL     1       7.499  -2.870   1.198  0.00  0.00    +0.089 A 
ATOM     11  N   UNL     1       6.465  -2.138   0.842  0.00  0.00    -0.226 NA
ATOM     12  H   UNL     1       7.204  -2.953   4.503  0.00  0.00    +0.162 HD
ENDROOT
BRANCH   1  13
ATOM     13  S   UNL     1       4.354  -0.604  -0.237  0.00  0.00    +0.100 S 
ATOM     14  O   UNL     1       4.038  -1.852  -0.839  0.00  0.00    -0.146 OA
ATOM     15  O   UNL     1       5.442   0.198  -0.673  0.00  0.00    -0.146 OA
BRANCH  13  19
ATOM     16  C   UNL     1       0.642   1.966  -0.560  0.00  0.00    +0.000 A 
ATOM     17  C   UNL     1       1.884   2.559  -0.430  0.00  0.00    +0.002 A 
ATOM     18  C   UNL     1       3.017   1.774  -0.331  0.00  0.00    +0.029 A 
ATOM     19  C   UNL     1       2.909   0.396  -0.361  0.00  0.00    +0.113 A 
ATOM     20  C   UNL     1       1.667  -0.197  -0.491  0.00  0.00    +0.029 A 
ATOM     21  C   UNL     1       0.533   0.588  -0.591  0.00  0.00    +0.002 A 
ENDBRANCH  13  19
ENDBRANCH   1  13
BRANCH   3  22
ATOM     22  N   UNL     1       5.984  -0.632   3.906  0.00  0.00    -0.318 N 
ATOM     23  H   UNL     1       6.519   0.076   3.515  0.00  0.00    +0.148 HD
BRANCH  22  24
ATOM     24  C   UNL     1       5.342  -0.427   5.130  0.00  0.00    +0.031 A 
ATOM     25  C   UNL     1       4.715  -1.507   5.766  0.00  0.00    +0.025 A 
ATOM     26  C   UNL     1       4.081  -1.356   6.950  0.00  0.00    +0.032 A 
ATOM     27  C   UNL     1       4.037  -0.083   7.582  0.00  0.00    +0.100 A 
ATOM     28  C   UNL     1       4.689   1.043   6.923  0.00  0.00    +0.102 A 
ATOM     29  C   UNL     1       5.342   0.816   5.683  0.00  0.00    +0.053 A 
ATOM     30  N   UNL     1       4.583   2.183   7.607  0.00  0.00    -0.191 NA
ATOM     31  S   UNL     1       3.744   1.820   8.931  0.00  0.00    +0.116 S 
ATOM     32  N   UNL     1       3.463   0.247   8.740  0.00  0.00    -0.191 NA
ENDBRANCH  22  24
ENDBRANCH   3  22
TORSDOF 4
