REMARK  Name = ZINC10609572
REMARK  4 active torsions:
REMARK  status: ('A' for Active; 'I' for Inactive)
REMARK    1  A    between atoms: C_1  and  C_2
REMARK    2  A    between atoms: C_9  and  C_30
REMARK    3  A    between atoms: C_10  and  N_13
REMARK    4  A    between atoms: C_14  and  C_16
REMARK                            x       y       z     vdW  Elec       q    Type
REMARK                         _______ _______ _______ _____ _____    ______ ____
ROOT
ATOM      1  N   UNL     1      -1.197  -0.735   0.010  0.00  0.00    -0.279 N 
ATOM      2  C   UNL     1      -2.377  -0.094   0.127  0.00  0.00    +0.229 C 
ATOM      3  O   UNL     1      -2.410   1.119   0.134  0.00  0.00    -0.274 OA
ATOM      4  H   UNL     1      -1.176  -1.702  -0.064  0.00  0.00    +0.155 HD
ENDROOT
BRANCH   2   5
ATOM      5  C   UNL     1      -3.654  -0.883   0.249  0.00  0.00    +0.142 C 
ATOM      6  C   UNL     1      -3.818  -1.754  -0.967  0.00  0.00    +0.011 A 
ATOM      7  C   UNL     1      -3.083  -2.922  -1.070  0.00  0.00    +0.008 A 
ATOM      8  C   UNL     1      -3.220  -3.735  -2.179  0.00  0.00    +0.001 A 
ATOM      9  C   UNL     1      -4.091  -3.382  -3.192  0.00  0.00    +0.004 A 
ATOM     10  C   UNL     1      -4.826  -2.220  -3.095  0.00  0.00    +0.046 A 
ATOM     11  C   UNL     1      -4.693  -1.400  -1.980  0.00  0.00    +0.133 A 
ATOM     12  O   UNL     1      -5.425  -0.262  -1.904  0.00  0.00    -0.455 OA
ATOM     13  C   UNL     1      -5.639   0.328  -0.704  0.00  0.00    +0.133 A 
ATOM     14  C   UNL     1      -4.814   0.067   0.378  0.00  0.00    +0.011 A 
ATOM     15  C   UNL     1      -5.054   0.683   1.593  0.00  0.00    +0.008 A 
ATOM     16  C   UNL     1      -6.114   1.559   1.730  0.00  0.00    +0.001 A 
ATOM     17  C   UNL     1      -6.940   1.821   0.653  0.00  0.00    +0.004 A 
ATOM     18  C   UNL     1      -6.705   1.209  -0.561  0.00  0.00    +0.046 A 
ENDBRANCH   2   5
BRANCH   1  28
ATOM     19  C   UNL     1       5.061   3.829  -0.949  0.00  0.00    +0.044 C 
ATOM     20  C   UNL     1       3.769   3.052  -0.947  0.00  0.00    -0.046 A 
ATOM     21  C   UNL     1       2.798   3.294  -1.929  0.00  0.00    +0.021 A 
ATOM     22  C   UNL     1       1.641   2.597  -1.926  0.00  0.00    +0.096 A 
ATOM     23  N   UNL     1       1.399   1.651  -0.975  0.00  0.00    -0.267 N 
ATOM     24  C   UNL     1       2.327   1.392  -0.003  0.00  0.00    +0.141 A 
ATOM     25  C   UNL     1       3.538   2.109   0.009  0.00  0.00    +0.050 A 
ATOM     26  N   UNL     1       2.101   0.471   0.930  0.00  0.00    -0.232 NA
ATOM     27  C   UNL     1       0.976  -0.226   0.955  0.00  0.00    +0.067 A 
ATOM     28  C   UNL     1       0.002  -0.004  -0.005  0.00  0.00    +0.120 A 
ATOM     29  C   UNL     1       0.235   0.968  -0.993  0.00  0.00    +0.280 A 
ATOM     30  O   UNL     1      -0.600   1.186  -1.858  0.00  0.00    -0.265 OA
ATOM     31  C   UNL     1       0.754  -1.261   2.027  0.00  0.00    +0.068 C 
ENDBRANCH   1  28
TORSDOF 2
