REMARK  Name = ZINC45246566
REMARK  10 active torsions:
REMARK  status: ('A' for Active; 'I' for Inactive)
REMARK    1  A    between atoms: C_6  and  S_7
REMARK    2  A    between atoms: S_7  and  C_8
REMARK    3  A    between atoms: C_8  and  C_9
REMARK    4  A    between atoms: C_9  and  C_10
REMARK    5  A    between atoms: C_10  and  O_12
REMARK    6  A    between atoms: O_12  and  C_13
REMARK    7  A    between atoms: C_13  and  C_14
REMARK    8  A    between atoms: N_16  and  C_17
REMARK    9  A    between atoms: C_19  and  C_26
REMARK   10  A    between atoms: C_21  and  C_23
REMARK                            x       y       z     vdW  Elec       q    Type
REMARK                         _______ _______ _______ _____ _____    ______ ____
ROOT
ATOM      1  C   UNL     1      -3.380  -8.270  -0.007  0.00  0.00    +0.255 C 
ATOM      2  O   UNL     1      -4.514  -7.842   0.015  0.00  0.00    -0.272 OA
ATOM      3  N   UNL     1      -3.162  -9.600  -0.018  0.00  0.00    -0.283 N 
ATOM      4  H   UNL     1      -2.259  -9.943  -0.103  0.00  0.00    +0.155 HD
ENDROOT
BRANCH   3   5
ATOM      5  C   UNL     1      -4.239 -10.487   0.094  0.00  0.00    +0.035 A 
ATOM      6  C   UNL     1      -5.458 -10.172  -0.489  0.00  0.00    +0.036 A 
ATOM      7  C   UNL     1      -6.534 -11.054  -0.380  0.00  0.00    +0.039 A 
ATOM      8  C   UNL     1      -6.383 -12.252   0.316  0.00  0.00    +0.026 A 
ATOM      9  C   UNL     1      -5.158 -12.565   0.900  0.00  0.00    +0.039 A 
ATOM     10  C   UNL     1      -4.084 -11.681   0.782  0.00  0.00    +0.036 A 
BRANCH   9  11
ATOM     11  C   UNL     1      -4.994 -13.835   1.639  0.00  0.00    +0.242 C 
ATOM     12  O   UNL     1      -3.924 -14.108   2.149  0.00  0.00    -0.270 OA
ATOM     13  N   UNL     1      -6.029 -14.690   1.749  0.00  0.00    -0.325 N 
ATOM     14  H   UNL     1      -6.883 -14.473   1.342  0.00  0.00    +0.145 HD
ATOM     15  H   UNL     1      -5.922 -15.523   2.234  0.00  0.00    +0.145 HD
ENDBRANCH   9  11
BRANCH   7  16
ATOM     16  C   UNL     1      -7.833 -10.717  -1.001  0.00  0.00    +0.242 C 
ATOM     17  O   UNL     1      -7.964  -9.672  -1.607  0.00  0.00    -0.270 OA
ATOM     18  N   UNL     1      -8.872 -11.569  -0.895  0.00  0.00    -0.325 N 
ATOM     19  H   UNL     1      -8.768 -12.404  -0.411  0.00  0.00    +0.145 HD
ATOM     20  H   UNL     1      -9.724 -11.349  -1.302  0.00  0.00    +0.145 HD
ENDBRANCH   7  16
ENDBRANCH   3   5
BRANCH   1  21
ATOM     21  C   UNL     1      -2.214  -7.316  -0.022  0.00  0.00    +0.328 C 
BRANCH  21  22
ATOM     22  O   UNL     1      -2.699  -5.971  -0.006  0.00  0.00    -0.455 OA
BRANCH  22  23
ATOM     23  C   UNL     1      -1.781  -4.992  -0.017  0.00  0.00    +0.308 C 
ATOM     24  O   UNL     1      -0.604  -5.267  -0.039  0.00  0.00    -0.251 OA
BRANCH  23  25
ATOM     25  C   UNL     1      -2.217  -3.550  -0.001  0.00  0.00    +0.131 C 
BRANCH  25  26
ATOM     26  C   UNL     1      -0.984  -2.644  -0.018  0.00  0.00    +0.085 C 
BRANCH  26  27
ATOM     27  S   UNL     1      -1.510  -0.908   0.001  0.00  0.00    -0.125 S 
BRANCH  27  33
ATOM     28  C   UNL     1      -0.016   1.385  -0.012  0.00  0.00    +0.016 A 
ATOM     29  C   UNL     1       1.171   2.090  -0.029  0.00  0.00    +0.021 A 
ATOM     30  C   UNL     1       2.379   1.415  -0.053  0.00  0.00    +0.041 A 
ATOM     31  C   UNL     1       2.401   0.031  -0.061  0.00  0.00    +0.021 A 
ATOM     32  C   UNL     1       1.217  -0.680  -0.045  0.00  0.00    +0.016 A 
ATOM     33  C   UNL     1       0.003  -0.004  -0.020  0.00  0.00    +0.008 A 
ATOM     34 CL   UNL     1       3.869   2.305  -0.074  0.00  0.00    -0.084 Cl
ENDBRANCH  27  33
ENDBRANCH  26  27
ENDBRANCH  25  26
ENDBRANCH  23  25
ENDBRANCH  22  23
ENDBRANCH  21  22
ENDBRANCH   1  21
TORSDOF 10
