REMARK  Name = ZINC02263434
REMARK  11 active torsions:
REMARK  status: ('A' for Active; 'I' for Inactive)
REMARK    1  A    between atoms: C_1  and  C_2
REMARK    2  A    between atoms: C_2  and  O_3
REMARK    3  A    between atoms: O_3  and  C_4
REMARK    4  A    between atoms: C_7  and  C_10
REMARK    5  A    between atoms: C_13  and  S_16
REMARK    6  A    between atoms: N_14  and  N_15
REMARK    7  A    between atoms: S_16  and  C_17
REMARK    8  A    between atoms: C_17  and  C_18
REMARK    9  A    between atoms: N_20  and  C_21
REMARK   10  A    between atoms: C_24  and  S_27
REMARK   11  A    between atoms: S_27  and  N_30
REMARK                            x       y       z     vdW  Elec       q    Type
REMARK                         _______ _______ _______ _____ _____    ______ ____
ROOT
ATOM      1  S   UNL     1      -0.744   1.428  -0.600  0.00  0.00    -0.075 S 
ENDROOT
BRANCH   1   5
ATOM      2  C   UNL     1       0.770   1.254  -4.197  0.00  0.00    +0.182 A 
ATOM      3  N   UNL     1       1.494   0.380  -3.537  0.00  0.00    -0.127 NA
ATOM      4  N   UNL     1       1.109   0.327  -2.312  0.00  0.00    -0.121 NA
ATOM      5  C   UNL     1       0.110   1.159  -2.117  0.00  0.00    +0.209 A 
ATOM      6  N   UNL     1      -0.138   1.780  -3.308  0.00  0.00    -0.224 N 
BRANCH   2  10
ATOM      7  C   UNL     1       1.162   2.269  -8.305  0.00  0.00    +0.121 A 
ATOM      8  C   UNL     1       0.462   3.108  -7.448  0.00  0.00    +0.046 A 
ATOM      9  C   UNL     1       0.333   2.782  -6.115  0.00  0.00    +0.015 A 
ATOM     10  C   UNL     1       0.906   1.607  -5.627  0.00  0.00    +0.021 A 
ATOM     11  C   UNL     1       1.614   0.769  -6.490  0.00  0.00    +0.015 A 
ATOM     12  C   UNL     1       1.734   1.099  -7.823  0.00  0.00    +0.046 A 
BRANCH   7  13
ATOM     13  O   UNL     1       1.288   2.594  -9.618  0.00  0.00    -0.492 OA
BRANCH  13  15
ATOM     14  C   UNL     1       2.055   2.216 -11.879  0.00  0.00    +0.048 C 
ATOM     15  C   UNL     1       2.021   1.686 -10.444  0.00  0.00    +0.225 C 
ENDBRANCH  13  15
ENDBRANCH   7  13
ENDBRANCH   2  10
BRANCH   6  16
ATOM     16  N   UNL     1      -1.090   2.726  -3.563  0.00  0.00    -0.295 N 
ATOM     17  H   UNL     1      -0.704   3.656  -3.494  0.00  0.00    +0.163 HD
ATOM     18  H   UNL     1      -1.514   2.578  -4.466  0.00  0.00    +0.163 HD
ENDBRANCH   6  16
ENDBRANCH   1   5
BRANCH   1  19
ATOM     19  C   UNL     1       0.143   0.268   0.470  0.00  0.00    +0.173 C 
BRANCH  19  20
ATOM     20  C   UNL     1      -0.433   0.328   1.862  0.00  0.00    +0.227 C 
ATOM     21  O   UNL     1      -1.353   1.080   2.106  0.00  0.00    -0.275 OA
ATOM     22  N   UNL     1       0.073  -0.455   2.835  0.00  0.00    -0.285 N 
ATOM     23  H   UNL     1       0.856  -1.000   2.660  0.00  0.00    +0.155 HD
BRANCH  22  24
ATOM     24  C   UNL     1      -0.531  -0.482   4.097  0.00  0.00    +0.034 A 
ATOM     25  C   UNL     1       0.243  -0.671   5.234  0.00  0.00    +0.025 A 
ATOM     26  C   UNL     1      -0.355  -0.690   6.479  0.00  0.00    +0.030 A 
ATOM     27  C   UNL     1      -1.724  -0.534   6.592  0.00  0.00    +0.105 A 
ATOM     28  C   UNL     1      -2.498  -0.352   5.461  0.00  0.00    +0.030 A 
ATOM     29  C   UNL     1      -1.906  -0.325   4.214  0.00  0.00    +0.025 A 
BRANCH  27  30
ATOM     30  S   UNL     1      -2.485  -0.567   8.181  0.00  0.00    +0.056 S 
ATOM     31  O   UNL     1      -1.481  -0.205   9.119  0.00  0.00    -0.153 OA
ATOM     32  O   UNL     1      -3.708   0.146   8.061  0.00  0.00    -0.153 OA
BRANCH  30  33
ATOM     33  N   UNL     1      -2.885  -2.142   8.500  0.00  0.00    -0.204 NA
ATOM     34  H   UNL     1      -2.686  -2.834   7.851  0.00  0.00    +0.144 HD
ATOM     35  H   UNL     1      -3.319  -2.372   9.337  0.00  0.00    +0.144 HD
ENDBRANCH  30  33
ENDBRANCH  27  30
ENDBRANCH  22  24
ENDBRANCH  19  20
ENDBRANCH   1  19
TORSDOF 10
