REMARK  Name = ZINC57653994
REMARK  6 active torsions:
REMARK  status: ('A' for Active; 'I' for Inactive)
REMARK    1  A    between atoms: C_3  and  C_8
REMARK    2  A    between atoms: C_8  and  C_9
REMARK    3  A    between atoms: C_9  and  C_10
REMARK    4  A    between atoms: C_10  and  C_12
REMARK    5  A    between atoms: C_10  and  O_14
REMARK    6  A    between atoms: O_14  and  C_15
REMARK                            x       y       z     vdW  Elec       q    Type
REMARK                         _______ _______ _______ _____ _____    ______ ____
ROOT
ATOM      1  C   UNL     1       5.431   3.224   1.403  0.00  0.00    +0.275 C 
ENDROOT
BRANCH   1   2
ATOM      2  C   UNL     1       5.903   3.795   2.674  0.00  0.00    +0.107 C 
ATOM      3  N   UNL     1       6.267   4.236   3.656  0.00  0.00    -0.193 NA
ENDBRANCH   1   2
BRANCH   1   4
ATOM      4  C   UNL     1       4.199   2.354   1.660  0.00  0.00    +0.065 C 
BRANCH   4   5
ATOM      5  C   UNL     1       3.635   1.861   0.326  0.00  0.00    +0.040 C 
BRANCH   5   8
ATOM      6  C   UNL     1       0.052   0.798   0.866  0.00  0.00    +0.003 A 
ATOM      7  C   UNL     1       1.166   1.583   0.633  0.00  0.00    +0.004 A 
ATOM      8  C   UNL     1       2.421   1.005   0.580  0.00  0.00    -0.044 A 
ATOM      9  C   UNL     1       2.562  -0.358   0.759  0.00  0.00    +0.042 A 
ATOM     10  C   UNL     1       1.447  -1.145   0.992  0.00  0.00    +0.124 A 
ATOM     11  C   UNL     1       0.191  -0.564   1.045  0.00  0.00    +0.038 A 
ATOM     12  F   UNL     1       1.584  -2.477   1.167  0.00  0.00    -0.205 F 
ENDBRANCH   5   8
ENDBRANCH   4   5
ENDBRANCH   1   4
BRANCH   1  13
ATOM     13  O   UNL     1       6.466   2.424   0.827  0.00  0.00    -0.474 OA
BRANCH  13  14
ATOM     14  C   UNL     1       7.404   3.070   0.086  0.00  0.00    +0.126 A 
ATOM     15  C   UNL     1       7.391   4.453   0.012  0.00  0.00    +0.046 A 
ATOM     16  C   UNL     1       8.345   5.108  -0.742  0.00  0.00    +0.004 A 
ATOM     17  C   UNL     1       9.303   4.380  -1.419  0.00  0.00    +0.004 A 
ATOM     18  C   UNL     1       9.319   2.993  -1.350  0.00  0.00    -0.041 A 
ATOM     19  C   UNL     1       8.377   2.337  -0.591  0.00  0.00    -0.002 A 
ATOM     20  C   UNL     1       8.349   0.837  -0.453  0.00  0.00    +0.039 C 
ATOM     21  C   UNL     1       9.170   0.180  -1.560  0.00  0.00    +0.005 C 
ATOM     22  C   UNL     1      10.554   0.839  -1.592  0.00  0.00    +0.005 C 
ATOM     23  C   UNL     1      10.389   2.265  -2.122  0.00  0.00    +0.035 C 
ENDBRANCH  13  14
ENDBRANCH   1  13
TORSDOF 6
