REMARK  Name = ZINC48723573
REMARK  6 active torsions:
REMARK  status: ('A' for Active; 'I' for Inactive)
REMARK    1  A    between atoms: C_5  and  N_7
REMARK    2  A    between atoms: C_8  and  C_10
REMARK    3  A    between atoms: N_12  and  C_13
REMARK    4  A    between atoms: C_13  and  C_14
REMARK    5  A    between atoms: C_14  and  S_15
REMARK    6  A    between atoms: S_15  and  C_16
REMARK                            x       y       z     vdW  Elec       q    Type
REMARK                         _______ _______ _______ _____ _____    ______ ____
ROOT
ATOM      1  N   UNL     1       1.238  -2.078  -0.021  0.00  0.00    -0.277 N 
ATOM      2  C   UNL     1       0.087  -2.771   0.088  0.00  0.00    +0.303 C 
ATOM      3  O   UNL     1      -0.975  -2.185   0.102  0.00  0.00    -0.265 OA
ATOM      4  H   UNL     1       2.081  -2.549  -0.114  0.00  0.00    +0.155 HD
ENDROOT
BRANCH   1   9
ATOM      5  C   UNL     1       0.154   1.372   0.637  0.00  0.00    +0.002 A 
ATOM      6  C   UNL     1       1.173   2.086   0.035  0.00  0.00    +0.001 A 
ATOM      7  C   UNL     1       2.214   1.421  -0.587  0.00  0.00    +0.016 A 
ATOM      8  C   UNL     1       2.239   0.040  -0.607  0.00  0.00    +0.035 A 
ATOM      9  C   UNL     1       1.216  -0.681  -0.002  0.00  0.00    +0.047 A 
ATOM     10  C   UNL     1       0.172  -0.009   0.621  0.00  0.00    +0.024 A 
ATOM     11  I   UNL     1       3.816  -0.967  -1.550  0.00  0.00    -0.042 I 
ENDBRANCH   1   9
BRANCH   2  12
ATOM     12  C   UNL     1       0.120  -4.261   0.192  0.00  0.00    +0.299 C 
ATOM     13  O   UNL     1       1.182  -4.847   0.177  0.00  0.00    -0.265 OA
ATOM     14  N   UNL     1      -1.031  -4.954   0.301  0.00  0.00    -0.307 N 
ATOM     15  H   UNL     1      -1.880  -4.485   0.312  0.00  0.00    +0.149 HD
BRANCH  14  16
ATOM     16  C   UNL     1      -0.999  -6.415   0.403  0.00  0.00    +0.115 C 
BRANCH  16  17
ATOM     17  C   UNL     1      -2.428  -6.950   0.516  0.00  0.00    +0.096 C 
BRANCH  17  18
ATOM     18  S   UNL     1      -2.388  -8.759   0.642  0.00  0.00    -0.050 S 
BRANCH  18  19
ATOM     19  C   UNL     1      -4.136  -9.229   0.767  0.00  0.00    +0.443 C 
ATOM     20  F   UNL     1      -4.818  -8.794  -0.375  0.00  0.00    -0.160 F 
ATOM     21  F   UNL     1      -4.239 -10.620   0.870  0.00  0.00    -0.160 F 
ATOM     22  F   UNL     1      -4.699  -8.633   1.901  0.00  0.00    -0.160 F 
ENDBRANCH  18  19
ENDBRANCH  17  18
ENDBRANCH  16  17
ENDBRANCH  14  16
ENDBRANCH   2  12
TORSDOF 6
