REMARK  Name = ZINC39774272
REMARK  5 active torsions:
REMARK  status: ('A' for Active; 'I' for Inactive)
REMARK    1  A    between atoms: C_1  and  N_2
REMARK    2  A    between atoms: N_15  and  N_16
REMARK    3  A    between atoms: C_17  and  C_18
REMARK    4  A    between atoms: C_21  and  O_25
REMARK    5  A    between atoms: C_22  and  O_24
REMARK                            x       y       z     vdW  Elec       q    Type
REMARK                         _______ _______ _______ _____ _____    ______ ____
ROOT
ATOM      1  C   UNL     1       2.139   1.214   0.164  0.00  0.00    +0.151 C 
ATOM      2  N   UNL     1       1.512  -0.107   0.097  0.00  0.00    -0.326 N 
ATOM      3  C   UNL     1       1.236  -0.794  -1.075  0.00  0.00    +0.053 A 
ATOM      4  C   UNL     1       1.446  -0.482  -2.413  0.00  0.00    +0.027 A 
ATOM      5  C   UNL     1       1.068  -1.370  -3.398  0.00  0.00    +0.017 A 
ATOM      6  C   UNL     1       0.475  -2.580  -3.066  0.00  0.00    +0.019 A 
ATOM      7  C   UNL     1       0.258  -2.907  -1.744  0.00  0.00    +0.027 A 
ATOM      8  C   UNL     1       0.637  -2.018  -0.740  0.00  0.00    +0.030 A 
ATOM      9  C   UNL     1       0.554  -2.053   0.730  0.00  0.00    +0.138 A 
ATOM     10  C   UNL     1       1.118  -0.844   1.187  0.00  0.00    +0.165 A 
ATOM     11  N   UNL     1       1.169  -0.628   2.498  0.00  0.00    -0.192 NA
ATOM     12  C   UNL     1       0.697  -1.550   3.326  0.00  0.00    +0.256 A 
ATOM     13  N   UNL     1       0.174  -2.684   2.872  0.00  0.00    -0.111 NA
ATOM     14  N   UNL     1       0.096  -2.932   1.609  0.00  0.00    -0.142 NA
ATOM     15  N   UNL     1       0.750  -1.327   4.692  0.00  0.00    -0.204 N 
ATOM     16 BR   UNL     1      -0.038  -3.783  -4.431  0.00  0.00    -0.050 Br
ATOM     17  H   UNL     1       1.130  -0.502   5.034  0.00  0.00    +0.177 HD
ENDROOT
BRANCH  15  18
ATOM     18  N   UNL     1       0.255  -2.291   5.579  0.00  0.00    -0.187 NA
ATOM     19  C   UNL     1       0.196  -2.034   6.850  0.00  0.00    +0.138 C 
BRANCH  19  20
ATOM     20  C   UNL     1       0.181  -0.637   7.320  0.00  0.00    -0.002 A 
ATOM     21  C   UNL     1       0.406  -0.349   8.668  0.00  0.00    +0.013 A 
ATOM     22  C   UNL     1       0.393   0.959   9.105  0.00  0.00    +0.050 A 
ATOM     23  C   UNL     1       0.156   1.991   8.209  0.00  0.00    +0.158 A 
ATOM     24  C   UNL     1      -0.070   1.712   6.863  0.00  0.00    +0.159 A 
ATOM     25  C   UNL     1      -0.051   0.403   6.416  0.00  0.00    +0.058 A 
BRANCH  24  26
ATOM     26  O   UNL     1      -0.302   2.726   5.988  0.00  0.00    -0.503 OA
ATOM     27  H   UNL     1       0.497   3.081   5.577  0.00  0.00    +0.292 HD
ENDBRANCH  24  26
BRANCH  23  28
ATOM     28  O   UNL     1       0.143   3.279   8.646  0.00  0.00    -0.503 OA
ATOM     29  H   UNL     1       1.007   3.713   8.614  0.00  0.00    +0.292 HD
ENDBRANCH  23  28
ENDBRANCH  19  20
ENDBRANCH  15  18
TORSDOF 4
