REMARK  Name = ZINC35984682
REMARK  5 active torsions:
REMARK  status: ('A' for Active; 'I' for Inactive)
REMARK    1  A    between atoms: C_1  and  N_2
REMARK    2  A    between atoms: N_2  and  C_3
REMARK    3  A    between atoms: N_2  and  C_4
REMARK    4  A    between atoms: C_13  and  N_16
REMARK    5  A    between atoms: C_22  and  C_27
REMARK                            x       y       z     vdW  Elec       q    Type
REMARK                         _______ _______ _______ _____ _____    ______ ____
ROOT
ATOM      1  N   UNL     1      -3.805  -7.631  -2.271  0.00  0.00    -0.195 N 
ATOM      2  C   UNL     1      -4.357  -7.912  -3.470  0.00  0.00    +0.280 A 
ATOM      3  O   UNL     1      -4.586  -7.023  -4.271  0.00  0.00    -0.265 OA
ATOM      4  C   UNL     1      -4.675  -9.307  -3.792  0.00  0.00    +0.050 A 
ATOM      5  C   UNL     1      -5.246  -9.670  -5.013  0.00  0.00    +0.014 A 
ATOM      6  C   UNL     1      -5.524 -10.981  -5.269  0.00  0.00    +0.009 A 
ATOM      7  C   UNL     1      -5.244 -11.971  -4.320  0.00  0.00    -0.017 A 
ATOM      8  C   UNL     1      -4.676 -11.635  -3.098  0.00  0.00    +0.018 A 
ATOM      9  C   UNL     1      -4.386 -10.299  -2.824  0.00  0.00    +0.008 A 
ATOM     10  C   UNL     1      -3.788  -9.885  -1.555  0.00  0.00    +0.142 A 
ATOM     11  N   UNL     1      -3.527  -8.630  -1.338  0.00  0.00    -0.171 NA
ENDROOT
BRANCH   1  20
ATOM     12  C   UNL     1      -1.206  -0.471  -0.331  0.00  0.00    -0.050 C 
ATOM     13  C   UNL     1      -2.422  -0.047  -1.198  0.00  0.00    +0.005 C 
ATOM     14  C   UNL     1      -3.365  -1.263  -1.026  0.00  0.00    +0.105 C 
ATOM     15  N   UNL     1      -2.470  -2.434  -0.994  0.00  0.00    -0.317 N 
ATOM     16  C   UNL     1      -1.135  -1.996  -0.552  0.00  0.00    +0.091 C 
ATOM     17  C   UNL     1      -2.828  -3.737  -1.323  0.00  0.00    +0.121 A 
ATOM     18  C   UNL     1      -4.098  -3.995  -1.828  0.00  0.00    +0.046 A 
ATOM     19  C   UNL     1      -4.444  -5.294  -2.152  0.00  0.00    +0.033 A 
ATOM     20  C   UNL     1      -3.499  -6.301  -1.958  0.00  0.00    +0.087 A 
ATOM     21  C   UNL     1      -2.252  -5.969  -1.450  0.00  0.00    +0.140 A 
ATOM     22  N   UNL     1      -1.954  -4.718  -1.157  0.00  0.00    -0.238 NA
BRANCH  12  24
ATOM     23  C   UNL     1      -0.099   1.635  -0.635  0.00  0.00    -0.096 C 
ATOM     24  N   UNL     1       0.022   0.181  -0.804  0.00  0.00    +0.379 N 
ATOM     25  C   UNL     1       1.167  -0.308  -0.025  0.00  0.00    -0.096 C 
ATOM     26  H   UNL     1       0.162  -0.033  -1.780  0.00  0.00    -0.082 HD
ENDBRANCH  12  24
ENDBRANCH   1  20
BRANCH   7  27
ATOM     27  C   UNL     1      -5.556 -13.389  -4.622  0.00  0.00    -0.018 A 
ATOM     28  C   UNL     1      -5.285 -14.380  -3.680  0.00  0.00    +0.010 A 
ATOM     29  C   UNL     1      -5.577 -15.698  -3.966  0.00  0.00    +0.020 A 
ATOM     30  C   UNL     1      -6.138 -16.037  -5.185  0.00  0.00    +0.041 A 
ATOM     31  C   UNL     1      -6.409 -15.056  -6.124  0.00  0.00    +0.020 A 
ATOM     32  C   UNL     1      -6.126 -13.735  -5.846  0.00  0.00    +0.010 A 
ATOM     33 CL   UNL     1      -6.502 -17.697  -5.539  0.00  0.00    -0.084 Cl
ENDBRANCH   7  27
TORSDOF 3
