REMARK  Name = ZINC39707690
REMARK  5 active torsions:
REMARK  status: ('A' for Active; 'I' for Inactive)
REMARK    1  A    between atoms: C_13  and  S_15
REMARK    2  A    between atoms: S_15  and  C_16
REMARK    3  A    between atoms: C_16  and  C_17
REMARK    4  A    between atoms: N_19  and  C_20
REMARK    5  A    between atoms: C_22  and  C_31
REMARK                            x       y       z     vdW  Elec       q    Type
REMARK                         _______ _______ _______ _____ _____    ______ ____
ROOT
ATOM      1  C   UNL     1       5.030  -4.593  -2.831  0.00  0.00    +0.173 C 
ENDROOT
BRANCH   1   2
ATOM      2  C   UNL     1       5.665  -5.520  -3.836  0.00  0.00    +0.224 C 
ATOM      3  O   UNL     1       5.029  -6.447  -4.291  0.00  0.00    -0.275 OA
ATOM      4  N   UNL     1       6.938  -5.319  -4.228  0.00  0.00    -0.301 N 
ATOM      5  H   UNL     1       7.446  -4.577  -3.864  0.00  0.00    +0.150 HD
BRANCH   4   6
ATOM      6  C   UNL     1       7.555  -6.220  -5.205  0.00  0.00    +0.156 C 
ATOM      7  C   UNL     1       8.232  -5.434  -6.354  0.00  0.00    +0.149 C 
ATOM      8  C   UNL     1       8.050  -6.124  -7.682  0.00  0.00    -0.041 C 
ATOM      9  C   UNL     1       7.077  -7.022  -7.780  0.00  0.00    -0.012 C 
ATOM     10  S   UNL     1       6.285  -7.120  -6.190  0.00  0.00    -0.106 S 
ATOM     11  C   UNL     1       6.702  -7.820  -8.998  0.00  0.00    +0.042 C 
ATOM     12  C   UNL     1       7.369  -7.189 -10.226  0.00  0.00    +0.005 C 
ATOM     13  C   UNL     1       8.844  -6.932  -9.899  0.00  0.00    +0.005 C 
ATOM     14  C   UNL     1       8.949  -5.804  -8.875  0.00  0.00    +0.033 C 
BRANCH   7  15
ATOM     15  C   UNL     1       7.642  -4.088  -6.429  0.00  0.00    +0.073 C 
ATOM     16  N   UNL     1       7.186  -3.049  -6.487  0.00  0.00    -0.196 NA
ENDBRANCH   7  15
ENDBRANCH   4   6
ENDBRANCH   1   2
BRANCH   1  17
ATOM     17  S   UNL     1       3.325  -5.124  -2.510  0.00  0.00    -0.075 S 
BRANCH  17  29
ATOM     18  C   UNL     1      -0.016   1.348   0.009  0.00  0.00    +0.001 A 
ATOM     19  C   UNL     1       1.156   2.116   0.002  0.00  0.00    +0.002 A 
ATOM     20  C   UNL     1       2.382   1.544  -0.006  0.00  0.00    +0.026 A 
ATOM     21  C   UNL     1       2.491   0.080  -0.009  0.00  0.00    +0.046 A 
ATOM     22  N   UNL     1       3.530  -0.719  -0.048  0.00  0.00    -0.358 N 
ATOM     23  C   UNL     1       3.072  -2.091   0.097  0.00  0.00    +0.252 C 
ATOM     24  C   UNL     1       1.560  -2.038  -0.034  0.00  0.00    +0.117 C 
ATOM     25  C   UNL     1       1.230  -0.705  -0.013  0.00  0.00    +0.025 A 
ATOM     26  C   UNL     1       0.002  -0.004   0.002  0.00  0.00    +0.012 A 
ATOM     27  N   UNL     1       0.837  -3.136  -0.265  0.00  0.00    -0.147 NA
ATOM     28  N   UNL     1       1.456  -4.093  -0.888  0.00  0.00    -0.122 NA
ATOM     29  C   UNL     1       2.730  -3.957  -1.333  0.00  0.00    +0.208 C 
ATOM     30  N   UNL     1       3.548  -3.009  -0.936  0.00  0.00    -0.227 NA
ATOM     31  H   UNL     1       4.453  -0.440  -0.157  0.00  0.00    +0.162 HD
ENDBRANCH  17  29
ENDBRANCH   1  17
TORSDOF 5
