REMARK  Name = ZINC55104494
REMARK  5 active torsions:
REMARK  status: ('A' for Active; 'I' for Inactive)
REMARK    1  A    between atoms: C_3  and  C_8
REMARK    2  A    between atoms: C_10  and  C_19
REMARK    3  A    between atoms: C_11  and  C_17
REMARK    4  A    between atoms: C_12  and  N_16
REMARK    5  A    between atoms: C_13  and  C_14
REMARK                            x       y       z     vdW  Elec       q    Type
REMARK                         _______ _______ _______ _____ _____    ______ ____
ROOT
ATOM      1  C   UNL     1       3.658   2.164  -0.022  0.00  0.00    +0.002 A 
ATOM      2  C   UNL     1       4.661   1.843   0.886  0.00  0.00    +0.019 A 
ATOM      3  C   UNL     1       5.859   2.548   0.885  0.00  0.00    +0.002 A 
ATOM      4  C   UNL     1       6.065   3.593  -0.038  0.00  0.00    +0.081 A 
ATOM      5  C   UNL     1       5.058   3.921  -0.957  0.00  0.00    +0.061 A 
ATOM      6  C   UNL     1       3.853   3.202  -0.954  0.00  0.00    +0.081 A 
ENDROOT
BRANCH   3   7
ATOM      7  C   UNL     1       6.921   2.200   1.855  0.00  0.00    -0.013 A 
ATOM      8  C   UNL     1       6.616   2.075   3.211  0.00  0.00    +0.012 A 
ATOM      9  C   UNL     1       7.606   1.752   4.114  0.00  0.00    +0.050 A 
ATOM     10  C   UNL     1       8.908   1.549   3.680  0.00  0.00    +0.166 A 
ATOM     11  C   UNL     1       9.220   1.672   2.326  0.00  0.00    +0.167 A 
ATOM     12  C   UNL     1       8.229   1.991   1.416  0.00  0.00    +0.058 A 
ATOM     13  O   UNL     1      10.552   1.426   2.161  0.00  0.00    -0.453 OA
ATOM     14  C   UNL     1      11.132   1.554   3.473  0.00  0.00    +0.466 C 
ATOM     15  O   UNL     1      10.046   1.225   4.360  0.00  0.00    -0.453 OA
ENDBRANCH   3   7
BRANCH   1  18
ATOM     16  C   UNL     1      -0.017   1.379   0.010  0.00  0.00    +0.002 A 
ATOM     17  C   UNL     1       1.167   2.088   0.002  0.00  0.00    +0.008 A 
ATOM     18  C   UNL     1       2.385   1.408  -0.013  0.00  0.00    -0.016 A 
ATOM     19  C   UNL     1       2.398   0.013  -0.021  0.00  0.00    +0.023 A 
ATOM     20  C   UNL     1       1.207  -0.685  -0.013  0.00  0.00    +0.018 A 
ATOM     21  C   UNL     1       0.002  -0.004   0.002  0.00  0.00    +0.015 A 
ATOM     22 BR   UNL     1       1.222  -2.576  -0.024  0.00  0.00    -0.050 Br
ENDBRANCH   1  18
BRANCH   5  23
ATOM     23  N   UNL     1       5.253   4.946  -1.866  0.00  0.00    -0.356 N 
ATOM     24  H   UNL     1       6.088   5.439  -1.869  0.00  0.00    +0.142 HD
ATOM     25  H   UNL     1       4.555   5.171  -2.501  0.00  0.00    +0.142 HD
ENDBRANCH   5  23
BRANCH   6  26
ATOM     26  C   UNL     1       2.822   3.527  -1.893  0.00  0.00    +0.102 C 
ATOM     27  N   UNL     1       2.003   3.784  -2.637  0.00  0.00    -0.191 NA
ENDBRANCH   6  26
BRANCH   4  28
ATOM     28  C   UNL     1       7.299   4.319  -0.037  0.00  0.00    +0.102 C 
ATOM     29  N   UNL     1       8.279   4.894  -0.037  0.00  0.00    -0.191 NA
ENDBRANCH   4  28
TORSDOF 5
