REMARK  Name = ZINC43619724
REMARK  4 active torsions:
REMARK  status: ('A' for Active; 'I' for Inactive)
REMARK    1  A    between atoms: C_3  and  C_8
REMARK    2  A    between atoms: C_8  and  N_9
REMARK    3  A    between atoms: C_14  and  C_23
REMARK    4  A    between atoms: C_28  and  C_29
REMARK                            x       y       z     vdW  Elec       q    Type
REMARK                         _______ _______ _______ _____ _____    ______ ____
ROOT
ATOM      1  N   UNL     1       2.864   2.483   0.960  0.00  0.00    -0.298 N 
ATOM      2  C   UNL     1       2.445   3.630   1.773  0.00  0.00    +0.110 C 
ATOM      3  C   UNL     1       3.069   3.421   3.165  0.00  0.00    +0.003 C 
ATOM      4  C   UNL     1       2.100   2.598   4.049  0.00  0.00    -0.007 C 
ATOM      5  C   UNL     1       3.089   1.744   4.885  0.00  0.00    -0.032 C 
ATOM      6  N   UNL     1       4.183   1.404   3.950  0.00  0.00    +0.394 N 
ATOM      7  C   UNL     1       4.217   2.426   2.867  0.00  0.00    +0.018 C 
ATOM      8  C   UNL     1       3.880   1.817   1.537  0.00  0.00    +0.206 C 
ATOM      9  O   UNL     1       4.445   0.860   1.052  0.00  0.00    -0.277 OA
ATOM     10  C   UNL     1       5.577   3.128   2.877  0.00  0.00    -0.004 C 
ATOM     11  C   UNL     1       6.486   2.117   3.627  0.00  0.00    -0.019 C 
ATOM     12  C   UNL     1       5.476   1.486   4.666  0.00  0.00    -0.077 C 
ATOM     13  H   UNL     1       4.048   0.477   3.574  0.00  0.00    -0.079 HD
ENDROOT
BRANCH   5  14
ATOM     14  C   UNL     1       2.411   0.493   5.380  0.00  0.00    -0.016 A 
ATOM     15  C   UNL     1       2.428  -0.714   4.774  0.00  0.00    +0.107 A 
ATOM     16  N   UNL     1       1.707  -1.570   5.529  0.00  0.00    -0.284 N 
ATOM     17  H   UNL     1       1.550  -2.507   5.334  0.00  0.00    +0.188 HD
ATOM     18  N   UNL     1       1.225  -0.870   6.642  0.00  0.00    -0.174 NA
ATOM     19  C   UNL     1       1.651   0.372   6.560  0.00  0.00    +0.094 A 
BRANCH  19  20
ATOM     20  C   UNL     1       1.377   1.456   7.536  0.00  0.00    +0.005 A 
ATOM     21  C   UNL     1       0.100   1.607   8.073  0.00  0.00    +0.010 A 
ATOM     22  C   UNL     1      -0.151   2.616   8.981  0.00  0.00    +0.003 A 
ATOM     23  C   UNL     1       0.863   3.477   9.359  0.00  0.00    +0.038 A 
ATOM     24  C   UNL     1       2.135   3.333   8.829  0.00  0.00    +0.124 A 
ATOM     25  C   UNL     1       2.397   2.322   7.924  0.00  0.00    +0.048 A 
ATOM     26  F   UNL     1       3.121   4.178   9.203  0.00  0.00    -0.205 F 
ENDBRANCH  19  20
ENDBRANCH   5  14
BRANCH   1  27
ATOM     27  C   UNL     1       2.250   2.107  -0.316  0.00  0.00    +0.142 C 
BRANCH  27  30
ATOM     28  C   UNL     1      -1.215   0.775   0.373  0.00  0.00    +0.002 A 
ATOM     29  C   UNL     1      -0.167   1.647   0.142  0.00  0.00    +0.005 A 
ATOM     30  C   UNL     1       1.109   1.156  -0.063  0.00  0.00    -0.029 A 
ATOM     31  C   UNL     1       1.337  -0.207  -0.037  0.00  0.00    +0.025 A 
ATOM     32  C   UNL     1       0.290  -1.080   0.195  0.00  0.00    +0.041 A 
ATOM     33  C   UNL     1      -0.987  -0.588   0.401  0.00  0.00    +0.020 A 
ATOM     34 CL   UNL     1       0.576  -2.791   0.228  0.00  0.00    -0.084 Cl
ENDBRANCH  27  30
ENDBRANCH   1  27
TORSDOF 4
