REMARK  Name = ZINC04613447
REMARK  11 active torsions:
REMARK  status: ('A' for Active; 'I' for Inactive)
REMARK    1  A    between atoms: C_1  and  O_2
REMARK    2  A    between atoms: O_2  and  C_3
REMARK    3  A    between atoms: C_8  and  O_9
REMARK    4  A    between atoms: O_9  and  C_10
REMARK    5  A    between atoms: C_13  and  C_16
REMARK    6  A    between atoms: C_17  and  S_30
REMARK    7  A    between atoms: C_23  and  O_28
REMARK    8  A    between atoms: C_24  and  O_26
REMARK    9  A    between atoms: O_26  and  C_27
REMARK   10  A    between atoms: O_28  and  C_29
REMARK   11  A    between atoms: S_30  and  C_31
REMARK                            x       y       z     vdW  Elec       q    Type
REMARK                         _______ _______ _______ _____ _____    ______ ____
ROOT
ATOM      1  C   UNL     1      -1.366   1.740   0.136  0.00  0.00    -0.011 C 
ATOM      2  C   UNL     1      -2.221   0.719  -0.052  0.00  0.00    +0.067 C 
ATOM      3  C   UNL     1      -1.452  -0.548  -0.057  0.00  0.00    +0.201 C 
ATOM      4  O   UNL     1      -1.899  -1.668  -0.198  0.00  0.00    -0.286 OA
ATOM      5  C   UNL     1      -0.027  -0.179   0.145  0.00  0.00    +0.034 A 
ATOM      6  C   UNL     1       0.015   1.225   0.258  0.00  0.00    -0.005 A 
ATOM      7  C   UNL     1       1.232   1.859   0.455  0.00  0.00    +0.058 A 
ATOM      8  C   UNL     1       2.404   1.107   0.540  0.00  0.00    +0.162 A 
ATOM      9  C   UNL     1       2.358  -0.276   0.428  0.00  0.00    +0.162 A 
ATOM     10  C   UNL     1       1.139  -0.920   0.230  0.00  0.00    +0.061 A 
ENDROOT
BRANCH   1  19
ATOM     11  C   UNL     1       1.329   6.840  -0.010  0.00  0.00    +0.162 A 
ATOM     12  C   UNL     1       0.607   5.979  -0.826  0.00  0.00    +0.053 A 
ATOM     13  C   UNL     1      -0.211   5.016  -0.273  0.00  0.00    -0.032 A 
ATOM     14  C   UNL     1      -0.318   4.902   1.115  0.00  0.00    +0.025 A 
ATOM     15  C   UNL     1       0.413   5.775   1.939  0.00  0.00    +0.061 A 
ATOM     16  C   UNL     1       1.229   6.734   1.377  0.00  0.00    +0.162 A 
ATOM     17  C   UNL     1      -1.240   3.816   1.476  0.00  0.00    +0.171 C 
ATOM     18  O   UNL     1      -1.534   3.478   2.604  0.00  0.00    -0.291 OA
ATOM     19  C   UNL     1      -1.757   3.194   0.202  0.00  0.00    +0.096 C 
ATOM     20  C   UNL     1      -1.085   3.977  -0.934  0.00  0.00    +0.052 C 
BRANCH  11  22
ATOM     21  C   UNL     1       2.187   7.836  -1.990  0.00  0.00    +0.277 C 
ATOM     22  O   UNL     1       2.132   7.785  -0.563  0.00  0.00    -0.491 OA
ENDBRANCH  11  22
BRANCH  16  23
ATOM     23  O   UNL     1       1.936   7.578   2.176  0.00  0.00    -0.491 OA
ATOM     24  C   UNL     1       1.786   7.413   3.587  0.00  0.00    +0.277 C 
ENDBRANCH  16  23
ENDBRANCH   1  19
BRANCH   9  25
ATOM     25  O   UNL     1       3.505  -1.002   0.511  0.00  0.00    -0.491 OA
ATOM     26  C   UNL     1       3.385  -2.420   0.386  0.00  0.00    +0.277 C 
ENDBRANCH   9  25
BRANCH   8  27
ATOM     27  O   UNL     1       3.595   1.731   0.734  0.00  0.00    -0.491 OA
ATOM     28  C   UNL     1       3.571   3.156   0.841  0.00  0.00    +0.277 C 
ENDBRANCH   8  27
BRANCH   2  29
ATOM     29  S   UNL     1      -3.965   0.863  -0.252  0.00  0.00    -0.053 S 
BRANCH  29  30
ATOM     30  C   UNL     1      -4.129   0.312  -1.917  0.00  0.00    +0.127 C 
ATOM     31  N   UNL     1      -3.078  -0.089  -2.578  0.00  0.00    -0.382 N 
ATOM     32  N   UNL     1      -5.365   0.304  -2.521  0.00  0.00    -0.339 N 
ATOM     33  H   UNL     1      -3.181  -0.433  -3.618  0.00  0.00    +0.158 HD
ATOM     34  H   UNL     1      -5.468  -0.040  -3.561  0.00  0.00    +0.144 HD
ATOM     35  H   UNL     1      -6.252   0.642  -1.964  0.00  0.00    +0.144 HD
ATOM     36  H   UNL     1      -2.090  -0.083  -2.095  0.00  0.00    +0.158 HD
ENDBRANCH  29  30
ENDBRANCH   2  29
TORSDOF 7
