REMARK  Name = ZINC13609045
REMARK  8 active torsions:
REMARK  status: ('A' for Active; 'I' for Inactive)
REMARK    1  A    between atoms: C_1  and  C_2
REMARK    2  A    between atoms: C_6  and  C_25
REMARK    3  A    between atoms: C_7  and  C_11
REMARK    4  A    between atoms: C_11  and  C_12
REMARK    5  A    between atoms: N_14  and  C_15
REMARK    6  A    between atoms: C_18  and  S_21
REMARK    7  A    between atoms: S_21  and  N_24
REMARK    8  A    between atoms: C_28  and  C_31
REMARK                            x       y       z     vdW  Elec       q    Type
REMARK                         _______ _______ _______ _____ _____    ______ ____
ROOT
ATOM      1  C   UNL     1      -4.135   5.013  -5.388  0.00  0.00    +0.044 C 
ATOM      2  C   UNL     1      -3.183   4.488  -4.344  0.00  0.00    -0.036 A 
ATOM      3  C   UNL     1      -3.435   3.291  -3.739  0.00  0.00    +0.051 A 
ATOM      4  C   UNL     1      -2.567   2.791  -2.771  0.00  0.00    +0.143 A 
ATOM      5  C   UNL     1      -1.422   3.521  -2.413  0.00  0.00    +0.064 A 
ATOM      6  C   UNL     1      -0.522   2.980  -1.395  0.00  0.00    -0.026 A 
ATOM      7  C   UNL     1      -0.833   1.783  -0.832  0.00  0.00    +0.049 A 
ATOM      8  C   UNL     1      -1.996   1.099  -1.243  0.00  0.00    +0.341 A 
ATOM      9  O   UNL     1      -2.262   0.024  -0.736  0.00  0.00    -0.245 OA
ATOM     10  O   UNL     1      -2.819   1.606  -2.173  0.00  0.00    -0.422 OA
ATOM     11  C   UNL     1       0.717   3.731  -0.980  0.00  0.00    +0.045 C 
ATOM     12  C   UNL     1      -1.157   4.755  -3.033  0.00  0.00    +0.146 A 
ATOM     13  C   UNL     1      -2.050   5.231  -4.002  0.00  0.00    +0.027 A 
ATOM     14  C   UNL     1      -1.497   6.517  -4.445  0.00  0.00    -0.005 A 
ATOM     15  C   UNL     1      -0.372   6.702  -3.741  0.00  0.00    +0.199 A 
ATOM     16  O   UNL     1      -0.173   5.664  -2.910  0.00  0.00    -0.462 OA
ATOM     17  C   UNL     1      -2.078   7.443  -5.482  0.00  0.00    +0.047 C 
ENDROOT
BRANCH   7  18
ATOM     18  C   UNL     1       0.064   1.185   0.221  0.00  0.00    +0.138 C 
BRANCH  18  19
ATOM     19  C   UNL     1      -0.380   1.654   1.583  0.00  0.00    +0.222 C 
ATOM     20  O   UNL     1      -1.330   2.400   1.688  0.00  0.00    -0.275 OA
ATOM     21  N   UNL     1       0.280   1.244   2.684  0.00  0.00    -0.285 N 
ATOM     22  H   UNL     1       1.084   0.708   2.597  0.00  0.00    +0.155 HD
BRANCH  21  23
ATOM     23  C   UNL     1      -0.193   1.593   3.954  0.00  0.00    +0.034 A 
ATOM     24  C   UNL     1       0.702   1.851   4.984  0.00  0.00    +0.025 A 
ATOM     25  C   UNL     1       0.231   2.200   6.235  0.00  0.00    +0.030 A 
ATOM     26  C   UNL     1      -1.130   2.283   6.465  0.00  0.00    +0.105 A 
ATOM     27  C   UNL     1      -2.024   2.022   5.443  0.00  0.00    +0.030 A 
ATOM     28  C   UNL     1      -1.560   1.677   4.188  0.00  0.00    +0.025 A 
BRANCH  26  29
ATOM     29  S   UNL     1      -1.726   2.722   8.063  0.00  0.00    +0.056 S 
ATOM     30  O   UNL     1      -0.684   3.448   8.700  0.00  0.00    -0.153 OA
ATOM     31  O   UNL     1      -3.027   3.263   7.877  0.00  0.00    -0.153 OA
BRANCH  29  32
ATOM     32  N   UNL     1      -1.916   1.317   8.919  0.00  0.00    -0.204 NA
ATOM     33  H   UNL     1      -1.704   0.466   8.506  0.00  0.00    +0.144 HD
ATOM     34  H   UNL     1      -2.240   1.346   9.833  0.00  0.00    +0.144 HD
ENDBRANCH  29  32
ENDBRANCH  26  29
ENDBRANCH  21  23
ENDBRANCH  18  19
ENDBRANCH   7  18
TORSDOF 5
