REMARK  Name = ZINC50360415
REMARK  3 active torsions:
REMARK  status: ('A' for Active; 'I' for Inactive)
REMARK    1  A    between atoms: C_3  and  N_12
REMARK    2  A    between atoms: N_12  and  C_13
REMARK    3  A    between atoms: C_13  and  C_14
REMARK                            x       y       z     vdW  Elec       q    Type
REMARK                         _______ _______ _______ _____ _____    ______ ____
ROOT
ATOM      1  C   UNL     1      -0.017   1.377   0.010  0.00  0.00    +0.022 A 
ATOM      2  C   UNL     1       1.183   2.074   0.002  0.00  0.00    +0.028 A 
ATOM      3  C   UNL     1       2.369   1.349  -0.013  0.00  0.00    +0.072 A 
ATOM      4  C   UNL     1       2.309  -0.046  -0.020  0.00  0.00    +0.175 A 
ATOM      5  N   UNL     1       1.142  -0.668  -0.012  0.00  0.00    -0.235 NA
ATOM      6  C   UNL     1       0.002  -0.004   0.002  0.00  0.00    +0.113 A 
ATOM      7  N   UNL     1       3.493  -0.792  -0.036  0.00  0.00    -0.220 N 
ATOM      8  C   UNL     1       3.643  -2.064   0.414  0.00  0.00    +0.116 A 
ATOM      9  C   UNL     1       4.934  -2.417   0.220  0.00  0.00    +0.041 A 
ATOM     10  C   UNL     1       5.596  -1.332  -0.365  0.00  0.00    +0.135 A 
ATOM     11  N   UNL     1       4.733  -0.361  -0.525  0.00  0.00    -0.173 NA
ENDROOT
BRANCH   3  12
ATOM     12  N   UNL     1       3.603   2.006  -0.022  0.00  0.00    -0.334 N 
ATOM     13  H   UNL     1       4.426   1.492  -0.033  0.00  0.00    +0.147 HD
BRANCH  12  14
ATOM     14  C   UNL     1       3.653   3.470  -0.015  0.00  0.00    +0.176 C 
BRANCH  14  15
ATOM     15  C   UNL     1       5.090   3.924  -0.027  0.00  0.00    +0.124 A 
ATOM     16  C   UNL     1       5.827   4.171  -1.124  0.00  0.00    +0.062 A 
ATOM     17  C   UNL     1       7.108   4.570  -0.676  0.00  0.00    +0.070 A 
ATOM     18  C   UNL     1       7.076   4.542   0.670  0.00  0.00    +0.184 A 
ATOM     19  O   UNL     1       5.849   4.155   1.057  0.00  0.00    -0.450 OA
ATOM     20 BR   UNL     1       8.512   4.981   1.820  0.00  0.00    -0.007 Br
ATOM     21 BR   UNL     1       8.582   5.049  -1.759  0.00  0.00    -0.046 Br
ENDBRANCH  14  15
ENDBRANCH  12  14
ENDBRANCH   3  12
TORSDOF 3
