REMARK  Name = ZINC33467681
REMARK  8 active torsions:
REMARK  status: ('A' for Active; 'I' for Inactive)
REMARK    1  A    between atoms: C_1  and  C_2
REMARK    2  A    between atoms: C_2  and  N_3
REMARK    3  A    between atoms: C_4  and  N_26
REMARK    4  A    between atoms: C_5  and  C_13
REMARK    5  A    between atoms: C_6  and  C_12
REMARK    6  A    between atoms: C_7  and  C_10
REMARK    7  A    between atoms: N_17  and  C_21
REMARK    8  A    between atoms: N_29  and  C_32
REMARK                            x       y       z     vdW  Elec       q    Type
REMARK                         _______ _______ _______ _____ _____    ______ ____
ROOT
ATOM      1  N   UNL     1      -0.656   1.512   1.277  0.00  0.00    -0.295 N 
ATOM      2  C   UNL     1      -1.608   0.757   1.883  0.00  0.00    +0.112 A 
ATOM      3  C   UNL     1      -2.349   1.273   2.958  0.00  0.00    +0.019 A 
ATOM      4  C   UNL     1      -2.099   2.581   3.406  0.00  0.00    -0.017 A 
ATOM      5  C   UNL     1      -1.117   3.334   2.768  0.00  0.00    +0.120 A 
ATOM      6  C   UNL     1      -0.393   2.765   1.690  0.00  0.00    +0.270 A 
ATOM      7  O   UNL     1       0.471   3.417   1.131  0.00  0.00    -0.266 OA
ATOM      8  C   UNL     1      -2.879   3.159   4.559  0.00  0.00    +0.046 C 
ENDROOT
BRANCH   3   9
ATOM      9  C   UNL     1      -3.374   0.454   3.608  0.00  0.00    +0.032 C 
ATOM     10  C   UNL     1      -3.203   0.043   4.894  0.00  0.00    +0.077 C 
ATOM     11  C   UNL     1      -4.023  -0.812   5.691  0.00  0.00    +0.259 C 
ATOM     12  O   UNL     1      -5.047  -1.296   5.244  0.00  0.00    -0.269 OA
ATOM     13  N   UNL     1      -3.634  -1.067   6.929  0.00  0.00    -0.252 N 
ATOM     14  C   UNL     1      -2.501  -0.525   7.428  0.00  0.00    +0.121 C 
ATOM     15  S   UNL     1      -1.819  -0.712   8.987  0.00  0.00    -0.027 S 
ATOM     16  S   UNL     1      -1.895   0.434   6.048  0.00  0.00    -0.061 S 
BRANCH  13  17
ATOM     17  C   UNL     1      -4.448  -1.944   7.774  0.00  0.00    +0.083 C 
ATOM     18  C   UNL     1      -4.879  -1.195   9.052  0.00  0.00    +0.023 C 
ATOM     19  C   UNL     1      -4.821  -2.275  10.162  0.00  0.00    +0.002 C 
ATOM     20  C   UNL     1      -3.569  -3.099   9.774  0.00  0.00    +0.002 C 
ATOM     21  C   UNL     1      -3.615  -3.155   8.233  0.00  0.00    +0.023 C 
ENDBRANCH  13  17
ENDBRANCH   3   9
BRANCH   2  22
ATOM     22  N   UNL     1      -1.847  -0.512   1.443  0.00  0.00    -0.320 N 
ATOM     23  C   UNL     1      -3.198  -0.627   0.876  0.00  0.00    +0.088 C 
ATOM     24  C   UNL     1      -3.397  -2.041   0.324  0.00  0.00    -0.060 C 
ATOM     25  N   UNL     1      -3.196  -3.018   1.402  0.00  0.00    +0.380 N 
ATOM     26  C   UNL     1      -1.846  -2.903   1.969  0.00  0.00    -0.060 C 
ATOM     27  C   UNL     1      -1.646  -1.490   2.522  0.00  0.00    +0.088 C 
ATOM     28  C   UNL     1      -3.454  -4.385   0.929  0.00  0.00    -0.096 C 
ATOM     29  H   UNL     1      -3.920  -2.797   2.200  0.00  0.00    -0.082 HD
ENDBRANCH   2  22
BRANCH   1  31
ATOM     30  C   UNL     1      -0.552   1.364  -1.162  0.00  0.00    +0.027 C 
ATOM     31  C   UNL     1       0.103   0.950   0.157  0.00  0.00    +0.123 C 
ENDBRANCH   1  31
BRANCH   5  32
ATOM     32  C   UNL     1      -0.838   4.671   3.200  0.00  0.00    +0.105 C 
ATOM     33  N   UNL     1      -0.617   5.731   3.542  0.00  0.00    -0.191 NA
ENDBRANCH   5  32
TORSDOF 5
