REMARK  Name = ZINC43763437
REMARK  14 active torsions:
REMARK  status: ('A' for Active; 'I' for Inactive)
REMARK    1  A    between atoms: C_1  and  C_2
REMARK    2  A    between atoms: C_2  and  C_12
REMARK    3  A    between atoms: C_3  and  C_8
REMARK    4  A    between atoms: C_3  and  C_9
REMARK    5  A    between atoms: C_9  and  C_10
REMARK    6  A    between atoms: C_12  and  C_13
REMARK    7  A    between atoms: C_13  and  C_14
REMARK    8  A    between atoms: C_14  and  C_15
REMARK    9  A    between atoms: C_15  and  C_16
REMARK   10  A    between atoms: C_16  and  C_17
REMARK   11  A    between atoms: C_17  and  C_18
REMARK   12  A    between atoms: C_18  and  C_19
REMARK   13  A    between atoms: C_19  and  C_20
REMARK   14  A    between atoms: C_20  and  C_21
REMARK                            x       y       z     vdW  Elec       q    Type
REMARK                         _______ _______ _______ _____ _____    ______ ____
ROOT
ATOM      1  C   UNL     1      -0.019   1.526   0.010  0.00  0.00    +0.060 C 
ATOM      2  C   UNL     1       0.002  -0.004   0.002  0.00  0.00    +0.154 C 
ATOM      3  C   UNL     1       0.829  -0.534  -1.196  0.00  0.00    +0.157 C 
ATOM      4  O   UNL     1       2.095  -0.827  -0.552  0.00  0.00    -0.423 OA
ATOM      5  C   UNL     1       1.735  -1.276   0.678  0.00  0.00    +0.511 C 
ATOM      6  O   UNL     1       2.240  -2.212   1.264  0.00  0.00    -0.203 OA
ATOM      7  O   UNL     1       0.724  -0.510   1.143  0.00  0.00    -0.423 OA
ATOM      8  C   UNL     1       0.202  -1.801  -1.780  0.00  0.00    +0.060 C 
ENDROOT
BRANCH   3   9
ATOM      9  C   UNL     1       0.994   0.542  -2.271  0.00  0.00    +0.078 C 
BRANCH   9  10
ATOM     10  C   UNL     1       1.695  -0.047  -3.467  0.00  0.00    -0.030 C 
ATOM     11  C   UNL     1       1.146   0.035  -4.654  0.00  0.00    +0.004 C 
ENDBRANCH   9  10
ENDBRANCH   3   9
BRANCH   2  12
ATOM     12  C   UNL     1      -1.422  -0.562  -0.029  0.00  0.00    +0.052 C 
BRANCH  12  13
ATOM     13  C   UNL     1      -2.227   0.028   1.130  0.00  0.00    +0.004 C 
BRANCH  13  14
ATOM     14  C   UNL     1      -3.651  -0.530   1.099  0.00  0.00    +0.000 C 
BRANCH  14  15
ATOM     15  C   UNL     1      -4.456   0.061   2.258  0.00  0.00    +0.000 C 
BRANCH  15  16
ATOM     16  C   UNL     1      -5.880  -0.498   2.227  0.00  0.00    +0.000 C 
BRANCH  16  17
ATOM     17  C   UNL     1      -6.685   0.093   3.386  0.00  0.00    +0.000 C 
BRANCH  17  18
ATOM     18  C   UNL     1      -8.109  -0.465   3.355  0.00  0.00    +0.000 C 
BRANCH  18  19
ATOM     19  C   UNL     1      -8.915   0.125   4.514  0.00  0.00    +0.004 C 
BRANCH  19  20
ATOM     20  C   UNL     1     -10.339  -0.433   4.483  0.00  0.00    +0.026 C 
BRANCH  20  21
ATOM     21  C   UNL     1     -11.132   0.149   5.625  0.00  0.00    -0.034 C 
ATOM     22  C   UNL     1     -12.262   0.767   5.389  0.00  0.00    +0.004 C 
ENDBRANCH  20  21
ENDBRANCH  19  20
ENDBRANCH  18  19
ENDBRANCH  17  18
ENDBRANCH  16  17
ENDBRANCH  15  16
ENDBRANCH  14  15
ENDBRANCH  13  14
ENDBRANCH  12  13
ENDBRANCH   2  12
TORSDOF 12
