REMARK  Name = ZINC00310820
REMARK  5 active torsions:
REMARK  status: ('A' for Active; 'I' for Inactive)
REMARK    1  A    between atoms: C_1  and  C_2
REMARK    2  A    between atoms: C_5  and  C_12
REMARK    3  A    between atoms: C_6  and  C_7
REMARK    4  A    between atoms: C_6  and  C_8
REMARK    5  A    between atoms: N_14  and  C_15
REMARK                            x       y       z     vdW  Elec       q    Type
REMARK                         _______ _______ _______ _____ _____    ______ ____
ROOT
ATOM      1  C   UNL     1       1.011  -3.261   1.612  0.00  0.00    +0.224 C 
ATOM      2  O   UNL     1       1.636  -2.982   2.614  0.00  0.00    -0.275 OA
ATOM      3  N   UNL     1       0.811  -4.553   1.282  0.00  0.00    -0.285 N 
ATOM      4  H   UNL     1       0.256  -4.777   0.519  0.00  0.00    +0.155 HD
ENDROOT
BRANCH   1   9
ATOM      5  C   UNL     1      -0.033   1.526   0.019  0.00  0.00    +0.019 C 
ATOM      6  C   UNL     1      -0.011  -0.004   0.009  0.00  0.00    +0.032 C 
ATOM      7  C   UNL     1      -1.402  -0.705   0.081  0.00  0.00    +0.016 C 
ATOM      8  C   UNL     1      -1.092  -2.138   0.571  0.00  0.00    +0.018 C 
ATOM      9  C   UNL     1       0.459  -2.165   0.738  0.00  0.00    +0.060 C 
ATOM     10  C   UNL     1       0.724  -0.692   1.213  0.00  0.00    -0.009 C 
ATOM     11  C   UNL     1       0.046  -0.389   2.551  0.00  0.00    +0.013 C 
ATOM     12  C   UNL     1       2.216  -0.358   1.244  0.00  0.00    +0.013 C 
ATOM     13  C   UNL     1       1.005  -2.088  -0.720  0.00  0.00    +0.091 C 
ATOM     14  C   UNL     1       0.709  -0.656  -1.179  0.00  0.00    +0.141 C 
ATOM     15  O   UNL     1       0.966  -0.152  -2.246  0.00  0.00    -0.297 OA
ENDBRANCH   1   9
BRANCH   3  16
ATOM     16  C   UNL     1       1.405  -5.569   2.039  0.00  0.00    +0.035 A 
ATOM     17  C   UNL     1       1.852  -6.728   1.418  0.00  0.00    +0.025 A 
ATOM     18  C   UNL     1       2.438  -7.730   2.166  0.00  0.00    +0.023 A 
ATOM     19  C   UNL     1       2.581  -7.580   3.534  0.00  0.00    +0.059 A 
ATOM     20  C   UNL     1       2.137  -6.425   4.156  0.00  0.00    +0.061 A 
ATOM     21  C   UNL     1       1.554  -5.418   3.410  0.00  0.00    +0.044 A 
ATOM     22 CL   UNL     1       2.317  -6.240   5.873  0.00  0.00    -0.082 Cl
ATOM     23 CL   UNL     1       3.319  -8.841   4.472  0.00  0.00    -0.082 Cl
ENDBRANCH   3  16
TORSDOF 2
