REMARK  Name = ZINC64201956
REMARK  3 active torsions:
REMARK  status: ('A' for Active; 'I' for Inactive)
REMARK    1  A    between atoms: C_4  and  C_10
REMARK    2  A    between atoms: C_16  and  C_18
REMARK    3  A    between atoms: C_24  and  C_26
REMARK                            x       y       z     vdW  Elec       q    Type
REMARK                         _______ _______ _______ _____ _____    ______ ____
ROOT
ATOM      1  C   UNL     1       4.873   3.470  -0.880  0.00  0.00    -0.043 C 
ATOM      2  C   UNL     1       3.889   4.357  -0.799  0.00  0.00    -0.004 C 
ATOM      3  C   UNL     1       4.122   5.840  -0.712  0.00  0.00    +0.135 C 
ATOM      4  N   UNL     1       5.549   6.090  -0.465  0.00  0.00    -0.297 N 
ATOM      5  C   UNL     1       6.520   5.300  -1.242  0.00  0.00    +0.113 C 
ATOM      6  C   UNL     1       6.330   3.825  -0.873  0.00  0.00    +0.054 C 
ATOM      7  C   UNL     1       5.955   7.006   0.437  0.00  0.00    +0.219 C 
ATOM      8  O   UNL     1       7.138   7.192   0.622  0.00  0.00    -0.275 OA
ENDROOT
BRANCH   1  12
ATOM      9  C   UNL     1       7.334  -0.343  -0.725  0.00  0.00    +0.020 A 
ATOM     10  C   UNL     1       6.784   0.904  -0.745  0.00  0.00    +0.013 A 
ATOM     11  C   UNL     1       5.384   1.015  -0.911  0.00  0.00    +0.022 A 
ATOM     12  C   UNL     1       4.527   2.107  -0.974  0.00  0.00    -0.015 C 
ATOM     13  C   UNL     1       3.143   1.525  -1.163  0.00  0.00    +0.150 C 
ATOM     14  N   UNL     1       3.317   0.070  -1.197  0.00  0.00    -0.365 N 
ATOM     15  C   UNL     1       4.591  -0.220  -1.054  0.00  0.00    +0.135 A 
ATOM     16  N   UNL     1       5.234  -1.406  -1.020  0.00  0.00    -0.238 NA
ATOM     17  C   UNL     1       6.532  -1.475  -0.865  0.00  0.00    +0.113 A 
ATOM     18  H   UNL     1       2.603  -0.578  -1.308  0.00  0.00    +0.161 HD
ENDBRANCH   1  12
BRANCH   7  19
ATOM     19  C   UNL     1       4.936   7.798   1.216  0.00  0.00    +0.078 C 
ATOM     20  C   UNL     1       4.059   8.594   0.247  0.00  0.00    +0.032 C 
ATOM     21  C   UNL     1       3.004   9.370   1.040  0.00  0.00    +0.108 C 
ATOM     22  N   UNL     1       3.682  10.191   2.053  0.00  0.00    -0.301 N 
ATOM     23  C   UNL     1       4.618   9.539   2.979  0.00  0.00    +0.108 C 
ATOM     24  C   UNL     1       5.655   8.760   2.164  0.00  0.00    +0.032 C 
ATOM     25  C   UNL     1       3.450  11.516   2.131  0.00  0.00    +0.229 C 
ATOM     26  O   UNL     1       2.598  12.025   1.433  0.00  0.00    -0.274 OA
BRANCH  25  27
ATOM     27  C   UNL     1       4.249  12.366   3.085  0.00  0.00    +0.140 C 
ATOM     28  C   UNL     1       3.469  13.641   3.502  0.00  0.00    +0.051 C 
ATOM     29  C   UNL     1       4.388  14.817   3.595  0.00  0.00    -0.019 C 
ATOM     30  C   UNL     1       5.567  14.777   3.006  0.00  0.00    +0.037 C 
ATOM     31  S   UNL     1       5.677  13.168   2.241  0.00  0.00    -0.120 S 
ENDBRANCH  25  27
ENDBRANCH   7  19
TORSDOF 3
