REMARK  Name = ZINC50709552
REMARK  6 active torsions:
REMARK  status: ('A' for Active; 'I' for Inactive)
REMARK    1  A    between atoms: C_1  and  C_2
REMARK    2  A    between atoms: C_4  and  C_8
REMARK    3  A    between atoms: C_5  and  C_7
REMARK    4  A    between atoms: C_8  and  C_10
REMARK    5  A    between atoms: C_8  and  N_11
REMARK    6  A    between atoms: C_12  and  C_14
REMARK                            x       y       z     vdW  Elec       q    Type
REMARK                         _______ _______ _______ _____ _____    ______ ____
ROOT
ATOM      1  N   UNL     1      -2.786  -3.079   0.471  0.00  0.00    -0.305 N 
ATOM      2  C   UNL     1      -3.542  -4.045   1.030  0.00  0.00    +0.246 C 
ATOM      3  O   UNL     1      -3.104  -5.174   1.135  0.00  0.00    -0.270 OA
ATOM      4  H   UNL     1      -3.135  -2.178   0.387  0.00  0.00    +0.150 HD
ENDROOT
BRANCH   2   5
ATOM      5  C   UNL     1      -4.900  -3.731   1.513  0.00  0.00    +0.056 A 
ATOM      6  C   UNL     1      -5.694  -4.728   2.102  0.00  0.00    +0.038 A 
ATOM      7  C   UNL     1      -6.948  -4.392   2.537  0.00  0.00    +0.081 A 
ATOM      8  C   UNL     1      -7.396  -3.080   2.384  0.00  0.00    +0.135 A 
ATOM      9  N   UNL     1      -6.625  -2.158   1.824  0.00  0.00    -0.238 NA
ATOM     10  C   UNL     1      -5.412  -2.438   1.397  0.00  0.00    +0.126 A 
ATOM     11  N   UNL     1      -8.664  -2.736   2.822  0.00  0.00    -0.342 N 
ATOM     12 CL   UNL     1      -7.970  -5.587   3.272  0.00  0.00    -0.080 Cl
ATOM     13  H   UNL     1      -9.234  -3.405   3.232  0.00  0.00    +0.144 HD
ATOM     14  H   UNL     1      -8.983  -1.825   2.719  0.00  0.00    +0.144 HD
ENDBRANCH   2   5
BRANCH   1  15
ATOM     15  C   UNL     1      -1.437  -3.390  -0.009  0.00  0.00    +0.104 C 
ATOM     16  C   UNL     1      -1.518  -3.946  -1.432  0.00  0.00    +0.033 C 
BRANCH  15  20
ATOM     17  C   UNL     1      -0.018   1.503   0.010  0.00  0.00    +0.086 C 
ATOM     18  C   UNL     1       0.002  -0.004   0.002  0.00  0.00    +0.103 A 
ATOM     19  C   UNL     1      -1.078  -0.805   0.003  0.00  0.00    +0.050 A 
ATOM     20  C   UNL     1      -0.601  -2.136  -0.007  0.00  0.00    +0.013 A 
ATOM     21  C   UNL     1       0.742  -2.069  -0.013  0.00  0.00    +0.107 A 
ATOM     22  O   UNL     1       1.102  -0.775  -0.013  0.00  0.00    -0.465 OA
ATOM     23  C   UNL     1       1.684  -3.245  -0.023  0.00  0.00    +0.086 C 
ENDBRANCH  15  20
ENDBRANCH   1  15
TORSDOF 3
