REMARK  Name = ZINC38976414
REMARK  5 active torsions:
REMARK  status: ('A' for Active; 'I' for Inactive)
REMARK    1  A    between atoms: C_1  and  C_2
REMARK    2  A    between atoms: C_7  and  N_8
REMARK    3  A    between atoms: N_8  and  C_9
REMARK    4  A    between atoms: N_12  and  S_13
REMARK    5  A    between atoms: S_13  and  C_16
REMARK                            x       y       z     vdW  Elec       q    Type
REMARK                         _______ _______ _______ _____ _____    ______ ____
ROOT
ATOM      1  C   UNL     1      -0.063  -0.754   3.678  0.00  0.00    +0.237 C 
ATOM      2  C   UNL     1       0.946  -0.158   4.633  0.00  0.00    +0.192 C 
ATOM      3  N   UNL     1       2.208  -0.118   4.320  0.00  0.00    -0.110 NA
ATOM      4  N   UNL     1       0.520   0.330   5.809  0.00  0.00    -0.226 NA
ATOM      5  C   UNL     1      -0.751   0.301   6.149  0.00  0.00    +0.089 A 
ATOM      6  C   UNL     1      -1.165   0.825   7.400  0.00  0.00    +0.030 A 
ATOM      7  C   UNL     1      -2.469   0.798   7.754  0.00  0.00    +0.002 A 
ATOM      8  C   UNL     1      -3.470   0.263   6.926  0.00  0.00    +0.002 A 
ATOM      9  C   UNL     1      -3.184  -0.263   5.715  0.00  0.00    +0.027 A 
ATOM     10  C   UNL     1      -1.788  -0.271   5.255  0.00  0.00    +0.063 A 
ATOM     11  N   UNL     1      -1.475  -0.768   4.091  0.00  0.00    -0.359 N 
ATOM     12  H   UNL     1      -2.158  -1.140   3.511  0.00  0.00    +0.162 HD
ENDROOT
BRANCH   3  13
ATOM     13  S   UNL     1       3.302   0.537   5.375  0.00  0.00    +0.100 S 
ATOM     14  O   UNL     1       2.999   1.923   5.467  0.00  0.00    -0.146 OA
ATOM     15  O   UNL     1       3.329  -0.314   6.513  0.00  0.00    -0.146 OA
BRANCH  13  16
ATOM     16  C   UNL     1       4.890   0.419   4.620  0.00  0.00    +0.113 A 
ATOM     17  C   UNL     1       5.669  -0.705   4.822  0.00  0.00    +0.032 A 
ATOM     18  C   UNL     1       6.914  -0.800   4.229  0.00  0.00    +0.040 A 
ATOM     19  C   UNL     1       7.381   0.232   3.433  0.00  0.00    +0.124 A 
ATOM     20  C   UNL     1       6.600   1.358   3.231  0.00  0.00    +0.040 A 
ATOM     21  C   UNL     1       5.353   1.448   3.821  0.00  0.00    +0.032 A 
ATOM     22  F   UNL     1       8.598   0.141   2.854  0.00  0.00    -0.205 F 
ENDBRANCH  13  16
ENDBRANCH   3  13
BRANCH   1  23
ATOM     23  N   UNL     1       0.026  -0.016   2.415  0.00  0.00    -0.318 N 
ATOM     24  H   UNL     1      -0.017   0.954   2.417  0.00  0.00    +0.148 HD
BRANCH  23  31
ATOM     25  C   UNL     1       0.453   1.497   0.044  0.00  0.00    +0.046 C 
ATOM     26  C   UNL     1       0.381  -0.009   0.028  0.00  0.00    -0.029 A 
ATOM     27  C   UNL     1       0.531  -0.695  -1.161  0.00  0.00    +0.020 A 
ATOM     28  C   UNL     1       0.464  -2.077  -1.177  0.00  0.00    +0.018 A 
ATOM     29  C   UNL     1       0.249  -2.775  -0.002  0.00  0.00    +0.017 A 
ATOM     30  C   UNL     1       0.099  -2.094   1.190  0.00  0.00    +0.024 A 
ATOM     31  C   UNL     1       0.171  -0.707   1.210  0.00  0.00    +0.032 A 
ATOM     32 BR   UNL     1       0.668  -3.013  -2.807  0.00  0.00    -0.050 Br
ENDBRANCH  23  31
ENDBRANCH   1  23
TORSDOF 4
