REMARK  Name = ZINC66226504
REMARK  13 active torsions:
REMARK  status: ('A' for Active; 'I' for Inactive)
REMARK    1  A    between atoms: C_1  and  C_2
REMARK    2  A    between atoms: C_2  and  C_4
REMARK    3  A    between atoms: C_2  and  N_10
REMARK    4  A    between atoms: C_11  and  C_13
REMARK    5  A    between atoms: C_17  and  N_19
REMARK    6  A    between atoms: C_20  and  C_22
REMARK    7  A    between atoms: C_22  and  N_23
REMARK    8  A    between atoms: N_23  and  C_24
REMARK    9  A    between atoms: C_27  and  O_30
REMARK   10  A    between atoms: O_30  and  C_31
REMARK   11  A    between atoms: C_31  and  C_32
REMARK   12  A    between atoms: C_32  and  C_33
REMARK   13  A    between atoms: C_32  and  C_34
REMARK                            x       y       z     vdW  Elec       q    Type
REMARK                         _______ _______ _______ _____ _____    ______ ____
ROOT
ATOM      1  C   UNL     1      -4.864  -2.587  -0.120  0.00  0.00    +0.038 A 
ATOM      2  C   UNL     1      -4.019  -1.489   0.055  0.00  0.00    +0.013 A 
ATOM      3  C   UNL     1      -3.890  -0.551  -0.949  0.00  0.00    +0.003 A 
ATOM      4  C   UNL     1      -4.595  -0.694  -2.129  0.00  0.00    +0.023 A 
ATOM      5  C   UNL     1      -5.438  -1.783  -2.313  0.00  0.00    +0.034 A 
ATOM      6  C   UNL     1      -5.570  -2.734  -1.314  0.00  0.00    +0.036 A 
ENDROOT
BRANCH   1   8
ATOM      7  N   UNL     1      -4.320  -3.450   2.106  0.00  0.00    -0.305 N 
ATOM      8  C   UNL     1      -5.004  -3.594   0.954  0.00  0.00    +0.245 C 
ATOM      9  O   UNL     1      -5.736  -4.551   0.797  0.00  0.00    -0.270 OA
ATOM     10  H   UNL     1      -3.736  -2.686   2.231  0.00  0.00    +0.150 HD
BRANCH   7  12
ATOM     11  C   UNL     1      -3.493  -5.606   2.912  0.00  0.00    +0.033 C 
ATOM     12  C   UNL     1      -4.459  -4.447   3.170  0.00  0.00    +0.100 C 
BRANCH  12  13
ATOM     13  C   UNL     1      -4.139  -3.813   4.498  0.00  0.00    -0.027 A 
ATOM     14  C   UNL     1      -3.095  -2.912   4.601  0.00  0.00    +0.005 A 
ATOM     15  C   UNL     1      -2.802  -2.330   5.820  0.00  0.00    +0.000 A 
ATOM     16  C   UNL     1      -3.553  -2.648   6.936  0.00  0.00    +0.000 A 
ATOM     17  C   UNL     1      -4.597  -3.547   6.834  0.00  0.00    +0.000 A 
ATOM     18  C   UNL     1      -4.893  -4.126   5.614  0.00  0.00    +0.005 A 
ENDBRANCH  12  13
ENDBRANCH   7  12
ENDBRANCH   1   8
BRANCH   5  19
ATOM     19  N   UNL     1      -6.149  -1.922  -3.511  0.00  0.00    -0.284 N 
ATOM     20  C   UNL     1      -7.375  -2.483  -3.505  0.00  0.00    +0.234 C 
ATOM     21  O   UNL     1      -7.902  -2.779  -2.453  0.00  0.00    -0.274 OA
ATOM     22  H   UNL     1      -5.761  -1.616  -4.345  0.00  0.00    +0.155 HD
BRANCH  20  23
ATOM     23  C   UNL     1      -8.091  -2.742  -4.805  0.00  0.00    +0.198 C 
BRANCH  23  24
ATOM     24  N   UNL     1      -9.395  -3.353  -4.532  0.00  0.00    -0.335 N 
ATOM     25  H   UNL     1      -9.667  -3.525  -3.617  0.00  0.00    +0.147 HD
BRANCH  24  26
ATOM     26  C   UNL     1     -10.247  -3.687  -5.590  0.00  0.00    +0.028 A 
ATOM     27  C   UNL     1      -9.855  -3.445  -6.900  0.00  0.00    +0.026 A 
ATOM     28  C   UNL     1     -10.697  -3.775  -7.944  0.00  0.00    +0.047 A 
ATOM     29  C   UNL     1     -11.933  -4.348  -7.684  0.00  0.00    +0.121 A 
ATOM     30  C   UNL     1     -12.325  -4.590  -6.376  0.00  0.00    +0.047 A 
ATOM     31  C   UNL     1     -11.482  -4.265  -5.331  0.00  0.00    +0.026 A 
BRANCH  29  32
ATOM     32  O   UNL     1     -12.761  -4.673  -8.713  0.00  0.00    -0.492 OA
BRANCH  32  33
ATOM     33  C   UNL     1     -14.019  -5.260  -8.373  0.00  0.00    +0.232 C 
BRANCH  33  34
ATOM     34  C   UNL     1     -14.806  -5.555  -9.651  0.00  0.00    +0.020 C 
ATOM     35  C   UNL     1     -14.072  -6.618 -10.469  0.00  0.00    +0.010 C 
ATOM     36  C   UNL     1     -16.201  -6.067  -9.284  0.00  0.00    +0.010 C 
ENDBRANCH  33  34
ENDBRANCH  32  33
ENDBRANCH  29  32
ENDBRANCH  24  26
ENDBRANCH  23  24
ENDBRANCH  20  23
ENDBRANCH   5  19
TORSDOF 10
