REMARK  Name = ZINC13756593
REMARK  6 active torsions:
REMARK  status: ('A' for Active; 'I' for Inactive)
REMARK    1  A    between atoms: C_1  and  C_2
REMARK    2  A    between atoms: C_4  and  C_30
REMARK    3  A    between atoms: C_9  and  N_22
REMARK    4  A    between atoms: N_10  and  C_11
REMARK    5  A    between atoms: N_13  and  C_14
REMARK    6  A    between atoms: N_22  and  C_23
REMARK                            x       y       z     vdW  Elec       q    Type
REMARK                         _______ _______ _______ _____ _____    ______ ____
ROOT
ATOM      1  C   UNL     1       0.045   1.277  -0.102  0.00  0.00    +0.066 C 
ATOM      2  C   UNL     1       0.091  -0.227  -0.013  0.00  0.00    +0.044 A 
ATOM      3  C   UNL     1       0.026  -1.000  -1.162  0.00  0.00    +0.046 A 
ATOM      4  C   UNL     1       0.073  -2.380  -1.035  0.00  0.00    +0.044 A 
ATOM      5  N   UNL     1       0.177  -2.913   0.171  0.00  0.00    -0.217 NA
ATOM      6  C   UNL     1       0.237  -2.146   1.248  0.00  0.00    +0.231 A 
ATOM      7  N   UNL     1       0.200  -0.825   1.161  0.00  0.00    -0.217 NA
ATOM      8  N   UNL     1       0.346  -2.740   2.498  0.00  0.00    -0.295 N 
ATOM      9  C   UNL     1       0.302  -1.970   3.628  0.00  0.00    +0.224 C 
ATOM     10  N   UNL     1       0.524  -2.518   4.811  0.00  0.00    -0.127 NA
ATOM     11  C   UNL     1       0.005  -3.260  -2.256  0.00  0.00    +0.066 C 
ATOM     12  H   UNL     1       0.453  -3.701   2.570  0.00  0.00    +0.172 HD
ENDROOT
BRANCH  10  13
ATOM     13  C   UNL     1       0.681  -3.845   4.916  0.00  0.00    +0.330 C 
ATOM     14  O   UNL     1       0.730  -4.534   3.913  0.00  0.00    -0.250 OA
ATOM     15  N   UNL     1       0.784  -4.418   6.132  0.00  0.00    -0.268 N 
ATOM     16  H   UNL     1       0.665  -3.882   6.932  0.00  0.00    +0.156 HD
BRANCH  15  17
ATOM     17  C   UNL     1       1.062  -5.785   6.240  0.00  0.00    +0.036 A 
ATOM     18  C   UNL     1       1.901  -6.399   5.319  0.00  0.00    +0.025 A 
ATOM     19  C   UNL     1       2.175  -7.748   5.428  0.00  0.00    +0.023 A 
ATOM     20  C   UNL     1       1.614  -8.489   6.454  0.00  0.00    +0.059 A 
ATOM     21  C   UNL     1       0.777  -7.880   7.373  0.00  0.00    +0.061 A 
ATOM     22  C   UNL     1       0.504  -6.528   7.272  0.00  0.00    +0.044 A 
ATOM     23 CL   UNL     1       0.074  -8.812   8.658  0.00  0.00    -0.082 Cl
ATOM     24 CL   UNL     1       1.959 -10.185   6.587  0.00  0.00    -0.082 Cl
ENDBRANCH  15  17
ENDBRANCH  10  13
BRANCH   9  25
ATOM     25  N   UNL     1       0.031  -0.635   3.534  0.00  0.00    -0.215 NA
BRANCH  25  26
ATOM     26  C   UNL     1       0.650   0.268   4.406  0.00  0.00    +0.068 A 
ATOM     27  C   UNL     1       1.641  -0.171   5.274  0.00  0.00    +0.029 A 
ATOM     28  C   UNL     1       2.251   0.722   6.133  0.00  0.00    +0.022 A 
ATOM     29  C   UNL     1       1.874   2.054   6.129  0.00  0.00    +0.041 A 
ATOM     30  C   UNL     1       0.887   2.494   5.265  0.00  0.00    +0.022 A 
ATOM     31  C   UNL     1       0.279   1.606   4.400  0.00  0.00    +0.029 A 
ATOM     32 CL   UNL     1       2.642   3.174   7.211  0.00  0.00    -0.084 Cl
ENDBRANCH  25  26
ENDBRANCH   9  25
TORSDOF 4
