REMARK  Name = ZINC21263885
REMARK  12 active torsions:
REMARK  status: ('A' for Active; 'I' for Inactive)
REMARK    1  A    between atoms: C_1  and  C_2
REMARK    2  A    between atoms: C_2  and  C_30
REMARK    3  A    between atoms: C_4  and  N_10
REMARK    4  A    between atoms: C_6  and  C_8
REMARK    5  A    between atoms: C_6  and  C_9
REMARK    6  A    between atoms: N_10  and  C_11
REMARK    7  A    between atoms: C_11  and  N_13
REMARK    8  A    between atoms: N_13  and  C_14
REMARK    9  A    between atoms: N_13  and  C_22
REMARK   10  A    between atoms: C_14  and  C_15
REMARK   11  A    between atoms: C_15  and  N_16
REMARK   12  A    between atoms: C_22  and  C_23
REMARK                            x       y       z     vdW  Elec       q    Type
REMARK                         _______ _______ _______ _____ _____    ______ ____
ROOT
ATOM      1  C   UNL     1      -1.156   4.460  -3.175  0.00  0.00    +0.133 C 
ATOM      2  S   UNL     1       0.554   4.417  -3.262  0.00  0.00    -0.019 S 
ENDROOT
BRANCH   1   3
ATOM      3  N   UNL     1      -1.871   4.939  -4.211  0.00  0.00    -0.324 N 
ATOM      4  H   UNL     1      -2.970   4.966  -4.155  0.00  0.00    +0.148 HD
BRANCH   3   8
ATOM      5  C   UNL     1      -0.456   4.811  -8.382  0.00  0.00    -0.010 C 
ATOM      6  C   UNL     1      -1.458   5.855  -7.872  0.00  0.00    -0.072 C 
ATOM      7  C   UNL     1      -2.138   5.334  -6.608  0.00  0.00    +0.009 C 
ATOM      8  C   UNL     1      -1.186   5.424  -5.416  0.00  0.00    +0.069 C 
ATOM      9  C   UNL     1      -0.793   6.887  -5.216  0.00  0.00    +0.009 C 
ATOM     10  C   UNL     1      -0.096   7.425  -6.463  0.00  0.00    -0.072 C 
ATOM     11  N   UNL     1      -0.822   7.142  -7.683  0.00  0.00    +0.386 N 
ATOM     12  C   UNL     1       1.334   6.874  -6.529  0.00  0.00    -0.010 C 
ATOM     13  C   UNL     1       0.013   8.959  -6.311  0.00  0.00    -0.010 C 
ATOM     14  C   UNL     1      -2.548   6.010  -8.956  0.00  0.00    -0.010 C 
ATOM     15  H   UNL     1      -0.077   7.302  -8.476  0.00  0.00    -0.084 HD
ATOM     16  H   UNL     1      -1.582   7.936  -7.728  0.00  0.00    -0.084 HD
ENDBRANCH   3   8
ENDBRANCH   1   3
BRANCH   1  17
ATOM     17  N   UNL     1      -1.785   4.014  -2.070  0.00  0.00    -0.311 N 
BRANCH  17  18
ATOM     18  C   UNL     1      -1.007   3.493  -0.943  0.00  0.00    +0.122 C 
BRANCH  18  19
ATOM     19  C   UNL     1      -0.798   1.988  -1.120  0.00  0.00    +0.103 C 
BRANCH  19  20
ATOM     20  N   UNL     1      -0.018   1.466   0.010  0.00  0.00    -0.297 NA
ATOM     21  C   UNL     1       1.350   2.006  -0.000  0.00  0.00    +0.112 C 
ATOM     22  C   UNL     1       2.107   1.484   1.224  0.00  0.00    +0.175 C 
ATOM     23  O   UNL     1       2.090   0.054   1.216  0.00  0.00    -0.377 OA
ATOM     24  C   UNL     1       0.773  -0.505   1.226  0.00  0.00    +0.175 C 
ATOM     25  C   UNL     1       0.002  -0.004   0.002  0.00  0.00    +0.112 C 
ENDBRANCH  19  20
ENDBRANCH  18  19
ENDBRANCH  17  18
BRANCH  17  26
ATOM     26  C   UNL     1      -3.248   4.051  -1.995  0.00  0.00    +0.110 C 
BRANCH  26  27
ATOM     27  C   UNL     1      -3.695   5.388  -1.400  0.00  0.00    +0.010 C 
ATOM     28  C   UNL     1      -5.216   5.382  -1.204  0.00  0.00    +0.009 C 
ATOM     29  C   UNL     1      -5.612   6.652  -0.447  0.00  0.00    +0.027 C 
ATOM     30  C   UNL     1      -4.988   7.854  -1.094  0.00  0.00    -0.031 C 
ATOM     31  C   UNL     1      -3.995   7.798  -1.922  0.00  0.00    -0.031 C 
ATOM     32  C   UNL     1      -3.335   6.524  -2.360  0.00  0.00    +0.032 C 
ENDBRANCH  26  27
ENDBRANCH  17  26
ENDBRANCH   1  17
TORSDOF 8
