REMARK  Name = ZINC38924713
REMARK  4 active torsions:
REMARK  status: ('A' for Active; 'I' for Inactive)
REMARK    1  A    between atoms: C_1  and  C_2
REMARK    2  A    between atoms: C_12  and  C_14
REMARK    3  A    between atoms: C_16  and  C_27
REMARK    4  A    between atoms: N_17  and  C_19
REMARK                            x       y       z     vdW  Elec       q    Type
REMARK                         _______ _______ _______ _____ _____    ______ ____
ROOT
ATOM      1  C   UNL     1       0.086  -1.144   7.266  0.00  0.00    +0.148 A 
ATOM      2  C   UNL     1       0.113  -2.014   8.377  0.00  0.00    +0.065 A 
ATOM      3  C   UNL     1       0.111  -1.200   9.478  0.00  0.00    +0.105 A 
ATOM      4  N   UNL     1       0.083   0.085   9.017  0.00  0.00    -0.255 N 
ATOM      5  N   UNL     1       0.074   0.090   7.733  0.00  0.00    -0.166 NA
ENDROOT
BRANCH   1  17
ATOM      6  C   UNL     1      -0.018   1.503   0.010  0.00  0.00    +0.046 C 
ATOM      7  C   UNL     1       0.002  -0.004   0.002  0.00  0.00    -0.024 A 
ATOM      8  C   UNL     1       0.005  -0.675  -1.193  0.00  0.00    +0.005 A 
ATOM      9  C   UNL     1       0.024  -2.061  -1.246  0.00  0.00    +0.001 A 
ATOM     10  C   UNL     1       0.039  -2.784  -0.067  0.00  0.00    +0.017 A 
ATOM     11  C   UNL     1       0.036  -2.121   1.134  0.00  0.00    +0.041 A 
ATOM     12  C   UNL     1       0.023  -0.710   1.227  0.00  0.00    +0.083 A 
ATOM     13  N   UNL     1       0.028  -0.206   2.480  0.00  0.00    -0.224 NA
ATOM     14  C   UNL     1       0.048  -0.969   3.548  0.00  0.00    +0.166 A 
ATOM     15  S   UNL     1       0.051  -2.611   2.842  0.00  0.00    -0.052 S 
ATOM     16  N   UNL     1       0.056  -0.597   4.881  0.00  0.00    -0.259 N 
ATOM     17  C   UNL     1       0.077  -1.540   5.844  0.00  0.00    +0.270 C 
ATOM     18  O   UNL     1       0.090  -2.718   5.541  0.00  0.00    -0.268 OA
ATOM     19  H   UNL     1       0.046   0.342   5.122  0.00  0.00    +0.157 HD
ENDBRANCH   1  17
BRANCH   4  20
ATOM     20  C   UNL     1       0.072   1.281   9.863  0.00  0.00    +0.130 C 
ATOM     21  C   UNL     1      -1.183   2.118   9.561  0.00  0.00    +0.051 C 
ATOM     22  C   UNL     1      -1.048   3.521  10.201  0.00  0.00    +0.168 C 
ATOM     23  S   UNL     1       0.773   3.779  10.229  0.00  0.00    -0.029 S 
ATOM     24  O   UNL     1       1.109   4.801   9.302  0.00  0.00    -0.174 OA
ATOM     25  O   UNL     1       1.203   3.889  11.579  0.00  0.00    -0.174 OA
ATOM     26  C   UNL     1       1.321   2.154   9.555  0.00  0.00    +0.192 C 
ENDBRANCH   4  20
BRANCH   3  27
ATOM     27  C   UNL     1       0.134  -1.628  10.888  0.00  0.00    +0.153 A 
ATOM     28  C   UNL     1       0.263  -2.909  11.332  0.00  0.00    +0.051 A 
ATOM     29  C   UNL     1       0.234  -2.854  12.740  0.00  0.00    +0.042 A 
ATOM     30  C   UNL     1       0.091  -1.559  13.082  0.00  0.00    +0.196 A 
ATOM     31  O   UNL     1       0.036  -0.820  11.961  0.00  0.00    -0.461 OA
ENDBRANCH   3  27
TORSDOF 3
