REMARK  Name = ZINC43740490
REMARK  6 active torsions:
REMARK  status: ('A' for Active; 'I' for Inactive)
REMARK    1  A    between atoms: C_1  and  C_2
REMARK    2  A    between atoms: C_2  and  C_5
REMARK    3  A    between atoms: N_3  and  O_4
REMARK    4  A    between atoms: C_10  and  C_29
REMARK    5  A    between atoms: C_21  and  C_28
REMARK    6  A    between atoms: N_25  and  O_26
REMARK                            x       y       z     vdW  Elec       q    Type
REMARK                         _______ _______ _______ _____ _____    ______ ____
ROOT
ATOM      1  C   UNL     1      -0.040  -0.650  -1.125  0.00  0.00    -0.021 C 
ATOM      2  C   UNL     1       0.017  -0.049  -2.327  0.00  0.00    -0.021 C 
ATOM      3  C   UNL     1       0.037  -1.108  -3.431  0.00  0.00    +0.032 C 
ATOM      4  C   UNL     1       0.666  -2.288  -2.667  0.00  0.00    +0.006 C 
ATOM      5  C   UNL     1      -0.127  -2.143  -1.350  0.00  0.00    -0.002 C 
ATOM      6  C   UNL     1       0.474  -3.027  -0.289  0.00  0.00    +0.012 C 
ATOM      7  C   UNL     1       1.035  -4.311  -0.931  0.00  0.00    +0.005 C 
ATOM      8  C   UNL     1       0.267  -4.682  -2.189  0.00  0.00    -0.001 C 
ATOM      9  C   UNL     1       0.473  -3.658  -3.295  0.00  0.00    -0.003 C 
ATOM     10  C   UNL     1       1.750  -3.933  -4.100  0.00  0.00    +0.004 C 
ATOM     11  C   UNL     1       1.818  -5.375  -4.583  0.00  0.00    +0.005 C 
ATOM     12  C   UNL     1       1.800  -6.303  -3.366  0.00  0.00    +0.001 C 
ATOM     13  C   UNL     1       0.488  -6.129  -2.614  0.00  0.00    -0.025 C 
ATOM     14  C   UNL     1       0.485  -7.024  -1.369  0.00  0.00    +0.013 C 
ATOM     15  C   UNL     1       0.594  -8.497  -1.764  0.00  0.00    +0.055 C 
ATOM     16  C   UNL     1       1.802  -8.677  -2.654  0.00  0.00    +0.058 C 
ATOM     17  N   UNL     1       2.658  -9.601  -2.414  0.00  0.00    -0.097 NA
ATOM     18  C   UNL     1       1.981  -7.749  -3.832  0.00  0.00    +0.058 C 
ATOM     19  C   UNL     1      -0.692  -6.538  -3.507  0.00  0.00    +0.012 C 
ATOM     20  C   UNL     1      -1.616  -2.445  -1.528  0.00  0.00    +0.016 C 
ENDROOT
BRANCH   1  22
ATOM     21  C   UNL     1      -1.352   0.493   0.770  0.00  0.00    +0.069 C 
ATOM     22  C   UNL     1      -0.051   0.013   0.180  0.00  0.00    +0.080 C 
ATOM     23  N   UNL     1       1.057   0.186   0.828  0.00  0.00    -0.092 NA
BRANCH  23  24
ATOM     24  O   UNL     1       2.266  -0.347   0.319  0.00  0.00    -0.409 OA
ATOM     25  H   UNL     1       3.039  -0.166   0.871  0.00  0.00    +0.328 HD
ENDBRANCH  23  24
ENDBRANCH   1  22
BRANCH  17  26
ATOM     26  O   UNL     1       3.785  -9.758  -3.257  0.00  0.00    -0.409 OA
ATOM     27  H   UNL     1       4.372 -10.481  -2.997  0.00  0.00    +0.328 HD
ENDBRANCH  17  26
TORSDOF 3
