REMARK  Name = ZINC06262602
REMARK  9 active torsions:
REMARK  status: ('A' for Active; 'I' for Inactive)
REMARK    1  A    between atoms: C_1  and  C_2
REMARK    2  A    between atoms: C_2  and  C_3
REMARK    3  A    between atoms: C_2  and  C_4
REMARK    4  A    between atoms: C_2  and  C_5
REMARK    5  A    between atoms: C_13  and  C_25
REMARK    6  A    between atoms: C_15  and  C_21
REMARK    7  A    between atoms: C_15  and  C_23
REMARK    8  A    between atoms: C_16  and  N_20
REMARK    9  A    between atoms: C_17  and  C_18
REMARK                            x       y       z     vdW  Elec       q    Type
REMARK                         _______ _______ _______ _____ _____    ______ ____
ROOT
ATOM      1  C   UNL     1       1.755  -1.145  -1.926  0.00  0.00    -0.001 C 
ATOM      2  C   UNL     1       2.049  -2.640  -1.734  0.00  0.00    +0.031 C 
ATOM      3  C   UNL     1       2.302  -2.871  -0.267  0.00  0.00    -0.021 C 
ATOM      4  C   UNL     1       2.872  -1.943   0.477  0.00  0.00    -0.029 C 
ATOM      5  C   UNL     1       3.361  -0.629  -0.057  0.00  0.00    +0.027 C 
ATOM      6  C   UNL     1       2.987  -0.353  -1.494  0.00  0.00    +0.013 C 
ATOM      7  C   UNL     1       2.887   0.478   0.886  0.00  0.00    +0.043 C 
ATOM      8  C   UNL     1       3.529   0.267   2.258  0.00  0.00    +0.185 C 
ATOM      9  C   UNL     1       3.347  -1.138   2.746  0.00  0.00    +0.054 C 
ATOM     10  C   UNL     1       3.053  -2.184   1.932  0.00  0.00    +0.074 C 
ENDROOT
BRANCH   7  11
ATOM     11  C   UNL     1       3.303   1.840   0.326  0.00  0.00    +0.018 C 
ATOM     12  C   UNL     1       4.696   1.729  -0.296  0.00  0.00    +0.008 C 
ATOM     13  C   UNL     1       5.200   3.143  -0.614  0.00  0.00    +0.005 C 
ATOM     14  C   UNL     1       5.436   3.880   0.706  0.00  0.00    +0.027 C 
ATOM     15  C   UNL     1       4.237   3.741   1.598  0.00  0.00    -0.031 C 
ATOM     16  C   UNL     1       3.314   2.851   1.436  0.00  0.00    -0.027 C 
ENDBRANCH   7  11
BRANCH   1  18
ATOM     17  C   UNL     1       0.474   0.785  -0.991  0.00  0.00    +0.011 C 
ATOM     18  C   UNL     1       0.555  -0.741  -1.068  0.00  0.00    -0.035 C 
ATOM     19  C   UNL     1       0.720  -1.314   0.341  0.00  0.00    +0.011 C 
ATOM     20  C   UNL     1      -0.728  -1.289  -1.694  0.00  0.00    +0.011 C 
ENDBRANCH   1  18
BRANCH   9  21
ATOM     21  N   UNL     1       3.484  -1.380   4.084  0.00  0.00    -0.358 N 
ATOM     22  H   UNL     1       3.694  -0.651   4.689  0.00  0.00    +0.142 HD
ATOM     23  H   UNL     1       3.372  -2.280   4.428  0.00  0.00    +0.142 HD
ENDBRANCH   9  21
BRANCH  10  24
ATOM     24  C   UNL     1       2.918  -3.504   2.470  0.00  0.00    +0.101 C 
ATOM     25  N   UNL     1       2.811  -4.551   2.897  0.00  0.00    -0.191 NA
ENDBRANCH  10  24
BRANCH   8  26
ATOM     26  C   UNL     1       2.913   1.194   3.222  0.00  0.00    +0.091 C 
ATOM     27  N   UNL     1       2.439   1.909   3.967  0.00  0.00    -0.195 NA
ENDBRANCH   8  26
BRANCH   8  28
ATOM     28  C   UNL     1       4.968   0.560   2.165  0.00  0.00    +0.091 C 
ATOM     29  N   UNL     1       6.079   0.787   2.093  0.00  0.00    -0.195 NA
ENDBRANCH   8  28
TORSDOF 6
