REMARK  Name = ZINC05104810
REMARK  10 active torsions:
REMARK  status: ('A' for Active; 'I' for Inactive)
REMARK    1  A    between atoms: C_1  and  C_2
REMARK    2  A    between atoms: C_2  and  C_3
REMARK    3  A    between atoms: C_3  and  CA_4
REMARK    4  A    between atoms: CA_4  and  C_6
REMARK    5  A    between atoms: CA_4  and  N_8
REMARK    6  A    between atoms: C_9  and  CA_11
REMARK    7  A    between atoms: CA_11  and  N_20
REMARK    8  A    between atoms: C_12  and  C_13
REMARK    9  A    between atoms: C_21  and  C_23
REMARK   10  A    between atoms: C_26  and  C_29
REMARK                            x       y       z     vdW  Elec       q    Type
REMARK                         _______ _______ _______ _____ _____    ______ ____
ROOT
ATOM      1  CA  UNL     1       2.285  -4.307  -0.446  0.00  0.00    +0.097 C 
ATOM      2  C   UNL     1       1.289  -5.187  -0.699  0.00  0.00    +0.036 C 
ENDROOT
BRANCH   2   3
ATOM      3  C   UNL     1       1.569  -6.631  -0.708  0.00  0.00    -0.023 A 
ATOM      4  C   UNL     1       2.808  -7.105  -1.150  0.00  0.00    +0.009 A 
ATOM      5  C   UNL     1       3.065  -8.459  -1.149  0.00  0.00    +0.020 A 
ATOM      6  C   UNL     1       2.095  -9.351  -0.723  0.00  0.00    +0.041 A 
ATOM      7  C   UNL     1       0.863  -8.890  -0.288  0.00  0.00    +0.020 A 
ATOM      8  C   UNL     1       0.594  -7.538  -0.278  0.00  0.00    +0.009 A 
ATOM      9 CL   UNL     1       2.425 -11.056  -0.732  0.00  0.00    -0.084 Cl
ENDBRANCH   2   3
BRANCH   1  11
ATOM     10  N   UNL     1       3.788  -5.258   1.226  0.00  0.00    -0.297 N 
ATOM     11  C   UNL     1       3.607  -4.793  -0.027  0.00  0.00    +0.259 C 
ATOM     12  O   UNL     1       4.538  -4.777  -0.810  0.00  0.00    -0.269 OA
ATOM     13  H   UNL     1       3.031  -5.341   1.826  0.00  0.00    +0.150 HD
BRANCH  10  14
ATOM     14  CA  UNL     1       5.129  -5.637   1.679  0.00  0.00    +0.186 C 
BRANCH  14  15
ATOM     15  C   UNL     1       5.805  -4.443   2.301  0.00  0.00    +0.376 C 
ATOM     16  O   UNL     1       5.227  -3.383   2.360  0.00  0.00    -0.244 OA
ATOM     17  OXT UNL     1       7.050  -4.556   2.791  0.00  0.00    -0.244 OA
ENDBRANCH  14  15
BRANCH  14  18
ATOM     18  C   UNL     1       5.018  -6.758   2.715  0.00  0.00    +0.033 C 
BRANCH  18  20
ATOM     19  C   UNL     1       4.284  -9.114   3.100  0.00  0.00    +0.004 C 
ATOM     20  C   UNL     1       4.394  -7.994   2.065  0.00  0.00    -0.001 C 
ENDBRANCH  18  20
ENDBRANCH  14  18
ENDBRANCH  10  14
ENDBRANCH   1  11
BRANCH   1  21
ATOM     21  N   UNL     1       2.056  -2.934  -0.583  0.00  0.00    -0.277 N 
ATOM     22  C   UNL     1       3.073  -2.063  -0.429  0.00  0.00    +0.248 C 
ATOM     23  O   UNL     1       4.166  -2.461  -0.075  0.00  0.00    -0.270 OA
ATOM     24  H   UNL     1       1.166  -2.609  -0.790  0.00  0.00    +0.155 HD
BRANCH  22  25
ATOM     25  C   UNL     1       2.859  -0.624  -0.690  0.00  0.00    +0.037 A 
ATOM     26  C   UNL     1       3.910   0.281  -0.531  0.00  0.00    +0.013 A 
ATOM     27  C   UNL     1       3.703   1.623  -0.776  0.00  0.00    +0.004 A 
ATOM     28  C   UNL     1       2.458   2.072  -1.179  0.00  0.00    -0.050 A 
ATOM     29  C   UNL     1       1.413   1.180  -1.339  0.00  0.00    +0.004 A 
ATOM     30  C   UNL     1       1.605  -0.164  -1.097  0.00  0.00    +0.013 A 
ATOM     31  C   UNL     1       2.240   3.539  -1.446  0.00  0.00    +0.044 C 
ENDBRANCH  22  25
ENDBRANCH   1  21
TORSDOF 8
