REMARK  Name = ZINC12561649
REMARK  9 active torsions:
REMARK  status: ('A' for Active; 'I' for Inactive)
REMARK    1  A    between atoms: C_1  and  N_57
REMARK    2  A    between atoms: C_2  and  C_3
REMARK    3  A    between atoms: C_2  and  N_57
REMARK    4  A    between atoms: C_8  and  N_9
REMARK    5  A    between atoms: C_15  and  C_16
REMARK    6  A    between atoms: C_15  and  N_57
REMARK    7  A    between atoms: N_18  and  C_19
REMARK    8  A    between atoms: C_22  and  S_26
REMARK    9  A    between atoms: S_26  and  N_29
REMARK                            x       y       z     vdW  Elec       q    Type
REMARK                         _______ _______ _______ _____ _____    ______ ____
ROOT
ATOM      1  C   UNL     1       2.225   5.409  -0.050  0.00  0.00    +0.201 C 
ATOM      2  O   UNL     1       1.213   6.060  -0.199  0.00  0.00    -0.278 OA
ATOM      3  N   UNL     1       2.148   4.130   0.370  0.00  0.00    -0.285 N 
ATOM      4  H   UNL     1       2.959   3.627   0.543  0.00  0.00    +0.155 HD
ENDROOT
BRANCH   3   5
ATOM      5  C   UNL     1       0.897   3.529   0.558  0.00  0.00    +0.070 A 
ATOM      6  C   UNL     1      -0.123   3.742  -0.361  0.00  0.00    +0.065 A 
ATOM      7  C   UNL     1      -1.356   3.147  -0.172  0.00  0.00    +0.050 A 
ATOM      8  C   UNL     1      -1.577   2.345   0.933  0.00  0.00    +0.108 A 
ATOM      9  C   UNL     1      -0.562   2.127   1.847  0.00  0.00    +0.050 A 
ATOM     10  C   UNL     1       0.673   2.719   1.665  0.00  0.00    +0.065 A 
ATOM     11 CL   UNL     1       1.944   2.450   2.816  0.00  0.00    -0.082 Cl
ATOM     12 CL   UNL     1       0.152   4.753  -1.745  0.00  0.00    -0.082 Cl
BRANCH   8  13
ATOM     13  S   UNL     1      -3.153   1.595   1.173  0.00  0.00    +0.056 S 
ATOM     14  O   UNL     1      -3.271   1.335   2.565  0.00  0.00    -0.153 OA
ATOM     15  O   UNL     1      -4.094   2.390   0.464  0.00  0.00    -0.153 OA
BRANCH  13  16
ATOM     16  N   UNL     1      -3.114   0.121   0.418  0.00  0.00    -0.204 NA
ATOM     17  H   UNL     1      -3.650  -0.612   0.758  0.00  0.00    +0.144 HD
ATOM     18  H   UNL     1      -2.555  -0.008  -0.364  0.00  0.00    +0.144 HD
ENDBRANCH  13  16
ENDBRANCH   8  13
ENDBRANCH   3   5
BRANCH   1  19
ATOM     19  C   UNL     1       3.569   6.028  -0.335  0.00  0.00    +0.019 C 
BRANCH  19  21
ATOM     20  C   UNL     1       2.840   8.246   0.309  0.00  0.00    -0.095 C 
ATOM     21  N   UNL     1       3.365   7.417  -0.797  0.00  0.00    +0.386 N 
ATOM     22  H   UNL     1       2.684   7.417  -1.565  0.00  0.00    -0.081 HD
BRANCH  21  23
ATOM     23  C   UNL     1       4.641   7.979  -1.287  0.00  0.00    -0.041 C 
BRANCH  23  24
ATOM     24  C   UNL     1       4.348   9.230  -2.076  0.00  0.00    -0.043 A 
ATOM     25  C   UNL     1       4.556  10.471  -1.506  0.00  0.00    +0.003 A 
ATOM     26  C   UNL     1       4.292  11.619  -2.230  0.00  0.00    +0.000 A 
ATOM     27  C   UNL     1       3.810  11.529  -3.523  0.00  0.00    +0.002 A 
ATOM     28  C   UNL     1       3.595  10.292  -4.097  0.00  0.00    +0.023 A 
ATOM     29  C   UNL     1       3.864   9.136  -3.374  0.00  0.00    +0.031 A 
BRANCH  29  30
ATOM     30  N   UNL     1       3.648   7.883  -3.951  0.00  0.00    -0.330 N 
ATOM     31  C   UNL     1       4.603   7.632  -5.039  0.00  0.00    +0.105 C 
ATOM     32  C   UNL     1       4.433   6.200  -5.549  0.00  0.00    +0.019 C 
ATOM     33  C   UNL     1       2.998   6.009  -6.050  0.00  0.00    +0.003 C 
ATOM     34  C   UNL     1       2.022   6.323  -4.913  0.00  0.00    +0.019 C 
ATOM     35  C   UNL     1       2.263   7.752  -4.421  0.00  0.00    +0.105 C 
ENDBRANCH  29  30
ENDBRANCH  23  24
ENDBRANCH  21  23
ENDBRANCH  19  21
ENDBRANCH   1  19
TORSDOF 8
