REMARK  Name = ZINC43147405
REMARK  8 active torsions:
REMARK  status: ('A' for Active; 'I' for Inactive)
REMARK    1  A    between atoms: C_1  and  C_2
REMARK    2  A    between atoms: C_9  and  C_11
REMARK    3  A    between atoms: N_13  and  N_14
REMARK    4  A    between atoms: N_17  and  C_18
REMARK    5  A    between atoms: C_18  and  C_19
REMARK    6  A    between atoms: C_19  and  N_24
REMARK    7  A    between atoms: N_24  and  C_25
REMARK    8  A    between atoms: N_24  and  C_26
REMARK                            x       y       z     vdW  Elec       q    Type
REMARK                         _______ _______ _______ _____ _____    ______ ____
ROOT
ATOM      1  N   UNL     1       2.593  -7.800   2.975  0.00  0.00    -0.218 N 
ATOM      2  C   UNL     1       2.058  -9.037   2.929  0.00  0.00    +0.316 C 
ATOM      3  O   UNL     1       2.568  -9.943   3.560  0.00  0.00    -0.251 OA
ATOM      4  N   UNL     1       0.959  -9.268   2.184  0.00  0.00    -0.300 N 
ATOM      5  H   UNL     1       3.384  -7.633   3.511  0.00  0.00    +0.174 HD
ATOM      6  H   UNL     1       0.553  -8.546   1.681  0.00  0.00    +0.150 HD
ENDROOT
BRANCH   1   9
ATOM      7  C   UNL     1       2.540  -5.519   2.294  0.00  0.00    +0.267 C 
ATOM      8  O   UNL     1       3.533  -5.310   2.967  0.00  0.00    -0.268 OA
ATOM      9  N   UNL     1       2.006  -6.756   2.248  0.00  0.00    -0.229 N 
ATOM     10  H   UNL     1       1.215  -6.923   1.712  0.00  0.00    +0.173 HD
BRANCH   7  18
ATOM     11  C   UNL     1       1.277   1.219  -0.912  0.00  0.00    +0.008 C 
ATOM     12  C   UNL     1       1.127  -0.300  -0.805  0.00  0.00    -0.009 C 
ATOM     13  C   UNL     1      -0.360  -0.660  -0.727  0.00  0.00    +0.009 C 
ATOM     14  C   UNL     1      -0.509  -2.178  -0.894  0.00  0.00    +0.043 C 
ATOM     15  C   UNL     1       0.471  -2.855   0.018  0.00  0.00    -0.006 A 
ATOM     16  C   UNL     1       1.538  -2.277   0.642  0.00  0.00    -0.036 A 
ATOM     17  C   UNL     1       2.312  -3.102   1.445  0.00  0.00    +0.024 A 
ATOM     18  C   UNL     1       1.926  -4.427   1.534  0.00  0.00    +0.076 A 
ATOM     19  S   UNL     1       0.487  -4.459   0.481  0.00  0.00    -0.088 S 
ATOM     20  C   UNL     1       1.845  -0.795   0.450  0.00  0.00    +0.039 C 
ENDBRANCH   7  18
ENDBRANCH   1   9
BRANCH   4  21
ATOM     21  C   UNL     1       0.379 -10.612   2.134  0.00  0.00    +0.094 C 
BRANCH  21  22
ATOM     22  C   UNL     1      -0.914 -10.579   1.316  0.00  0.00    -0.050 C 
ATOM     23  C   UNL     1      -1.962  -9.691   2.019  0.00  0.00    -0.010 C 
ATOM     24  C   UNL     1      -3.306 -10.418   1.767  0.00  0.00    -0.001 C 
ATOM     25  C   UNL     1      -2.915 -11.912   1.886  0.00  0.00    -0.001 C 
ATOM     26  C   UNL     1      -1.520 -11.991   1.231  0.00  0.00    -0.010 C 
BRANCH  22  27
ATOM     27  N   UNL     1      -0.642 -10.066  -0.033  0.00  0.00    +0.381 N 
ATOM     28  C   UNL     1       0.300 -10.962  -0.717  0.00  0.00    -0.096 C 
ATOM     29  C   UNL     1      -1.897 -10.003  -0.795  0.00  0.00    -0.096 C 
ATOM     30  H   UNL     1      -0.241  -9.143   0.032  0.00  0.00    -0.082 HD
ENDBRANCH  22  27
ENDBRANCH  21  22
ENDBRANCH   4  21
TORSDOF 5
