REMARK  Name = ZINC01430517
REMARK  7 active torsions:
REMARK  status: ('A' for Active; 'I' for Inactive)
REMARK    1  A    between atoms: C_1  and  O_2
REMARK    2  A    between atoms: O_2  and  C_3
REMARK    3  A    between atoms: C_6  and  C_11
REMARK    4  A    between atoms: C_8  and  O_9
REMARK    5  A    between atoms: O_9  and  C_10
REMARK    6  A    between atoms: C_25  and  N_29
REMARK    7  A    between atoms: C_26  and  C_27
REMARK                            x       y       z     vdW  Elec       q    Type
REMARK                         _______ _______ _______ _____ _____    ______ ____
ROOT
ATOM      1  C   UNL     1      -1.141  -2.195   0.014  0.00  0.00    +0.102 C 
ATOM      2  C   UNL     1       0.187  -2.702   0.542  0.00  0.00    +0.062 A 
ATOM      3  C   UNL     1       1.284  -1.914   0.513  0.00  0.00    +0.147 A 
ATOM      4  C   UNL     1       2.642  -2.224   0.981  0.00  0.00    +0.032 A 
ATOM      5  C   UNL     1       3.645  -1.244   0.856  0.00  0.00    +0.012 A 
ATOM      6  C   UNL     1       4.913  -1.508   1.282  0.00  0.00    +0.001 A 
ATOM      7  C   UNL     1       5.251  -2.731   1.844  0.00  0.00    +0.001 A 
ATOM      8  C   UNL     1       4.289  -3.715   1.982  0.00  0.00    +0.016 A 
ATOM      9  C   UNL     1       3.005  -3.455   1.553  0.00  0.00    +0.026 A 
ATOM     10  S   UNL     1       1.698  -4.648   1.685  0.00  0.00    -0.047 S 
ATOM     11  C   UNL     1       0.152  -4.030   1.050  0.00  0.00    +0.225 A 
ATOM     12  O   UNL     1      -0.868  -4.701   1.051  0.00  0.00    -0.280 OA
ATOM     13  O   UNL     1       1.173  -0.653  -0.013  0.00  0.00    -0.440 OA
ATOM     14  C   UNL     1       0.002  -0.004   0.002  0.00  0.00    +0.199 C 
ATOM     15  C   UNL     1      -1.167  -0.694   0.015  0.00  0.00    +0.098 C 
ENDROOT
BRANCH   1  19
ATOM     16  C   UNL     1      -1.706  -3.622  -3.977  0.00  0.00    +0.162 A 
ATOM     17  C   UNL     1      -0.615  -2.824  -3.672  0.00  0.00    +0.050 A 
ATOM     18  C   UNL     1      -0.438  -2.360  -2.382  0.00  0.00    +0.008 A 
ATOM     19  C   UNL     1      -1.342  -2.699  -1.392  0.00  0.00    -0.031 A 
ATOM     20  C   UNL     1      -2.432  -3.494  -1.690  0.00  0.00    +0.054 A 
ATOM     21  C   UNL     1      -2.619  -3.958  -2.982  0.00  0.00    +0.162 A 
BRANCH  16  23
ATOM     22  C   UNL     1      -0.908  -3.690  -6.217  0.00  0.00    +0.277 C 
ATOM     23  O   UNL     1      -1.885  -4.075  -5.247  0.00  0.00    -0.491 OA
ENDBRANCH  16  23
BRANCH  21  24
ATOM     24  O   UNL     1      -3.691  -4.741  -3.277  0.00  0.00    -0.491 OA
ATOM     25  C   UNL     1      -4.587  -5.045  -2.206  0.00  0.00    +0.277 C 
ENDBRANCH  21  24
ENDBRANCH   1  19
BRANCH  14  26
ATOM     26  N   UNL     1      -0.017   1.368   0.010  0.00  0.00    -0.328 N 
ATOM     27  H   UNL     1       0.817   1.865   0.004  0.00  0.00    +0.145 HD
ATOM     28  H   UNL     1      -0.863   1.842   0.016  0.00  0.00    +0.145 HD
ENDBRANCH  14  26
BRANCH  15  29
ATOM     29  C   UNL     1      -2.416   0.005   0.025  0.00  0.00    +0.101 C 
ATOM     30  N   UNL     1      -3.408   0.560   0.034  0.00  0.00    -0.191 NA
ENDBRANCH  15  29
TORSDOF 5
