REMARK  Name = ZINC22608677
REMARK  2 active torsions:
REMARK  status: ('A' for Active; 'I' for Inactive)
REMARK    1  A    between atoms: C_3  and  C_6
REMARK    2  A    between atoms: C_11  and  C_19
REMARK                            x       y       z     vdW  Elec       q    Type
REMARK                         _______ _______ _______ _____ _____    ______ ____
ROOT
ATOM      1  C   UNL     1       3.599   0.625  -0.029  0.00  0.00    +0.068 C 
ATOM      2  C   UNL     1       4.085  -0.112  -1.279  0.00  0.00    +0.063 C 
ATOM      3  C   UNL     1       5.594  -0.185  -1.271  0.00  0.00    +0.020 C 
ATOM      4  C   UNL     1       6.280  -0.241  -0.110  0.00  0.00    +0.041 C 
ATOM      5  C   UNL     1       7.790  -0.313  -0.070  0.00  0.00    +0.175 C 
ATOM      6  N   UNL     1       8.309  -0.639  -1.392  0.00  0.00    -0.221 N 
ATOM      7  C   UNL     1       7.563  -0.576  -2.523  0.00  0.00    +0.218 A 
ATOM      8  N   UNL     1       8.322  -0.921  -3.527  0.00  0.00    -0.201 NA
ATOM      9  C   UNL     1       9.547  -1.214  -3.080  0.00  0.00    +0.247 A 
ATOM     10  N   UNL     1       9.581  -1.056  -1.780  0.00  0.00    -0.156 NA
ATOM     11  N   UNL     1       6.230  -0.200  -2.490  0.00  0.00    -0.287 N 
ATOM     12  C   UNL     1       5.608  -0.229   1.126  0.00  0.00    +0.164 C 
ATOM     13  O   UNL     1       6.253  -0.303   2.154  0.00  0.00    -0.292 OA
ATOM     14  C   UNL     1       4.110  -0.126   1.204  0.00  0.00    +0.091 C 
ATOM     15  H   UNL     1       5.759   0.045  -3.301  0.00  0.00    +0.155 HD
ENDROOT
BRANCH   5  16
ATOM     16  C   UNL     1       8.343   1.020   0.366  0.00  0.00    -0.017 A 
ATOM     17  C   UNL     1       8.076   2.155  -0.376  0.00  0.00    +0.007 A 
ATOM     18  C   UNL     1       8.583   3.377   0.023  0.00  0.00    +0.022 A 
ATOM     19  C   UNL     1       9.358   3.465   1.166  0.00  0.00    +0.059 A 
ATOM     20  C   UNL     1       9.625   2.328   1.909  0.00  0.00    +0.060 A 
ATOM     21  C   UNL     1       9.113   1.106   1.511  0.00  0.00    +0.027 A 
ATOM     22 CL   UNL     1      10.598   2.437   3.343  0.00  0.00    -0.082 Cl
ATOM     23 CL   UNL     1       9.995   5.000   1.667  0.00  0.00    -0.082 Cl
ENDBRANCH   5  16
BRANCH   1  26
ATOM     24  C   UNL     1      -0.016   1.341   0.009  0.00  0.00    +0.041 A 
ATOM     25  C   UNL     1       1.331   1.769  -0.001  0.00  0.00    +0.045 A 
ATOM     26  C   UNL     1       2.092   0.660  -0.014  0.00  0.00    +0.109 A 
ATOM     27  O   UNL     1       1.282  -0.411  -0.012  0.00  0.00    -0.468 OA
ATOM     28  C   UNL     1       0.002  -0.004   0.002  0.00  0.00    +0.195 A 
ENDBRANCH   1  26
TORSDOF 2
