REMARK  Name = ZINC39866392
REMARK  6 active torsions:
REMARK  status: ('A' for Active; 'I' for Inactive)
REMARK    1  A    between atoms: C_1  and  C_2
REMARK    2  A    between atoms: C_5  and  N_7
REMARK    3  A    between atoms: N_9  and  C_23
REMARK    4  A    between atoms: C_13  and  C_14
REMARK    5  A    between atoms: C_17  and  O_21
REMARK    6  A    between atoms: C_18  and  O_20
REMARK                            x       y       z     vdW  Elec       q    Type
REMARK                         _______ _______ _______ _____ _____    ______ ____
ROOT
ATOM      1  N   UNL     1      -2.697  -4.501  -0.737  0.00  0.00    -0.198 NA
ATOM      2  C   UNL     1      -1.814  -5.350  -1.219  0.00  0.00    +0.175 C 
ATOM      3  N   UNL     1      -1.048  -5.235  -2.360  0.00  0.00    -0.214 N 
ATOM      4  C   UNL     1      -0.200  -6.192  -2.701  0.00  0.00    +0.263 C 
ATOM      5  O   UNL     1       0.484  -6.107  -3.704  0.00  0.00    -0.269 OA
ATOM      6  C   UNL     1      -0.121  -7.365  -1.811  0.00  0.00    +0.078 C 
ATOM      7  C   UNL     1       0.651  -8.476  -1.917  0.00  0.00    +0.028 C 
ATOM      8  S   UNL     1      -1.311  -6.927  -0.550  0.00  0.00    -0.048 S 
ENDROOT
BRANCH   1  13
ATOM      9  C   UNL     1      -2.745   0.700  -2.529  0.00  0.00    +0.075 C 
ATOM     10  C   UNL     1      -2.875  -0.761  -2.183  0.00  0.00    +0.101 A 
ATOM     11  N   UNL     1      -3.642  -1.692  -2.715  0.00  0.00    -0.145 NA
ATOM     12  N   UNL     1      -3.634  -2.885  -2.308  0.00  0.00    -0.121 NA
ATOM     13  C   UNL     1      -2.844  -3.276  -1.308  0.00  0.00    +0.217 A 
ATOM     14  S   UNL     1      -2.025  -1.727  -0.938  0.00  0.00    -0.031 S 
ENDBRANCH   1  13
BRANCH   7  15
ATOM     15  C   UNL     1       0.463  -9.593  -0.983  0.00  0.00    -0.020 A 
ATOM     16  C   UNL     1      -0.612  -9.585  -0.085  0.00  0.00    +0.012 A 
ATOM     17  C   UNL     1      -0.785 -10.634   0.790  0.00  0.00    +0.050 A 
ATOM     18  C   UNL     1       0.103 -11.701   0.786  0.00  0.00    +0.158 A 
ATOM     19  C   UNL     1       1.176 -11.717  -0.104  0.00  0.00    +0.159 A 
ATOM     20  C   UNL     1       1.355 -10.673  -0.990  0.00  0.00    +0.057 A 
BRANCH  19  21
ATOM     21  O   UNL     1       2.044 -12.764  -0.104  0.00  0.00    -0.503 OA
ATOM     22  H   UNL     1       1.794 -13.483  -0.701  0.00  0.00    +0.292 HD
ENDBRANCH  19  21
BRANCH  18  23
ATOM     23  O   UNL     1      -0.073 -12.733   1.652  0.00  0.00    -0.503 OA
ATOM     24  H   UNL     1      -0.626 -13.447   1.306  0.00  0.00    +0.292 HD
ENDBRANCH  18  23
ENDBRANCH   7  15
BRANCH   3  25
ATOM     25  C   UNL     1      -1.168  -4.096  -3.165  0.00  0.00    +0.043 A 
ATOM     26  C   UNL     1      -0.345  -2.999  -2.946  0.00  0.00    +0.024 A 
ATOM     27  C   UNL     1      -0.467  -1.877  -3.742  0.00  0.00    +0.002 A 
ATOM     28  C   UNL     1      -1.407  -1.844  -4.755  0.00  0.00    +0.000 A 
ATOM     29  C   UNL     1      -2.229  -2.934  -4.975  0.00  0.00    +0.002 A 
ATOM     30  C   UNL     1      -2.108  -4.062  -4.187  0.00  0.00    +0.024 A 
ENDBRANCH   3  25
TORSDOF 5
