REMARK  Name = ZINC55433531
REMARK  4 active torsions:
REMARK  status: ('A' for Active; 'I' for Inactive)
REMARK    1  A    between atoms: C_1  and  N_2
REMARK    2  A    between atoms: N_6  and  N_7
REMARK    3  A    between atoms: C_8  and  C_10
REMARK    4  A    between atoms: N_12  and  C_13
REMARK                            x       y       z     vdW  Elec       q    Type
REMARK                         _______ _______ _______ _____ _____    ______ ____
ROOT
ATOM      1  N   UNL     1       2.522  -3.940   1.077  0.00  0.00    -0.199 N 
ATOM      2  C   UNL     1       3.296  -5.042   1.025  0.00  0.00    +0.318 C 
ATOM      3  O   UNL     1       3.488  -5.599  -0.037  0.00  0.00    -0.263 OA
ATOM      4  H   UNL     1       2.368  -3.495   1.925  0.00  0.00    +0.178 HD
ENDROOT
BRANCH   1  10
ATOM      5  C   UNL     1       0.867   1.864  -0.198  0.00  0.00    +0.104 C 
ATOM      6  N   UNL     1       0.709   0.406  -0.113  0.00  0.00    -0.305 NA
ATOM      7  C   UNL     1       1.130  -0.243  -1.361  0.00  0.00    +0.090 C 
ATOM      8  C   UNL     1       0.727  -1.722  -1.328  0.00  0.00    +0.068 C 
ATOM      9  C   UNL     1       1.285  -2.337  -0.061  0.00  0.00    +0.039 C 
ATOM     10  N   UNL     1       1.938  -3.438  -0.093  0.00  0.00    -0.189 NA
ATOM     11  C   UNL     1       1.046  -1.606   1.243  0.00  0.00    +0.068 C 
ATOM     12  C   UNL     1       1.429  -0.135   1.046  0.00  0.00    +0.090 C 
ENDBRANCH   1  10
BRANCH   2  13
ATOM     13  C   UNL     1       3.918  -5.576   2.271  0.00  0.00    +0.305 C 
ATOM     14  O   UNL     1       3.726  -5.019   3.333  0.00  0.00    -0.265 OA
ATOM     15  N   UNL     1       4.693  -6.678   2.219  0.00  0.00    -0.278 N 
ATOM     16  H   UNL     1       4.907  -7.080   1.362  0.00  0.00    +0.155 HD
BRANCH  15  17
ATOM     17  C   UNL     1       5.188  -7.241   3.398  0.00  0.00    +0.035 A 
ATOM     18  C   UNL     1       6.435  -7.853   3.408  0.00  0.00    +0.025 A 
ATOM     19  C   UNL     1       6.922  -8.409   4.574  0.00  0.00    +0.023 A 
ATOM     20  C   UNL     1       6.168  -8.357   5.734  0.00  0.00    +0.059 A 
ATOM     21  C   UNL     1       4.925  -7.748   5.728  0.00  0.00    +0.061 A 
ATOM     22  C   UNL     1       4.435  -7.185   4.565  0.00  0.00    +0.044 A 
ATOM     23 CL   UNL     1       3.982  -7.686   7.185  0.00  0.00    -0.082 Cl
ATOM     24 CL   UNL     1       6.783  -9.058   7.198  0.00  0.00    -0.082 Cl
ENDBRANCH  15  17
ENDBRANCH   2  13
TORSDOF 3
