REMARK  Name = ZINC23379423
REMARK  6 active torsions:
REMARK  status: ('A' for Active; 'I' for Inactive)
REMARK    1  A    between atoms: C_4  and  C_10
REMARK    2  A    between atoms: C_6  and  N_7
REMARK    3  A    between atoms: C_19  and  C_27
REMARK    4  A    between atoms: C_20  and  N_26
REMARK    5  A    between atoms: C_21  and  C_22
REMARK    6  A    between atoms: C_21  and  C_24
REMARK                            x       y       z     vdW  Elec       q    Type
REMARK                         _______ _______ _______ _____ _____    ______ ____
ROOT
ATOM      1  C   UNL     1       2.447   4.336   0.002  0.00  0.00    +0.068 C 
ATOM      2  C   UNL     1       3.219   4.055   1.292  0.00  0.00    +0.030 C 
ATOM      3  C   UNL     1       2.355   4.216   2.519  0.00  0.00    +0.009 C 
ATOM      4  C   UNL     1       2.591   5.556   3.213  0.00  0.00    +0.005 C 
ATOM      5  C   UNL     1       4.075   5.648   3.595  0.00  0.00    +0.027 C 
ATOM      6  C   UNL     1       4.879   5.596   2.321  0.00  0.00    -0.022 C 
ATOM      7  C   UNL     1       4.464   4.892   1.287  0.00  0.00    -0.029 C 
ATOM      8  C   UNL     1       5.253   4.911   0.028  0.00  0.00    +0.074 C 
ATOM      9  C   UNL     1       4.687   4.452  -1.117  0.00  0.00    +0.054 C 
ATOM     10  C   UNL     1       3.298   3.894  -1.190  0.00  0.00    +0.188 C 
ENDROOT
BRANCH   1  14
ATOM     11  C   UNL     1      -1.224   2.149   0.020  0.00  0.00    +0.034 A 
ATOM     12  C   UNL     1      -1.231   3.508  -0.233  0.00  0.00    +0.022 A 
ATOM     13  C   UNL     1      -0.043   4.216  -0.241  0.00  0.00    +0.045 A 
ATOM     14  C   UNL     1       1.152   3.565   0.010  0.00  0.00    -0.020 A 
ATOM     15  C   UNL     1       1.157   2.207   0.268  0.00  0.00    +0.038 A 
ATOM     16  C   UNL     1      -0.031   1.500   0.276  0.00  0.00    +0.127 A 
ATOM     17 CL   UNL     1      -0.051   5.922  -0.565  0.00  0.00    -0.083 Cl
BRANCH  16  18
ATOM     18  N   UNL     1      -0.024   0.046   0.552  0.00  0.00    +0.056 N 
ATOM     19  O   UNL     1       1.028  -0.527   0.773  0.00  0.00    -0.126 OA
ATOM     20  O   UNL     1      -1.070  -0.577   0.559  0.00  0.00    -0.126 OA
ENDBRANCH  16  18
ENDBRANCH   1  14
BRANCH   9  21
ATOM     21  N   UNL     1       5.424   4.502  -2.267  0.00  0.00    -0.358 N 
ATOM     22  H   UNL     1       4.994   4.138  -3.212  0.00  0.00    +0.142 HD
ATOM     23  H   UNL     1       6.447   4.906  -2.248  0.00  0.00    +0.142 HD
ENDBRANCH   9  21
BRANCH  10  24
ATOM     24  C   UNL     1       3.372   2.424  -1.208  0.00  0.00    +0.091 C 
ATOM     25  N   UNL     1       3.429   1.289  -1.222  0.00  0.00    -0.194 NA
ENDBRANCH  10  24
BRANCH  10  26
ATOM     26  C   UNL     1       2.661   4.357  -2.433  0.00  0.00    +0.091 C 
ATOM     27  N   UNL     1       2.169   4.715  -3.393  0.00  0.00    -0.194 NA
ENDBRANCH  10  26
BRANCH   8  28
ATOM     28  C   UNL     1       6.596   5.409   0.022  0.00  0.00    +0.101 C 
ATOM     29  N   UNL     1       7.662   5.803   0.018  0.00  0.00    -0.191 NA
ENDBRANCH   8  28
TORSDOF 6
