REMARK  Name = ZINC39323813
REMARK  4 active torsions:
REMARK  status: ('A' for Active; 'I' for Inactive)
REMARK    1  A    between atoms: C_1  and  C_2
REMARK    2  A    between atoms: C_10  and  N_28
REMARK    3  A    between atoms: C_11  and  C_15
REMARK    4  A    between atoms: N_17  and  C_18
REMARK                            x       y       z     vdW  Elec       q    Type
REMARK                         _______ _______ _______ _____ _____    ______ ____
ROOT
ATOM      1  C   UNL     1      -0.019   1.526   0.010  0.00  0.00    +0.008 C 
ATOM      2  C   UNL     1       0.002  -0.004   0.002  0.00  0.00    -0.009 C 
ATOM      3  C   UNL     1      -1.434  -0.540   0.025  0.00  0.00    +0.010 C 
ATOM      4  C   UNL     1      -1.391  -2.045  -0.230  0.00  0.00    +0.056 C 
ATOM      5  C   UNL     1      -0.411  -2.712   0.701  0.00  0.00    +0.046 A 
ATOM      6  C   UNL     1       0.571  -2.009   1.374  0.00  0.00    -0.025 A 
ATOM      7  C   UNL     1       1.448  -2.674   2.209  0.00  0.00    +0.017 A 
ATOM      8  C   UNL     1       1.331  -4.074   2.373  0.00  0.00    +0.029 A 
ATOM      9  C   UNL     1       2.135  -4.968   3.193  0.00  0.00    +0.053 A 
ATOM     10  C   UNL     1       1.826  -6.310   3.193  0.00  0.00    +0.097 A 
ATOM     11  S   UNL     1       0.435  -6.413   2.084  0.00  0.00    -0.062 S 
ATOM     12  C   UNL     1       0.292  -4.698   1.646  0.00  0.00    +0.111 A 
ATOM     13  N   UNL     1      -0.515  -4.024   0.862  0.00  0.00    -0.244 NA
ATOM     14  C   UNL     1       0.729  -0.515   1.244  0.00  0.00    +0.040 C 
ENDROOT
BRANCH  10  15
ATOM     15  C   UNL     1       2.462  -7.358   3.904  0.00  0.00    +0.253 C 
ATOM     16  O   UNL     1       3.411  -7.114   4.628  0.00  0.00    -0.270 OA
ATOM     17  N   UNL     1       2.016  -8.624   3.780  0.00  0.00    -0.305 N 
ATOM     18  H   UNL     1       1.260  -8.818   3.204  0.00  0.00    +0.150 HD
BRANCH  17  19
ATOM     19  C   UNL     1       2.674  -9.707   4.516  0.00  0.00    +0.036 C 
ATOM     20  C   UNL     1       2.586  -9.430   6.018  0.00  0.00    +0.029 C 
ATOM     21  C   UNL     1       3.273 -10.561   6.786  0.00  0.00    -0.008 C 
ATOM     22  C   UNL     1       2.577 -11.887   6.470  0.00  0.00    +0.007 C 
ATOM     23  C   UNL     1       2.665 -12.164   4.968  0.00  0.00    -0.008 C 
ATOM     24  C   UNL     1       1.978 -11.033   4.200  0.00  0.00    +0.029 C 
ATOM     25  C   UNL     1       4.134 -12.246   4.549  0.00  0.00    +0.007 C 
ATOM     26  C   UNL     1       4.829 -10.921   4.865  0.00  0.00    -0.008 C 
ATOM     27  C   UNL     1       4.742 -10.644   6.367  0.00  0.00    +0.007 C 
ATOM     28  C   UNL     1       4.143  -9.789   4.097  0.00  0.00    +0.029 C 
ENDBRANCH  17  19
ENDBRANCH  10  15
BRANCH   9  29
ATOM     29  N   UNL     1       3.188  -4.480   3.954  0.00  0.00    -0.356 N 
ATOM     30  H   UNL     1       3.395  -3.533   3.945  0.00  0.00    +0.142 HD
ATOM     31  H   UNL     1       3.716  -5.087   4.496  0.00  0.00    +0.142 HD
ENDBRANCH   9  29
TORSDOF 3
