REMARK  Name = ZINC35372935
REMARK  10 active torsions:
REMARK  status: ('A' for Active; 'I' for Inactive)
REMARK    1  A    between atoms: C_1  and  C_2
REMARK    2  A    between atoms: C_2  and  N_3
REMARK    3  A    between atoms: C_10  and  C_27
REMARK    4  A    between atoms: C_11  and  S_13
REMARK    5  A    between atoms: S_13  and  C_14
REMARK    6  A    between atoms: C_14  and  C_15
REMARK    7  A    between atoms: N_17  and  C_18
REMARK    8  A    between atoms: C_21  and  O_25
REMARK    9  A    between atoms: O_25  and  C_26
REMARK   10  A    between atoms: C_30  and  C_33
REMARK                            x       y       z     vdW  Elec       q    Type
REMARK                         _______ _______ _______ _____ _____    ______ ____
ROOT
ATOM      1  N   UNL     1       0.576  -0.397  -1.091  0.00  0.00    +0.380 N 
ATOM      2  C   UNL     1      -0.190  -0.007  -2.281  0.00  0.00    -0.075 C 
ATOM      3  C   UNL     1       0.570  -0.425  -3.542  0.00  0.00    +0.035 C 
ATOM      4  C   UNL     1       0.775  -1.940  -3.527  0.00  0.00    +0.150 C 
ATOM      5  C   UNL     1       1.499  -2.352  -2.245  0.00  0.00    +0.035 C 
ATOM      6  C   UNL     1       0.702  -1.858  -1.035  0.00  0.00    -0.075 C 
ATOM      7  N   UNL     1      -0.518  -2.624  -3.617  0.00  0.00    -0.251 NA
ATOM      8  C   UNL     1      -0.499  -3.343  -4.700  0.00  0.00    +0.100 C 
ATOM      9  C   UNL     1       0.805  -3.175  -5.383  0.00  0.00    +0.120 C 
ATOM     10  N   UNL     1       1.550  -2.356  -4.699  0.00  0.00    -0.246 NA
ATOM     11  H   UNL     1       1.496   0.017  -1.136  0.00  0.00    -0.082 HD
ENDROOT
BRANCH   8  12
ATOM     12  C   UNL     1      -1.609  -4.199  -5.176  0.00  0.00    +0.003 A 
ATOM     13  C   UNL     1      -1.345  -5.295  -5.998  0.00  0.00    +0.010 A 
ATOM     14  C   UNL     1      -2.384  -6.089  -6.439  0.00  0.00    +0.004 A 
ATOM     15  C   UNL     1      -3.685  -5.800  -6.068  0.00  0.00    -0.050 A 
ATOM     16  C   UNL     1      -3.953  -4.714  -5.253  0.00  0.00    +0.004 A 
ATOM     17  C   UNL     1      -2.923  -3.916  -4.801  0.00  0.00    +0.010 A 
ATOM     18  C   UNL     1      -4.815  -6.671  -6.553  0.00  0.00    +0.044 C 
ENDBRANCH   8  12
BRANCH   1  20
ATOM     19  C   UNL     1      -0.137   1.610   0.117  0.00  0.00    -0.017 C 
ATOM     20  C   UNL     1      -0.116   0.080   0.113  0.00  0.00    -0.082 C 
ENDBRANCH   1  20
BRANCH   9  21
ATOM     21  S   UNL     1       1.274  -3.961  -6.888  0.00  0.00    -0.095 S 
BRANCH  21  22
ATOM     22  C   UNL     1       2.957  -3.356  -7.194  0.00  0.00    +0.172 C 
BRANCH  22  23
ATOM     23  C   UNL     1       3.484  -3.960  -8.470  0.00  0.00    +0.227 C 
ATOM     24  O   UNL     1       2.793  -4.724  -9.110  0.00  0.00    -0.275 OA
ATOM     25  N   UNL     1       4.724  -3.652  -8.899  0.00  0.00    -0.285 N 
ATOM     26  H   UNL     1       5.305  -3.104  -8.350  0.00  0.00    +0.155 HD
BRANCH  25  27
ATOM     27  C   UNL     1       5.173  -4.124 -10.140  0.00  0.00    +0.035 A 
ATOM     28  C   UNL     1       6.506  -4.474 -10.309  0.00  0.00    +0.027 A 
ATOM     29  C   UNL     1       6.948  -4.940 -11.531  0.00  0.00    +0.049 A 
ATOM     30  C   UNL     1       6.061  -5.058 -12.591  0.00  0.00    +0.138 A 
ATOM     31  C   UNL     1       4.729  -4.707 -12.424  0.00  0.00    +0.084 A 
ATOM     32  C   UNL     1       4.284  -4.247 -11.199  0.00  0.00    +0.047 A 
ATOM     33 CL   UNL     1       3.619  -4.854 -13.751  0.00  0.00    -0.080 Cl
BRANCH  30  34
ATOM     34  O   UNL     1       6.497  -5.516 -13.795  0.00  0.00    -0.494 OA
ATOM     35  C   UNL     1       7.881  -5.858 -13.896  0.00  0.00    +0.277 C 
ENDBRANCH  30  34
ENDBRANCH  25  27
ENDBRANCH  22  23
ENDBRANCH  21  22
ENDBRANCH   9  21
TORSDOF 7
