REMARK  Name = ZINC20612580
REMARK  7 active torsions:
REMARK  status: ('A' for Active; 'I' for Inactive)
REMARK    1  A    between atoms: C_1  and  C_2
REMARK    2  A    between atoms: C_2  and  C_3
REMARK    3  A    between atoms: C_3  and  C_5
REMARK    4  A    between atoms: C_3  and  S_6
REMARK    5  A    between atoms: S_6  and  C_7
REMARK    6  A    between atoms: C_13  and  C_15
REMARK    7  A    between atoms: C_21  and  C_23
REMARK                            x       y       z     vdW  Elec       q    Type
REMARK                         _______ _______ _______ _____ _____    ______ ____
ROOT
ATOM      1  C   UNL     1       4.540   5.490   1.355  0.00  0.00    +0.078 C 
ATOM      2  C   UNL     1       3.143   6.109   1.455  0.00  0.00    +0.032 C 
ATOM      3  C   UNL     1       2.324   5.712   0.223  0.00  0.00    +0.109 C 
ATOM      4  N   UNL     1       2.328   4.248   0.104  0.00  0.00    -0.297 N 
ATOM      5  C   UNL     1       3.617   3.543   0.096  0.00  0.00    +0.109 C 
ATOM      6  C   UNL     1       4.422   3.965   1.324  0.00  0.00    +0.032 C 
ATOM      7  C   UNL     1       1.171   3.563   0.009  0.00  0.00    +0.247 C 
ATOM      8  O   UNL     1       0.114   4.161  -0.047  0.00  0.00    -0.270 OA
ENDROOT
BRANCH   1  15
ATOM      9  C   UNL     1       9.113   6.394   5.738  0.00  0.00    +0.160 A 
ATOM     10  N   UNL     1       7.881   6.883   5.735  0.00  0.00    -0.133 NA
ATOM     11  N   UNL     1       7.066   6.631   4.806  0.00  0.00    -0.125 NA
ATOM     12  C   UNL     1       7.389   5.863   3.779  0.00  0.00    +0.189 A 
ATOM     13  S   UNL     1       9.077   5.452   4.215  0.00  0.00    -0.024 S 
ATOM     14  N   UNL     1       6.631   5.478   2.675  0.00  0.00    -0.263 N 
ATOM     15  C   UNL     1       5.360   5.906   2.549  0.00  0.00    +0.222 C 
ATOM     16  O   UNL     1       4.875   6.627   3.396  0.00  0.00    -0.275 OA
ATOM     17  H   UNL     1       7.071   4.825   1.907  0.00  0.00    +0.157 HD
BRANCH   9  18
ATOM     18  S   UNL     1      10.412   6.603   6.910  0.00  0.00    -0.094 S 
BRANCH  18  19
ATOM     19  C   UNL     1       9.690   7.681   8.178  0.00  0.00    +0.050 C 
ATOM     20  C   UNL     1       9.383   9.050   7.569  0.00  0.00    +0.019 C 
BRANCH  19  22
ATOM     21  C   UNL     1      10.893   6.496  10.020  0.00  0.00    +0.005 C 
ATOM     22  C   UNL     1      10.681   7.846   9.331  0.00  0.00    +0.011 C 
ENDBRANCH  19  22
ENDBRANCH  18  19
ENDBRANCH   9  18
ENDBRANCH   1  15
BRANCH   7  23
ATOM     23  C   UNL     1       1.187   2.087  -0.025  0.00  0.00    +0.037 A 
ATOM     24  C   UNL     1       0.367   1.357   0.838  0.00  0.00    +0.016 A 
ATOM     25  C   UNL     1       0.385  -0.021   0.801  0.00  0.00    +0.039 A 
ATOM     26  C   UNL     1       1.216  -0.682  -0.090  0.00  0.00    +0.123 A 
ATOM     27  C   UNL     1       2.032   0.038  -0.949  0.00  0.00    +0.039 A 
ATOM     28  C   UNL     1       2.022   1.416  -0.921  0.00  0.00    +0.016 A 
ATOM     29  F   UNL     1       1.230  -2.033  -0.122  0.00  0.00    -0.205 F 
ENDBRANCH   7  23
TORSDOF 5
