REMARK  Name = ZINC35592529
REMARK  7 active torsions:
REMARK  status: ('A' for Active; 'I' for Inactive)
REMARK    1  A    between atoms: C_3  and  C_11
REMARK    2  A    between atoms: C_5  and  C_7
REMARK    3  A    between atoms: C_11  and  N_12
REMARK    4  A    between atoms: C_13  and  C_15
REMARK    5  A    between atoms: C_18  and  C_20
REMARK    6  A    between atoms: C_20  and  N_21
REMARK    7  A    between atoms: C_29  and  C_31
REMARK                            x       y       z     vdW  Elec       q    Type
REMARK                         _______ _______ _______ _____ _____    ______ ____
ROOT
ATOM      1  C   UNL     1       5.680   3.346   2.974  0.00  0.00    +0.189 A 
ATOM      2  C   UNL     1       6.805   4.019   3.354  0.00  0.00    +0.055 A 
ATOM      3  C   UNL     1       6.824   4.013   4.757  0.00  0.00    +0.043 A 
ATOM      4  C   UNL     1       5.723   3.346   5.167  0.00  0.00    +0.090 A 
ATOM      5  O   UNL     1       5.033   2.950   4.090  0.00  0.00    -0.457 OA
ENDROOT
BRANCH   1   7
ATOM      6  N   UNL     1       4.105   2.425   1.356  0.00  0.00    -0.305 N 
ATOM      7  C   UNL     1       5.246   3.102   1.594  0.00  0.00    +0.280 C 
ATOM      8  O   UNL     1       5.916   3.511   0.664  0.00  0.00    -0.267 OA
ATOM      9  H   UNL     1       3.571   2.099   2.097  0.00  0.00    +0.149 HD
BRANCH   6  10
ATOM     10  C   UNL     1       3.672   2.182  -0.022  0.00  0.00    +0.140 C 
BRANCH  10  13
ATOM     11  C   UNL     1      -0.017   1.378   0.010  0.00  0.00    +0.001 A 
ATOM     12  C   UNL     1       1.171   2.085   0.002  0.00  0.00    +0.005 A 
ATOM     13  C   UNL     1       2.377   1.411  -0.013  0.00  0.00    -0.030 A 
ATOM     14  C   UNL     1       2.396   0.028  -0.020  0.00  0.00    +0.017 A 
ATOM     15  C   UNL     1       1.209  -0.679  -0.012  0.00  0.00    +0.055 A 
ATOM     16  C   UNL     1       0.002  -0.004   0.002  0.00  0.00    +0.012 A 
BRANCH  15  17
ATOM     17  C   UNL     1       1.229  -2.186  -0.020  0.00  0.00    +0.417 C 
ATOM     18  F   UNL     1       1.249  -2.660   1.296  0.00  0.00    -0.166 F 
ATOM     19  F   UNL     1       0.086  -2.664  -0.671  0.00  0.00    -0.166 F 
ATOM     20  F   UNL     1       2.371  -2.633  -0.694  0.00  0.00    -0.166 F 
ENDBRANCH  15  17
ENDBRANCH  10  13
ENDBRANCH   6  10
ENDBRANCH   1   7
BRANCH   4  21
ATOM     21  C   UNL     1       5.333   3.093   6.601  0.00  0.00    -0.002 C 
BRANCH  21  22
ATOM     22  N   UNL     1       4.492   4.198   7.081  0.00  0.00    +0.394 N 
ATOM     23  C   UNL     1       3.234   4.219   6.323  0.00  0.00    -0.055 C 
ATOM     24  C   UNL     1       2.490   5.535   6.585  0.00  0.00    +0.103 C 
ATOM     25  N   UNL     1       2.406   5.727   8.038  0.00  0.00    -0.353 N 
ATOM     26  C   UNL     1       1.596   6.569   8.728  0.00  0.00    +0.086 A 
ATOM     27  C   UNL     1       1.850   6.412  10.046  0.00  0.00    +0.019 A 
ATOM     28  C   UNL     1       2.860   5.433  10.169  0.00  0.00    +0.021 A 
ATOM     29  C   UNL     1       3.182   5.034   8.930  0.00  0.00    +0.009 A 
ATOM     30  C   UNL     1       4.211   4.011   8.515  0.00  0.00    +0.014 C 
ATOM     31  H   UNL     1       4.978   5.072   6.947  0.00  0.00    -0.080 HD
BRANCH  30  32
ATOM     32  C   UNL     1       5.475   4.208   9.311  0.00  0.00    -0.020 A 
ATOM     33  C   UNL     1       6.494   4.994   8.806  0.00  0.00    +0.008 A 
ATOM     34  C   UNL     1       7.653   5.177   9.536  0.00  0.00    +0.039 A 
ATOM     35  C   UNL     1       7.796   4.572  10.773  0.00  0.00    +0.126 A 
ATOM     36  C   UNL     1       6.777   3.785  11.280  0.00  0.00    +0.077 A 
ATOM     37  C   UNL     1       5.613   3.607  10.551  0.00  0.00    +0.128 A 
ATOM     38  F   UNL     1       4.615   2.844  11.046  0.00  0.00    -0.205 F 
ATOM     39  F   UNL     1       8.930   4.750  11.486  0.00  0.00    -0.205 F 
ENDBRANCH  30  32
ENDBRANCH  21  22
ENDBRANCH   4  21
TORSDOF 7
