REMARK  Name = ZINC16957760
REMARK  7 active torsions:
REMARK  status: ('A' for Active; 'I' for Inactive)
REMARK    1  A    between atoms: C_1  and  C_2
REMARK    2  A    between atoms: C_2  and  C_3
REMARK    3  A    between atoms: C_2  and  C_4
REMARK    4  A    between atoms: C_2  and  N_5
REMARK    5  A    between atoms: N_5  and  N_6
REMARK    6  A    between atoms: C_7  and  C_8
REMARK    7  A    between atoms: C_7  and  C_21
REMARK                            x       y       z     vdW  Elec       q    Type
REMARK                         _______ _______ _______ _____ _____    ______ ____
ROOT
ATOM      1  N   UNL     1       0.844   3.058   2.788  0.00  0.00    -0.184 NA
ATOM      2  C   UNL     1      -0.064   3.871   2.327  0.00  0.00    +0.145 C 
ENDROOT
BRANCH   2   3
ATOM      3  C   UNL     1      -0.221   4.061   0.841  0.00  0.00    +0.224 C 
ATOM      4  C   UNL     1      -1.280   3.124   0.319  0.00  0.00    +0.239 C 
ATOM      5  O   UNL     1      -2.401   3.555   0.148  0.00  0.00    -0.274 OA
ATOM      6  N   UNL     1      -1.042   1.847   0.036  0.00  0.00    -0.283 N 
ATOM      7  C   UNL     1       0.189   1.204   0.064  0.00  0.00    +0.049 A 
ATOM      8  C   UNL     1       0.229  -0.189   0.081  0.00  0.00    +0.024 A 
ATOM      9  C   UNL     1       1.439  -0.850   0.102  0.00  0.00    +0.002 A 
ATOM     10  C   UNL     1       2.623  -0.137   0.108  0.00  0.00    +0.001 A 
ATOM     11  C   UNL     1       2.593   1.246   0.086  0.00  0.00    +0.019 A 
ATOM     12  C   UNL     1       1.385   1.910   0.059  0.00  0.00    +0.061 A 
ATOM     13  S   UNL     1       1.347   3.674   0.004  0.00  0.00    +0.074 S 
ATOM     14  O   UNL     1       1.232   3.973  -1.381  0.00  0.00    -0.251 OA
ATOM     15  H   UNL     1      -1.808   1.308  -0.216  0.00  0.00    +0.155 HD
ENDBRANCH   2   3
BRANCH   2  16
ATOM     16  C   UNL     1      -0.929   4.601   3.253  0.00  0.00    +0.268 C 
ATOM     17  O   UNL     1      -0.874   4.371   4.447  0.00  0.00    -0.268 OA
ATOM     18  N   UNL     1      -1.788   5.527   2.784  0.00  0.00    -0.250 N 
ATOM     19  C   UNL     1      -2.521   6.287   3.658  0.00  0.00    +0.217 A 
ATOM     20  N   UNL     1      -2.479   6.201   5.021  0.00  0.00    -0.269 N 
ATOM     21  H   UNL     1      -1.932   5.598   5.548  0.00  0.00    +0.190 HD
ATOM     22  N   UNL     1      -3.383   7.160   5.508  0.00  0.00    -0.275 N 
ATOM     23  H   UNL     1      -3.582   7.350   6.438  0.00  0.00    +0.189 HD
ATOM     24  C   UNL     1      -3.923   7.762   4.428  0.00  0.00    +0.195 A 
ATOM     25  S   UNL     1      -5.095   9.009   4.463  0.00  0.00    -0.010 S 
ATOM     26  N   UNL     1      -3.391   7.221   3.326  0.00  0.00    -0.189 NA
ATOM     27  H   UNL     1      -1.887   5.657   1.828  0.00  0.00    +0.158 HD
ENDBRANCH   2  16
BRANCH   1  28
ATOM     28  N   UNL     1       0.916   2.794   4.162  0.00  0.00    -0.263 N 
ATOM     29  H   UNL     1       0.345   3.277   4.779  0.00  0.00    +0.169 HD
BRANCH  28  31
ATOM     30  C   UNL     1       3.283   2.190   4.292  0.00  0.00    +0.032 C 
ATOM     31  C   UNL     1       1.855   1.789   4.667  0.00  0.00    +0.041 C 
ATOM     32  C   UNL     1       1.733   1.697   6.190  0.00  0.00    +0.032 C 
ATOM     33  C   UNL     1       1.528   0.429   4.047  0.00  0.00    +0.032 C 
ENDBRANCH  28  31
ENDBRANCH   1  28
TORSDOF 4
