REMARK  Name = ZINC10152447
REMARK  6 active torsions:
REMARK  status: ('A' for Active; 'I' for Inactive)
REMARK    1  A    between atoms: C_1  and  C_2
REMARK    2  A    between atoms: C_2  and  C_3
REMARK    3  A    between atoms: C_2  and  N_4
REMARK    4  A    between atoms: C_5  and  C_7
REMARK    5  A    between atoms: C_10  and  C_20
REMARK    6  A    between atoms: C_10  and  O_24
REMARK                            x       y       z     vdW  Elec       q    Type
REMARK                         _______ _______ _______ _____ _____    ______ ____
ROOT
ATOM      1  C   UNL     1       0.207   3.033   3.246  0.00  0.00    +0.323 C 
ATOM      2  O   UNL     1      -0.857   2.920   3.821  0.00  0.00    -0.263 OA
ATOM      3  N   UNL     1       0.393   2.437   2.051  0.00  0.00    -0.144 N 
ATOM      4  C   UNL     1      -0.602   1.625   1.333  0.00  0.00    +0.260 C 
ATOM      5  C   UNL     1       0.112   1.279   0.005  0.00  0.00    +0.096 C 
ATOM      6  C   UNL     1      -0.613   1.943  -1.139  0.00  0.00    +0.014 C 
ATOM      7  C   UNL     1      -0.272   1.558  -2.518  0.00  0.00    +0.001 C 
ATOM      8  C   UNL     1       1.163   1.270  -2.839  0.00  0.00    +0.000 C 
ATOM      9  C   UNL     1       2.187   2.138  -2.179  0.00  0.00    +0.006 C 
ATOM     10  C   UNL     1       2.612   1.665  -0.804  0.00  0.00    +0.053 C 
ATOM     11  C   UNL     1       1.496   1.867   0.188  0.00  0.00    +0.045 C 
ATOM     12  N   UNL     1       1.560   2.488   1.292  0.00  0.00    -0.183 NA
ENDROOT
BRANCH   1  14
ATOM     13  N   UNL     1       1.121   4.427   5.056  0.00  0.00    -0.305 N 
ATOM     14  C   UNL     1       1.307   3.831   3.861  0.00  0.00    +0.301 C 
ATOM     15  O   UNL     1       2.370   3.944   3.287  0.00  0.00    -0.265 OA
ATOM     16  H   UNL     1       0.271   4.337   5.516  0.00  0.00    +0.149 HD
BRANCH  13  18
ATOM     17  C   UNL     1       1.606   6.247   6.616  0.00  0.00    +0.027 C 
ATOM     18  C   UNL     1       2.201   5.211   5.660  0.00  0.00    +0.067 C 
ATOM     19  C   UNL     1       3.135   4.279   6.436  0.00  0.00    +0.027 C 
ENDBRANCH  13  18
ENDBRANCH   1  14
BRANCH   4  20
ATOM     20  C   UNL     1      -1.871   2.438   1.068  0.00  0.00    +0.438 C 
ATOM     21  F   UNL     1      -2.781   1.659   0.345  0.00  0.00    -0.166 F 
ATOM     22  F   UNL     1      -2.445   2.817   2.286  0.00  0.00    -0.166 F 
ATOM     23  F   UNL     1      -1.547   3.581   0.329  0.00  0.00    -0.166 F 
ENDBRANCH   4  20
BRANCH   4  24
ATOM     24  O   UNL     1      -0.907   0.437   2.066  0.00  0.00    -0.363 OA
ATOM     25  H   UNL     1      -1.355   0.598   2.907  0.00  0.00    +0.212 HD
ENDBRANCH   4  24
TORSDOF 4
