REMARK  Name = ZINC58686732
REMARK  9 active torsions:
REMARK  status: ('A' for Active; 'I' for Inactive)
REMARK    1  A    between atoms: C_1  and  C_2
REMARK    2  A    between atoms: C_2  and  N_3
REMARK    3  A    between atoms: C_12  and  C_14
REMARK    4  A    between atoms: N_16  and  N_17
REMARK    5  A    between atoms: C_18  and  C_20
REMARK    6  A    between atoms: C_20  and  C_21
REMARK    7  A    between atoms: C_21  and  C_23
REMARK    8  A    between atoms: C_21  and  N_30
REMARK    9  A    between atoms: C_28  and  C_29
REMARK                            x       y       z     vdW  Elec       q    Type
REMARK                         _______ _______ _______ _____ _____    ______ ____
ROOT
ATOM      1  N   UNL     1      -2.521  -0.802  -5.694  0.00  0.00    -0.234 N 
ATOM      2  C   UNL     1      -3.857  -0.716  -5.539  0.00  0.00    +0.231 C 
ATOM      3  O   UNL     1      -4.324  -0.411  -4.463  0.00  0.00    -0.274 OA
ATOM      4  H   UNL     1      -2.147  -1.045  -6.555  0.00  0.00    +0.173 HD
ENDROOT
BRANCH   1   7
ATOM      5  C   UNL     1      -0.336  -0.625  -4.765  0.00  0.00    +0.281 C 
ATOM      6  O   UNL     1       0.133  -0.931  -5.844  0.00  0.00    -0.267 OA
ATOM      7  N   UNL     1      -1.672  -0.539  -4.610  0.00  0.00    -0.229 N 
ATOM      8  H   UNL     1      -2.046  -0.296  -3.749  0.00  0.00    +0.173 HD
BRANCH   5  18
ATOM      9  N   UNL     1       0.766   0.236  -1.419  0.00  0.00    -0.229 N 
ATOM     10  C   UNL     1       2.114   0.195  -1.406  0.00  0.00    +0.275 A 
ATOM     11  O   UNL     1       2.736   0.447  -0.390  0.00  0.00    -0.266 OA
ATOM     12  C   UNL     1       2.816  -0.162  -2.647  0.00  0.00    +0.050 A 
ATOM     13  C   UNL     1       4.202  -0.232  -2.739  0.00  0.00    +0.014 A 
ATOM     14  C   UNL     1       4.784  -0.574  -3.941  0.00  0.00    +0.001 A 
ATOM     15  C   UNL     1       4.002  -0.847  -5.055  0.00  0.00    +0.001 A 
ATOM     16  C   UNL     1       2.626  -0.783  -4.985  0.00  0.00    +0.011 A 
ATOM     17  C   UNL     1       2.019  -0.440  -3.782  0.00  0.00    +0.020 A 
ATOM     18  C   UNL     1       0.559  -0.349  -3.623  0.00  0.00    +0.155 A 
ATOM     19  N   UNL     1       0.061  -0.024  -2.455  0.00  0.00    -0.163 NA
BRANCH   9  21
ATOM     20  C   UNL     1      -0.130   2.108  -0.125  0.00  0.00    +0.029 C 
ATOM     21  C   UNL     1       0.072   0.593  -0.179  0.00  0.00    +0.144 C 
ENDBRANCH   9  21
ENDBRANCH   5  18
ENDBRANCH   1   7
BRANCH   2  22
ATOM     22  C   UNL     1      -4.769  -0.998  -6.705  0.00  0.00    +0.124 C 
BRANCH  22  23
ATOM     23  C   UNL     1      -6.225  -0.831  -6.264  0.00  0.00    +0.114 C 
BRANCH  23  24
ATOM     24  C   UNL     1      -7.140  -1.232  -7.393  0.00  0.00    -0.024 A 
ATOM     25  C   UNL     1      -6.636  -1.386  -8.670  0.00  0.00    +0.006 A 
ATOM     26  C   UNL     1      -7.475  -1.754  -9.705  0.00  0.00    +0.000 A 
ATOM     27  C   UNL     1      -8.819  -1.967  -9.462  0.00  0.00    +0.000 A 
ATOM     28  C   UNL     1      -9.324  -1.814  -8.185  0.00  0.00    +0.004 A 
ATOM     29  C   UNL     1      -8.483  -1.450  -7.149  0.00  0.00    -0.045 A 
ATOM     30  C   UNL     1      -9.032  -1.288  -5.755  0.00  0.00    +0.044 C 
ENDBRANCH  23  24
BRANCH  23  31
ATOM     31  N   UNL     1      -6.471   0.569  -5.910  0.00  0.00    -0.292 N 
ATOM     32  C   UNL     1      -6.356   1.531  -6.846  0.00  0.00    +0.298 C 
ATOM     33  O   UNL     1      -6.140   1.230  -8.004  0.00  0.00    -0.253 OA
ATOM     34  N   UNL     1      -6.482   2.827  -6.499  0.00  0.00    -0.313 N 
ATOM     35  H   UNL     1      -6.716   0.803  -5.001  0.00  0.00    +0.151 HD
ATOM     36  H   UNL     1      -6.654   3.068  -5.575  0.00  0.00    +0.146 HD
ATOM     37  H   UNL     1      -6.399   3.520  -7.173  0.00  0.00    +0.146 HD
ENDBRANCH  23  31
ENDBRANCH  22  23
ENDBRANCH   2  22
TORSDOF 7
