REMARK  Name = ZINC32577032
REMARK  9 active torsions:
REMARK  status: ('A' for Active; 'I' for Inactive)
REMARK    1  A    between atoms: C_1  and  C_2
REMARK    2  A    between atoms: C_5  and  N_8
REMARK    3  A    between atoms: C_17  and  S_18
REMARK    4  A    between atoms: S_18  and  C_19
REMARK    5  A    between atoms: C_19  and  C_20
REMARK    6  A    between atoms: N_22  and  N_23
REMARK    7  A    between atoms: C_24  and  C_25
REMARK    8  A    between atoms: C_28  and  O_31
REMARK    9  A    between atoms: O_31  and  C_32
REMARK                            x       y       z     vdW  Elec       q    Type
REMARK                         _______ _______ _______ _____ _____    ______ ____
ROOT
ATOM      1  N   UNL     1       1.073  -4.986   3.880  0.00  0.00    -0.255 N 
ATOM      2  C   UNL     1       1.516  -3.905   4.565  0.00  0.00    +0.268 A 
ATOM      3  O   UNL     1       2.703  -3.654   4.679  0.00  0.00    -0.267 OA
ATOM      4  C   UNL     1       0.503  -3.076   5.148  0.00  0.00    +0.076 A 
ATOM      5  C   UNL     1       0.713  -1.867   5.926  0.00  0.00    -0.023 A 
ATOM      6  C   UNL     1      -0.394  -1.239   6.382  0.00  0.00    -0.004 A 
ATOM      7  S   UNL     1      -1.757  -2.218   5.803  0.00  0.00    -0.073 S 
ATOM      8  C   UNL     1      -0.842  -3.465   4.952  0.00  0.00    +0.117 A 
ATOM      9  N   UNL     1      -1.212  -4.540   4.268  0.00  0.00    -0.215 NA
ATOM     10  C   UNL     1      -0.250  -5.286   3.741  0.00  0.00    +0.178 A 
ATOM     11  C   UNL     1      -0.454   0.014   7.201  0.00  0.00    +0.043 C 
ATOM     12  C   UNL     1       0.945   0.293   7.767  0.00  0.00    +0.005 C 
ATOM     13  C   UNL     1       1.968   0.159   6.634  0.00  0.00    +0.005 C 
ATOM     14  C   UNL     1       2.102  -1.308   6.228  0.00  0.00    +0.037 C 
ENDROOT
BRANCH   1  19
ATOM     15  C   UNL     1       4.897  -8.424   1.480  0.00  0.00    +0.044 C 
ATOM     16  C   UNL     1       3.882  -7.511   2.117  0.00  0.00    -0.050 A 
ATOM     17  C   UNL     1       3.735  -6.215   1.658  0.00  0.00    +0.005 A 
ATOM     18  C   UNL     1       2.806  -5.376   2.240  0.00  0.00    +0.026 A 
ATOM     19  C   UNL     1       2.017  -5.835   3.287  0.00  0.00    +0.052 A 
ATOM     20  C   UNL     1       2.170  -7.136   3.749  0.00  0.00    +0.026 A 
ATOM     21  C   UNL     1       3.098  -7.972   3.159  0.00  0.00    +0.005 A 
ENDBRANCH   1  19
BRANCH  10  22
ATOM     22  S   UNL     1      -0.700  -6.722   2.824  0.00  0.00    -0.078 S 
BRANCH  22  23
ATOM     23  C   UNL     1      -2.502  -6.630   2.961  0.00  0.00    +0.174 C 
BRANCH  23  24
ATOM     24  C   UNL     1      -3.121  -7.793   2.230  0.00  0.00    +0.242 C 
ATOM     25  O   UNL     1      -2.413  -8.604   1.671  0.00  0.00    -0.273 OA
ATOM     26  N   UNL     1      -4.462  -7.931   2.196  0.00  0.00    -0.206 N 
ATOM     27  H   UNL     1      -5.103  -7.196   2.703  0.00  0.00    +0.177 HD
BRANCH  26  28
ATOM     28  N   UNL     1      -5.037  -9.013   1.516  0.00  0.00    -0.188 NA
ATOM     29  C   UNL     1      -6.326  -9.079   1.376  0.00  0.00    +0.138 C 
BRANCH  29  30
ATOM     30  C   UNL     1      -7.134  -7.846   1.393  0.00  0.00    -0.005 A 
ATOM     31  C   UNL     1      -8.521  -7.920   1.548  0.00  0.00    +0.013 A 
ATOM     32  C   UNL     1      -9.271  -6.764   1.567  0.00  0.00    +0.046 A 
ATOM     33  C   UNL     1      -8.653  -5.529   1.424  0.00  0.00    +0.120 A 
ATOM     34  C   UNL     1      -7.275  -5.452   1.266  0.00  0.00    +0.046 A 
ATOM     35  C   UNL     1      -6.516  -6.601   1.249  0.00  0.00    +0.013 A 
BRANCH  33  36
ATOM     36  O   UNL     1      -9.398  -4.393   1.439  0.00  0.00    -0.495 OA
ATOM     37  C   UNL     1     -10.809  -4.544   1.606  0.00  0.00    +0.277 C 
ENDBRANCH  33  36
ENDBRANCH  29  30
ENDBRANCH  26  28
ENDBRANCH  23  24
ENDBRANCH  22  23
ENDBRANCH  10  22
TORSDOF 7
