REMARK  Name = ZINC15776449
REMARK  9 active torsions:
REMARK  status: ('A' for Active; 'I' for Inactive)
REMARK    1  A    between atoms: C_1  and  C_2
REMARK    2  A    between atoms: C_2  and  O_3
REMARK    3  A    between atoms: O_3  and  C_4
REMARK    4  A    between atoms: C_5  and  C_20
REMARK    5  A    between atoms: N_8  and  C_9
REMARK    6  A    between atoms: C_20  and  C_22
REMARK    7  A    between atoms: C_20  and  C_28
REMARK    8  A    between atoms: C_28  and  N_30
REMARK    9  A    between atoms: N_30  and  C_31
REMARK                            x       y       z     vdW  Elec       q    Type
REMARK                         _______ _______ _______ _____ _____    ______ ____
ROOT
ATOM      1  C   UNL     1       0.406  -2.776   1.004  0.00  0.00    +0.229 A 
ATOM      2  C   UNL     1      -0.356  -3.091  -0.044  0.00  0.00    +0.067 A 
ATOM      3  S   UNL     1      -1.043  -4.708  -0.222  0.00  0.00    -0.066 S 
ATOM      4  C   UNL     1       0.073  -5.701   0.740  0.00  0.00    +0.123 A 
ATOM      5  N   UNL     1       0.387  -6.941   0.413  0.00  0.00    -0.347 N 
ATOM      6  C   UNL     1       0.623  -5.026   1.935  0.00  0.00    +0.190 A 
ATOM      7  N   UNL     1       0.743  -3.665   1.999  0.00  0.00    -0.177 N 
ATOM      8  N   UNL     1       1.274  -3.397   3.266  0.00  0.00    -0.150 NA
ATOM      9  C   UNL     1       1.461  -4.555   3.860  0.00  0.00    +0.246 A 
ATOM     10  N   UNL     1       1.063  -5.533   3.059  0.00  0.00    -0.212 NA
ATOM     11  H   UNL     1       1.001  -7.448   0.967  0.00  0.00    +0.166 HD
ENDROOT
BRANCH   5  12
ATOM     12  C   UNL     1      -0.154  -7.510  -0.705  0.00  0.00    +0.040 A 
ATOM     13  C   UNL     1      -1.517  -7.365  -0.978  0.00  0.00    +0.025 A 
ATOM     14  C   UNL     1      -2.056  -7.943  -2.108  0.00  0.00    +0.002 A 
ATOM     15  C   UNL     1      -1.250  -8.664  -2.971  0.00  0.00    +0.000 A 
ATOM     16  C   UNL     1       0.101  -8.813  -2.708  0.00  0.00    +0.002 A 
ATOM     17  C   UNL     1       0.655  -8.236  -1.585  0.00  0.00    +0.025 A 
ENDBRANCH   5  12
BRANCH   1  18
ATOM     18  O   UNL     1       0.882  -1.506   1.093  0.00  0.00    -0.476 OA
BRANCH  18  20
ATOM     19  C   UNL     1       2.638   0.153   1.030  0.00  0.00    +0.048 C 
ATOM     20  C   UNL     1       2.300  -1.339   1.044  0.00  0.00    +0.227 C 
ENDBRANCH  18  20
ENDBRANCH   1  18
BRANCH   2  21
ATOM     21  C   UNL     1      -0.636  -2.048  -1.096  0.00  0.00    +0.113 C 
BRANCH  21  22
ATOM     22  C   UNL     1      -2.123  -1.941  -1.314  0.00  0.00    -0.033 A 
ATOM     23  C   UNL     1      -2.841  -3.045  -1.733  0.00  0.00    +0.004 A 
ATOM     24  C   UNL     1      -4.206  -2.947  -1.933  0.00  0.00    +0.000 A 
ATOM     25  C   UNL     1      -4.852  -1.745  -1.714  0.00  0.00    +0.000 A 
ATOM     26  C   UNL     1      -4.134  -0.641  -1.294  0.00  0.00    +0.000 A 
ATOM     27  C   UNL     1      -2.770  -0.740  -1.090  0.00  0.00    +0.004 A 
ENDBRANCH  21  22
BRANCH  21  28
ATOM     28  C   UNL     1       0.034  -2.443  -2.386  0.00  0.00    +0.066 C 
ATOM     29  S   UNL     1       0.674  -3.900  -2.541  0.00  0.00    -0.039 S 
BRANCH  28  30
ATOM     30  N   UNL     1       0.093  -1.569  -3.410  0.00  0.00    -0.311 N 
ATOM     31  H   UNL     1      -0.349  -0.708  -3.339  0.00  0.00    +0.152 HD
BRANCH  30  32
ATOM     32  C   UNL     1       0.791  -1.902  -4.575  0.00  0.00    +0.031 A 
ATOM     33  C   UNL     1       0.617  -3.151  -5.157  0.00  0.00    +0.023 A 
ATOM     34  C   UNL     1       1.308  -3.477  -6.308  0.00  0.00    +0.002 A 
ATOM     35  C   UNL     1       2.172  -2.562  -6.881  0.00  0.00    +0.000 A 
ATOM     36  C   UNL     1       2.348  -1.317  -6.303  0.00  0.00    +0.002 A 
ATOM     37  C   UNL     1       1.656  -0.983  -5.156  0.00  0.00    +0.023 A 
ENDBRANCH  30  32
ENDBRANCH  28  30
ENDBRANCH  21  28
ENDBRANCH   2  21
TORSDOF 8
