REMARK  Name = ZINC40794947
REMARK  7 active torsions:
REMARK  status: ('A' for Active; 'I' for Inactive)
REMARK    1  A    between atoms: C_4  and  C_7
REMARK    2  A    between atoms: C_7  and  C_8
REMARK    3  A    between atoms: C_7  and  C_14
REMARK    4  A    between atoms: N_16  and  N_17
REMARK    5  A    between atoms: C_19  and  N_33
REMARK    6  A    between atoms: C_20  and  N_24
REMARK    7  A    between atoms: N_24  and  C_25
REMARK                            x       y       z     vdW  Elec       q    Type
REMARK                         _______ _______ _______ _____ _____    ______ ____
ROOT
ATOM      1  N   UNL     1       3.307  -2.579  -3.635  0.00  0.00    -0.247 N 
ATOM      2  C   UNL     1       3.185  -2.173  -4.958  0.00  0.00    +0.161 A 
ATOM      3  C   UNL     1       3.357  -3.088  -5.999  0.00  0.00    +0.107 A 
ATOM      4  C   UNL     1       3.224  -2.627  -7.310  0.00  0.00    +0.149 A 
ATOM      5  N   UNL     1       2.940  -1.343  -7.516  0.00  0.00    -0.219 NA
ATOM      6  C   UNL     1       2.786  -0.512  -6.506  0.00  0.00    +0.225 A 
ATOM      7  N   UNL     1       2.898  -0.907  -5.253  0.00  0.00    -0.217 NA
ATOM      8  H   UNL     1       3.516  -3.503  -3.428  0.00  0.00    +0.172 HD
ENDROOT
BRANCH   1  11
ATOM      9  C   UNL     1       3.244  -2.046  -1.315  0.00  0.00    +0.241 C 
ATOM     10  O   UNL     1       3.506  -3.202  -1.057  0.00  0.00    -0.273 OA
ATOM     11  N   UNL     1       3.126  -1.653  -2.599  0.00  0.00    -0.235 N 
ATOM     12  H   UNL     1       2.917  -0.728  -2.805  0.00  0.00    +0.173 HD
BRANCH   9  13
ATOM     13  C   UNL     1       3.050  -1.050  -0.201  0.00  0.00    +0.136 C 
BRANCH  13  17
ATOM     14  C   UNL     1      -0.890   0.585  -0.419  0.00  0.00    +0.000 A 
ATOM     15  C   UNL     1      -0.709  -0.786  -0.435  0.00  0.00    +0.000 A 
ATOM     16  C   UNL     1       0.567  -1.315  -0.365  0.00  0.00    +0.005 A 
ATOM     17  C   UNL     1       1.660  -0.474  -0.279  0.00  0.00    -0.031 A 
ATOM     18  C   UNL     1       1.479   0.897  -0.264  0.00  0.00    +0.005 A 
ATOM     19  C   UNL     1       0.203   1.426  -0.333  0.00  0.00    +0.000 A 
ENDBRANCH  13  17
BRANCH  13  20
ATOM     20  C   UNL     1       3.234  -1.740   1.127  0.00  0.00    -0.031 A 
ATOM     21  C   UNL     1       2.508  -2.879   1.421  0.00  0.00    +0.005 A 
ATOM     22  C   UNL     1       2.677  -3.511   2.638  0.00  0.00    +0.000 A 
ATOM     23  C   UNL     1       3.572  -3.005   3.562  0.00  0.00    +0.000 A 
ATOM     24  C   UNL     1       4.299  -1.866   3.268  0.00  0.00    +0.000 A 
ATOM     25  C   UNL     1       4.133  -1.236   2.048  0.00  0.00    +0.005 A 
ENDBRANCH  13  20
ENDBRANCH   9  13
ENDBRANCH   1  11
BRANCH   3  26
ATOM     26  N   UNL     1       3.656  -4.434  -5.734  0.00  0.00    -0.353 N 
ATOM     27  H   UNL     1       3.746  -4.739  -4.818  0.00  0.00    +0.143 HD
ATOM     28  H   UNL     1       3.772  -5.058  -6.467  0.00  0.00    +0.143 HD
ENDBRANCH   3  26
BRANCH   4  29
ATOM     29  N   UNL     1       3.385  -3.496  -8.383  0.00  0.00    -0.298 N 
ATOM     30  H   UNL     1       3.516  -4.444  -8.224  0.00  0.00    +0.154 HD
BRANCH  29  31
ATOM     31  C   UNL     1       3.358  -3.004  -9.692  0.00  0.00    +0.035 A 
ATOM     32  C   UNL     1       2.836  -3.782 -10.717  0.00  0.00    +0.026 A 
ATOM     33  C   UNL     1       2.809  -3.294 -12.009  0.00  0.00    +0.043 A 
ATOM     34  C   UNL     1       3.303  -2.031 -12.284  0.00  0.00    +0.159 A 
ATOM     35  C   UNL     1       3.825  -1.251 -11.263  0.00  0.00    +0.160 A 
ATOM     36  C   UNL     1       3.848  -1.734  -9.967  0.00  0.00    +0.064 A 
ATOM     37  F   UNL     1       4.307  -0.018 -11.533  0.00  0.00    -0.202 F 
ATOM     38  F   UNL     1       3.277  -1.556 -13.549  0.00  0.00    -0.202 F 
ENDBRANCH  29  31
ENDBRANCH   4  29
TORSDOF 7
