REMARK  Name = ZINC39306412
REMARK  10 active torsions:
REMARK  status: ('A' for Active; 'I' for Inactive)
REMARK    1  A    between atoms: C_1  and  O_2
REMARK    2  A    between atoms: O_2  and  C_3
REMARK    3  A    between atoms: C_8  and  O_9
REMARK    4  A    between atoms: O_9  and  C_10
REMARK    5  A    between atoms: N_12  and  C_15
REMARK    6  A    between atoms: C_15  and  C_16
REMARK    7  A    between atoms: N_18  and  C_19
REMARK    8  A    between atoms: C_22  and  C_26
REMARK    9  A    between atoms: C_26  and  C_28
REMARK   10  A    between atoms: C_26  and  C_30
REMARK                            x       y       z     vdW  Elec       q    Type
REMARK                         _______ _______ _______ _____ _____    ______ ____
ROOT
ATOM      1  C   UNL     1      -5.179  -6.484   1.063  0.00  0.00    +0.201 C 
ATOM      2  O   UNL     1      -6.087  -5.754   1.399  0.00  0.00    -0.278 OA
ATOM      3  N   UNL     1      -5.332  -7.822   1.121  0.00  0.00    -0.287 N 
ATOM      4  H   UNL     1      -4.635  -8.405   0.783  0.00  0.00    +0.155 HD
ENDROOT
BRANCH   3   5
ATOM      5  C   UNL     1      -6.497  -8.369   1.670  0.00  0.00    +0.035 A 
ATOM      6  C   UNL     1      -7.007  -9.562   1.173  0.00  0.00    +0.024 A 
ATOM      7  C   UNL     1      -8.156 -10.100   1.716  0.00  0.00    +0.008 A 
ATOM      8  C   UNL     1      -8.801  -9.453   2.755  0.00  0.00    -0.008 A 
ATOM      9  C   UNL     1      -8.297  -8.265   3.252  0.00  0.00    +0.047 A 
ATOM     10  C   UNL     1      -7.143  -7.724   2.716  0.00  0.00    +0.043 A 
ATOM     11 CL   UNL     1      -9.110  -7.455   4.556  0.00  0.00    -0.083 Cl
BRANCH   8  12
ATOM     12  C   UNL     1     -10.056 -10.043   3.345  0.00  0.00    +0.153 C 
BRANCH  12  13
ATOM     13  C   UNL     1      -9.725 -11.341   4.035  0.00  0.00    -0.026 A 
ATOM     14  C   UNL     1      -9.336 -12.440   3.292  0.00  0.00    +0.005 A 
ATOM     15  C   UNL     1      -9.032 -13.630   3.926  0.00  0.00    +0.000 A 
ATOM     16  C   UNL     1      -9.116 -13.722   5.302  0.00  0.00    +0.000 A 
ATOM     17  C   UNL     1      -9.503 -12.622   6.046  0.00  0.00    +0.000 A 
ATOM     18  C   UNL     1      -9.803 -11.431   5.412  0.00  0.00    +0.005 A 
ENDBRANCH  12  13
BRANCH  12  19
ATOM     19  C   UNL     1     -11.032 -10.294   2.271  0.00  0.00    +0.075 C 
ATOM     20  N   UNL     1     -11.785 -10.488   1.443  0.00  0.00    -0.196 NA
ENDBRANCH  12  19
ENDBRANCH   8  12
ENDBRANCH   3   5
BRANCH   1  21
ATOM     21  C   UNL     1      -3.878  -5.895   0.580  0.00  0.00    +0.019 C 
BRANCH  21  29
ATOM     22  C   UNL     1      -1.641  -0.224   0.068  0.00  0.00    +0.162 A 
ATOM     23  C   UNL     1      -2.862   0.408  -0.108  0.00  0.00    +0.050 A 
ATOM     24  C   UNL     1      -4.021  -0.341  -0.162  0.00  0.00    +0.007 A 
ATOM     25  C   UNL     1      -3.973  -1.721  -0.043  0.00  0.00    -0.044 A 
ATOM     26  C   UNL     1      -2.761  -2.357   0.130  0.00  0.00    -0.015 A 
ATOM     27  C   UNL     1      -1.591  -1.608   0.181  0.00  0.00    +0.163 A 
ATOM     28  C   UNL     1      -2.663  -3.854   0.256  0.00  0.00    -0.038 C 
ATOM     29  N   UNL     1      -3.964  -4.429   0.611  0.00  0.00    +0.388 N 
ATOM     30  C   UNL     1      -4.969  -3.974  -0.362  0.00  0.00    -0.073 C 
ATOM     31  C   UNL     1      -5.264  -2.496  -0.103  0.00  0.00    +0.017 C 
ATOM     32  H   UNL     1      -4.227  -4.123   1.536  0.00  0.00    -0.081 HD
BRANCH  22  34
ATOM     33  C   UNL     1      -0.625   1.925  -0.001  0.00  0.00    +0.277 C 
ATOM     34  O   UNL     1      -0.496   0.507   0.123  0.00  0.00    -0.491 OA
ENDBRANCH  22  34
BRANCH  27  35
ATOM     35  O   UNL     1      -0.394  -2.232   0.349  0.00  0.00    -0.491 OA
ATOM     36  C   UNL     1       0.052  -2.430   1.692  0.00  0.00    +0.277 C 
ENDBRANCH  27  35
ENDBRANCH  21  29
ENDBRANCH   1  21
TORSDOF 8
