REMARK  Name = ZINC25605762
REMARK  11 active torsions:
REMARK  status: ('A' for Active; 'I' for Inactive)
REMARK    1  A    between atoms: C_1  and  C_2
REMARK    2  A    between atoms: C_2  and  N_3
REMARK    3  A    between atoms: N_3  and  C_4
REMARK    4  A    between atoms: N_3  and  S_6
REMARK    5  A    between atoms: C_4  and  C_5
REMARK    6  A    between atoms: S_6  and  C_9
REMARK    7  A    between atoms: C_11  and  C_15
REMARK    8  A    between atoms: N_12  and  C_14
REMARK    9  A    between atoms: N_17  and  C_18
REMARK   10  A    between atoms: C_18  and  C_20
REMARK   11  A    between atoms: C_18  and  C_26
REMARK                            x       y       z     vdW  Elec       q    Type
REMARK                         _______ _______ _______ _____ _____    ______ ____
ROOT
ATOM      1  C   UNL     1      -1.668   4.269   3.953  0.00  0.00    +0.261 C 
ATOM      2  O   UNL     1      -2.386   4.238   4.935  0.00  0.00    -0.269 OA
ATOM      3  N   UNL     1      -0.949   5.375   3.678  0.00  0.00    -0.299 N 
ATOM      4  H   UNL     1      -0.367   5.435   2.746  0.00  0.00    +0.150 HD
ENDROOT
BRANCH   1   7
ATOM      5  C   UNL     1      -0.995   1.697   1.435  0.00  0.00    +0.124 A 
ATOM      6  C   UNL     1      -0.737   2.953   1.992  0.00  0.00    +0.061 A 
ATOM      7  C   UNL     1      -1.585   3.101   3.069  0.00  0.00    +0.106 A 
ATOM      8  N   UNL     1      -2.334   1.951   3.167  0.00  0.00    -0.344 N 
ATOM      9  C   UNL     1      -1.968   1.108   2.172  0.00  0.00    +0.114 A 
ATOM     10  C   UNL     1      -3.358   1.682   4.180  0.00  0.00    +0.149 C 
BRANCH   5  11
ATOM     11  S   UNL     1      -0.192   1.000   0.030  0.00  0.00    +0.062 S 
ATOM     12  O   UNL     1      -0.317  -0.411   0.149  0.00  0.00    -0.153 OA
ATOM     13  O   UNL     1       1.069   1.646  -0.079  0.00  0.00    -0.153 OA
BRANCH  11  14
ATOM     14  N   UNL     1      -1.067   1.442  -1.304  0.00  0.00    -0.177 NA
BRANCH  14  16
ATOM     15  C   UNL     1       0.191   2.381  -3.179  0.00  0.00    +0.022 C 
ATOM     16  C   UNL     1      -0.749   2.685  -2.010  0.00  0.00    +0.106 C 
ENDBRANCH  14  16
BRANCH  14  17
ATOM     17  C   UNL     1      -2.161   0.590  -1.778  0.00  0.00    +0.106 C 
ATOM     18  C   UNL     1      -3.485   1.088  -1.195  0.00  0.00    +0.022 C 
ENDBRANCH  14  17
ENDBRANCH  11  14
ENDBRANCH   5  11
ENDBRANCH   1   7
BRANCH   3  19
ATOM     19  C   UNL     1      -0.944   6.498   4.618  0.00  0.00    +0.140 C 
BRANCH  19  20
ATOM     20  C   UNL     1      -0.626   7.772   3.878  0.00  0.00    -0.022 A 
ATOM     21  C   UNL     1       0.338   7.774   2.888  0.00  0.00    +0.006 A 
ATOM     22  C   UNL     1       0.626   8.941   2.206  0.00  0.00    +0.000 A 
ATOM     23  C   UNL     1      -0.044  10.109   2.521  0.00  0.00    +0.000 A 
ATOM     24  C   UNL     1      -1.004  10.108   3.515  0.00  0.00    +0.000 A 
ATOM     25  C   UNL     1      -1.296   8.940   4.194  0.00  0.00    +0.006 A 
ENDBRANCH  19  20
BRANCH  19  26
ATOM     26  C   UNL     1       0.100   6.260   5.679  0.00  0.00    +0.014 A 
ATOM     27  C   UNL     1       0.039   6.513   7.009  0.00  0.00    +0.013 A 
ATOM     28  C   UNL     1       1.129   6.206   7.801  0.00  0.00    +0.008 A 
ATOM     29  C   UNL     1       2.231   5.670   7.222  0.00  0.00    +0.045 A 
ATOM     30  S   UNL     1       1.741   5.577   5.508  0.00  0.00    -0.099 S 
ENDBRANCH  19  26
ENDBRANCH   3  19
TORSDOF 8
