REMARK  Name = ZINC09359975
REMARK  1 active torsions:
REMARK  status: ('A' for Active; 'I' for Inactive)
REMARK    1  A    between atoms: C_6  and  N_7
REMARK                            x       y       z     vdW  Elec       q    Type
REMARK                         _______ _______ _______ _____ _____    ______ ____
ROOT
ATOM      1  N   UNL     1      -0.951   0.771  -1.976  0.00  0.00    -0.210 N 
ATOM      2  C   UNL     1      -0.853   1.872  -1.222  0.00  0.00    +0.228 C 
ATOM      3  O   UNL     1      -1.258   2.972  -1.532  0.00  0.00    -0.275 OA
ATOM      4  C   UNL     1      -0.157   1.531   0.076  0.00  0.00    +0.074 C 
ATOM      5  C   UNL     1       1.223   2.212   0.112  0.00  0.00    -0.054 C 
ATOM      6  C   UNL     1       1.249   3.252   1.246  0.00  0.00    -0.016 C 
ATOM      7  C   UNL     1       1.770   2.498   2.485  0.00  0.00    -0.020 C 
ATOM      8  C   UNL     1       1.993   1.048   2.010  0.00  0.00    -0.076 C 
ATOM      9  C   UNL     1       1.670  -0.079  -0.105  0.00  0.00    +0.053 C 
ATOM     10  C   UNL     1       0.140   0.013  -0.064  0.00  0.00    +0.089 C 
ATOM     11  C   UNL     1      -0.428  -0.330  -1.423  0.00  0.00    +0.229 C 
ATOM     12  O   UNL     1      -0.412  -1.430  -1.931  0.00  0.00    -0.275 OA
ATOM     13  C   UNL     1       2.175  -0.206  -1.515  0.00  0.00    -0.026 A 
ATOM     14  C   UNL     1       2.067   0.589  -2.634  0.00  0.00    +0.024 A 
ATOM     15  C   UNL     1       2.656   0.194  -3.823  0.00  0.00    +0.041 A 
ATOM     16  C   UNL     1       3.353  -1.001  -3.883  0.00  0.00    +0.022 A 
ATOM     17  C   UNL     1       3.463  -1.799  -2.763  0.00  0.00    +0.025 A 
ATOM     18  C   UNL     1       2.874  -1.408  -1.563  0.00  0.00    +0.036 A 
ATOM     19  N   UNL     1       2.848  -2.032  -0.313  0.00  0.00    -0.286 N 
ATOM     20  C   UNL     1       2.162  -1.316   0.598  0.00  0.00    +0.212 C 
ATOM     21  O   UNL     1       1.977  -1.610   1.760  0.00  0.00    -0.277 OA
ATOM     22 CL   UNL     1       2.522   1.194  -5.236  0.00  0.00    -0.084 Cl
ATOM     23  H   UNL     1       3.274  -2.883  -0.124  0.00  0.00    +0.155 HD
ATOM     24  N   UNL     1       2.115   1.162   0.546  0.00  0.00    +0.395 N 
ATOM     25  H   UNL     1       3.086   1.373   0.286  0.00  0.00    -0.079 HD
ENDROOT
BRANCH   1  31
ATOM     26  C   UNL     1      -0.975   1.474  -4.288  0.00  0.00    +0.027 A 
ATOM     27  C   UNL     1      -1.567   1.468  -5.536  0.00  0.00    +0.040 A 
ATOM     28  C   UNL     1      -2.744   0.768  -5.741  0.00  0.00    +0.124 A 
ATOM     29  C   UNL     1      -3.327   0.069  -4.697  0.00  0.00    +0.040 A 
ATOM     30  C   UNL     1      -2.734   0.069  -3.450  0.00  0.00    +0.027 A 
ATOM     31  C   UNL     1      -1.554   0.770  -3.242  0.00  0.00    +0.044 A 
ATOM     32  F   UNL     1      -3.325   0.767  -6.961  0.00  0.00    -0.205 F 
ENDBRANCH   1  31
TORSDOF 1
