REMARK  Name = ZINC39666408
REMARK  7 active torsions:
REMARK  status: ('A' for Active; 'I' for Inactive)
REMARK    1  A    between atoms: C_1  and  C_2
REMARK    2  A    between atoms: C_2  and  C_4
REMARK    3  A    between atoms: C_2  and  O_29
REMARK    4  A    between atoms: C_4  and  N_5
REMARK    5  A    between atoms: C_6  and  C_8
REMARK    6  A    between atoms: C_19  and  C_21
REMARK    7  A    between atoms: O_29  and  C_30
REMARK                            x       y       z     vdW  Elec       q    Type
REMARK                         _______ _______ _______ _____ _____    ______ ____
ROOT
ATOM      1  C   UNL     1      -2.511  -7.644   1.684  0.00  0.00    +0.100 C 
ATOM      2  C   UNL     1      -2.663  -6.966   3.063  0.00  0.00    +0.121 C 
ATOM      3  N   UNL     1      -3.728  -5.953   2.868  0.00  0.00    -0.296 N 
ATOM      4  C   UNL     1      -4.716  -6.623   1.988  0.00  0.00    +0.115 C 
ATOM      5  C   UNL     1      -3.862  -7.420   0.983  0.00  0.00    -0.004 C 
ATOM      6  C   UNL     1      -3.665  -6.613  -0.297  0.00  0.00    -0.010 C 
ATOM      7  C   UNL     1      -5.013  -6.452  -1.005  0.00  0.00    -0.082 C 
ATOM      8  N   UNL     1      -5.565  -7.776  -1.318  0.00  0.00    +0.379 N 
ATOM      9  C   UNL     1      -5.838  -8.511  -0.077  0.00  0.00    -0.082 C 
ATOM     10  C   UNL     1      -4.525  -8.758   0.671  0.00  0.00    -0.010 C 
ATOM     11  C   UNL     1      -3.785  -4.706   3.375  0.00  0.00    +0.249 C 
ATOM     12  O   UNL     1      -4.762  -4.012   3.173  0.00  0.00    -0.270 OA
ATOM     13  H   UNL     1      -6.423  -7.667  -1.838  0.00  0.00    -0.086 HD
ATOM     14  H   UNL     1      -4.901  -8.293  -1.874  0.00  0.00    -0.086 HD
ENDROOT
BRANCH  11  15
ATOM     15  C   UNL     1      -2.660  -4.183   4.175  0.00  0.00    +0.072 A 
ATOM     16  C   UNL     1      -1.463  -3.821   3.550  0.00  0.00    +0.019 A 
ATOM     17  C   UNL     1      -0.417  -3.333   4.302  0.00  0.00    +0.039 A 
ATOM     18  C   UNL     1      -0.548  -3.199   5.676  0.00  0.00    +0.126 A 
ATOM     19  C   UNL     1      -1.731  -3.555   6.303  0.00  0.00    +0.077 A 
ATOM     20  C   UNL     1      -2.790  -4.040   5.560  0.00  0.00    +0.138 A 
ATOM     21  F   UNL     1      -3.946  -4.381   6.171  0.00  0.00    -0.205 F 
ATOM     22  F   UNL     1       0.482  -2.720   6.407  0.00  0.00    -0.205 F 
ENDBRANCH  11  15
BRANCH   1  24
ATOM     23  N   UNL     1      -0.795  -7.673  -0.098  0.00  0.00    -0.312 N 
ATOM     24  C   UNL     1      -1.399  -6.997   0.900  0.00  0.00    +0.218 C 
ATOM     25  O   UNL     1      -1.048  -5.867   1.166  0.00  0.00    -0.275 OA
ATOM     26  H   UNL     1      -1.026  -8.600  -0.264  0.00  0.00    +0.149 HD
BRANCH  23  27
ATOM     27  C   UNL     1       0.209  -7.007  -0.931  0.00  0.00    +0.148 C 
BRANCH  27  29
ATOM     28  C   UNL     1       1.593  -7.209  -3.001  0.00  0.00    +0.053 C 
ATOM     29  C   UNL     1       0.644  -7.948  -2.056  0.00  0.00    +0.187 C 
BRANCH  29  30
ATOM     30  O   UNL     1       1.314  -9.080  -1.497  0.00  0.00    -0.486 OA
BRANCH  30  31
ATOM     31  C   UNL     1       1.307 -10.225  -2.229  0.00  0.00    +0.139 A 
ATOM     32  C   UNL     1       0.767 -10.229  -3.507  0.00  0.00    +0.047 A 
ATOM     33  C   UNL     1       0.761 -11.394  -4.250  0.00  0.00    +0.004 A 
ATOM     34  C   UNL     1       1.293 -12.556  -3.721  0.00  0.00    +0.002 A 
ATOM     35  C   UNL     1       1.831 -12.555  -2.447  0.00  0.00    +0.023 A 
ATOM     36  C   UNL     1       1.845 -11.391  -1.702  0.00  0.00    +0.083 A 
ATOM     37 CL   UNL     1       2.529 -11.388  -0.106  0.00  0.00    -0.080 Cl
ENDBRANCH  30  31
ENDBRANCH  29  30
ENDBRANCH  27  29
ENDBRANCH  23  27
ENDBRANCH   1  24
TORSDOF 6
