REMARK  Name = ZINC45201396
REMARK  4 active torsions:
REMARK  status: ('A' for Active; 'I' for Inactive)
REMARK    1  A    between atoms: C_6  and  N_7
REMARK    2  A    between atoms: C_8  and  C_10
REMARK    3  A    between atoms: C_14  and  N_16
REMARK    4  A    between atoms: N_19  and  C_22
REMARK                            x       y       z     vdW  Elec       q    Type
REMARK                         _______ _______ _______ _____ _____    ______ ____
ROOT
ATOM      1  C   UNL     1      -3.618  -0.834   0.248  0.00  0.00    +0.146 A 
ATOM      2  C   UNL     1      -4.829  -0.155   0.361  0.00  0.00    +0.072 A 
ATOM      3  C   UNL     1      -6.007  -0.883   0.471  0.00  0.00    +0.025 A 
ATOM      4  C   UNL     1      -5.934  -2.263   0.464  0.00  0.00    +0.045 A 
ATOM      5  C   UNL     1      -4.689  -2.881   0.348  0.00  0.00    +0.122 A 
ATOM      6  N   UNL     1      -3.586  -2.163   0.240  0.00  0.00    -0.226 NA
ATOM      7 CL   UNL     1      -4.865   1.581   0.365  0.00  0.00    -0.081 Cl
ENDROOT
BRANCH   5   8
ATOM      8  N   UNL     1      -4.608  -4.269   0.340  0.00  0.00    -0.312 N 
ATOM      9  C   UNL     1      -3.308  -4.944   0.461  0.00  0.00    +0.125 C 
ATOM     10  C   UNL     1      -3.369  -5.918   1.644  0.00  0.00    +0.124 C 
ATOM     11  N   UNL     1      -4.583  -6.737   1.515  0.00  0.00    -0.327 N 
ATOM     12  C   UNL     1      -5.883  -6.062   1.395  0.00  0.00    +0.124 C 
ATOM     13  C   UNL     1      -5.822  -5.088   0.217  0.00  0.00    +0.125 C 
BRANCH  11  14
ATOM     14  C   UNL     1      -4.503  -8.126   1.508  0.00  0.00    +0.033 A 
ATOM     15  C   UNL     1      -5.656  -8.910   1.500  0.00  0.00    +0.040 A 
ATOM     16  C   UNL     1      -5.533 -10.283   1.492  0.00  0.00    +0.084 A 
ATOM     17  N   UNL     1      -4.344 -10.856   1.492  0.00  0.00    -0.367 N 
ATOM     18  C   UNL     1      -3.229 -10.150   1.499  0.00  0.00    +0.084 A 
ATOM     19  C   UNL     1      -3.266  -8.771   1.501  0.00  0.00    +0.040 A 
ATOM     20  H   UNL     1      -4.288 -11.825   1.486  0.00  0.00    +0.165 HD
ENDBRANCH  11  14
ENDBRANCH   5   8
BRANCH   1  22
ATOM     21  N   UNL     1      -1.182  -0.721   0.015  0.00  0.00    -0.280 N 
ATOM     22  C   UNL     1      -2.356  -0.070   0.130  0.00  0.00    +0.268 C 
ATOM     23  O   UNL     1      -2.379   1.145   0.137  0.00  0.00    -0.268 OA
ATOM     24  H   UNL     1      -1.169  -1.688  -0.066  0.00  0.00    +0.155 HD
BRANCH  21  30
ATOM     25  C   UNL     1       0.137   1.159   0.762  0.00  0.00    +0.023 A 
ATOM     26  C   UNL     1       1.324   1.863   0.755  0.00  0.00    +0.006 A 
ATOM     27  C   UNL     1       2.398   1.416   0.003  0.00  0.00    -0.044 A 
ATOM     28  C   UNL     1       2.283   0.259  -0.746  0.00  0.00    -0.042 A 
ATOM     29  C   UNL     1       1.095  -0.451  -0.742  0.00  0.00    +0.027 A 
ATOM     30  C   UNL     1       0.018  -0.003   0.012  0.00  0.00    +0.034 A 
ATOM     31  C   UNL     1       3.583  -0.013  -1.471  0.00  0.00    +0.036 C 
ATOM     32  C   UNL     1       4.353   1.325  -1.435  0.00  0.00    +0.009 C 
ATOM     33  C   UNL     1       3.784   2.000  -0.169  0.00  0.00    +0.036 C 
ENDBRANCH  21  30
ENDBRANCH   1  22
TORSDOF 4
