REMARK  Name = ZINC12467542
REMARK  4 active torsions:
REMARK  status: ('A' for Active; 'I' for Inactive)
REMARK    1  A    between atoms: C_1  and  C_2
REMARK    2  A    between atoms: C_17  and  C_19
REMARK    3  A    between atoms: N_24  and  S_25
REMARK    4  A    between atoms: S_25  and  C_28
REMARK                            x       y       z     vdW  Elec       q    Type
REMARK                         _______ _______ _______ _____ _____    ______ ____
ROOT
ATOM      1  C   UNL     1       1.974   9.431  12.299  0.00  0.00    +0.044 C 
ATOM      2  C   UNL     1       2.097   8.625  11.031  0.00  0.00    -0.049 A 
ATOM      3  C   UNL     1       2.957   7.538  10.972  0.00  0.00    +0.005 A 
ATOM      4  C   UNL     1       3.087   6.789   9.832  0.00  0.00    +0.029 A 
ATOM      5  C   UNL     1       2.342   7.104   8.672  0.00  0.00    +0.080 A 
ATOM      6  C   UNL     1       1.477   8.217   8.768  0.00  0.00    +0.041 A 
ATOM      7  C   UNL     1       1.354   8.962   9.914  0.00  0.00    +0.020 A 
ATOM      8  S   UNL     1       0.750   8.273   7.148  0.00  0.00    -0.052 S 
ATOM      9  C   UNL     1       1.610   6.863   6.466  0.00  0.00    +0.162 A 
ATOM     10  N   UNL     1       2.349   6.469   7.479  0.00  0.00    -0.225 NA
ATOM     11  N   UNL     1       1.518   6.322   5.200  0.00  0.00    -0.307 N 
ATOM     12  C   UNL     1       2.404   5.159   5.059  0.00  0.00    +0.126 C 
ATOM     13  C   UNL     1       2.409   4.700   3.597  0.00  0.00    +0.127 C 
ATOM     14  N   UNL     1       1.019   4.478   3.171  0.00  0.00    -0.297 N 
ATOM     15  C   UNL     1       0.041   5.552   3.401  0.00  0.00    +0.127 C 
ATOM     16  C   UNL     1       0.128   5.975   4.876  0.00  0.00    +0.126 C 
ATOM     17  C   UNL     1       0.652   3.323   2.582  0.00  0.00    +0.235 C 
ATOM     18  O   UNL     1       1.449   2.414   2.480  0.00  0.00    -0.274 OA
ENDROOT
BRANCH  17  19
ATOM     19  C   UNL     1      -0.748   3.160   2.048  0.00  0.00    +0.166 C 
ATOM     20  C   UNL     1      -1.681   2.648   3.165  0.00  0.00    +0.031 C 
ATOM     21  C   UNL     1      -2.604   1.648   2.418  0.00  0.00    +0.019 C 
ATOM     22  C   UNL     1      -1.626   1.036   1.384  0.00  0.00    +0.110 C 
ATOM     23  N   UNL     1      -0.760   2.157   0.974  0.00  0.00    -0.164 NA
BRANCH  23  24
ATOM     24  S   UNL     1       0.067   2.264  -0.457  0.00  0.00    +0.068 S 
ATOM     25  O   UNL     1       0.248   0.933  -0.921  0.00  0.00    -0.152 OA
ATOM     26  O   UNL     1       1.157   3.147  -0.230  0.00  0.00    -0.152 OA
BRANCH  24  27
ATOM     27  C   UNL     1      -0.996   3.061  -1.614  0.00  0.00    +0.144 A 
ATOM     28  C   UNL     1      -1.130   4.384  -1.878  0.00  0.00    +0.038 A 
ATOM     29  C   UNL     1      -2.035   4.786  -2.844  0.00  0.00    +0.030 A 
ATOM     30  C   UNL     1      -2.769   3.845  -3.489  0.00  0.00    +0.080 A 
ATOM     31  S   UNL     1      -2.180   2.337  -2.737  0.00  0.00    -0.057 S 
ATOM     32 CL   UNL     1      -3.969   4.054  -4.726  0.00  0.00    -0.076 Cl
ENDBRANCH  24  27
ENDBRANCH  23  24
ENDBRANCH  17  19
TORSDOF 3
