REMARK  Name = ZINC09969702
REMARK  7 active torsions:
REMARK  status: ('A' for Active; 'I' for Inactive)
REMARK    1  A    between atoms: C_4  and  C_7
REMARK    2  A    between atoms: C_7  and  N_60
REMARK    3  A    between atoms: C_8  and  C_14
REMARK    4  A    between atoms: C_8  and  N_60
REMARK    5  A    between atoms: N_18  and  C_19
REMARK    6  A    between atoms: C_19  and  C_21
REMARK    7  A    between atoms: C_19  and  C_28
REMARK                            x       y       z     vdW  Elec       q    Type
REMARK                         _______ _______ _______ _____ _____    ______ ____
ROOT
ATOM      1  C   UNL     1       2.568  -1.424  -2.971  0.00  0.00    +0.142 A 
ATOM      2  N   UNL     1       3.296  -2.467  -3.284  0.00  0.00    -0.115 NA
ATOM      3  N   UNL     1       3.347  -2.546  -4.569  0.00  0.00    -0.023 NA
ATOM      4  N   UNL     1       2.670  -1.579  -5.084  0.00  0.00    -0.043 NA
ATOM      5  N   UNL     1       2.170  -0.868  -4.130  0.00  0.00    -0.219 N 
ENDROOT
BRANCH   1   6
ATOM      6  C   UNL     1       2.235  -0.943  -1.582  0.00  0.00    -0.005 C 
ATOM      7  C   UNL     1       0.716  -0.854  -1.423  0.00  0.00    -0.005 C 
ATOM      8  C   UNL     1       0.378  -0.366  -0.013  0.00  0.00    -0.001 C 
ATOM      9  C   UNL     1       0.997   1.016   0.210  0.00  0.00    -0.000 C 
ATOM     10  C   UNL     1       2.516   0.926   0.052  0.00  0.00    -0.001 C 
ATOM     11  C   UNL     1       2.853   0.438  -1.358  0.00  0.00    -0.005 C 
BRANCH   6  12
ATOM     12  N   UNL     1       2.770  -1.893  -0.588  0.00  0.00    +0.390 N 
ATOM     13  H   UNL     1       2.454  -1.617   0.349  0.00  0.00    -0.084 HD
ATOM     14  H   UNL     1       2.424  -2.837  -0.801  0.00  0.00    -0.084 HD
BRANCH  12  15
ATOM     15  C   UNL     1       4.245  -1.896  -0.624  0.00  0.00    -0.045 C 
BRANCH  15  19
ATOM     16  C   UNL     1       5.703  -4.940   1.994  0.00  0.00    +0.000 A 
ATOM     17  C   UNL     1       5.353  -5.255   0.694  0.00  0.00    +0.000 A 
ATOM     18  C   UNL     1       4.881  -4.270  -0.153  0.00  0.00    +0.002 A 
ATOM     19  C   UNL     1       4.759  -2.970   0.300  0.00  0.00    -0.064 A 
ATOM     20  C   UNL     1       5.115  -2.653   1.598  0.00  0.00    +0.002 A 
ATOM     21  C   UNL     1       5.582  -3.639   2.446  0.00  0.00    +0.000 A 
ENDBRANCH  15  19
ENDBRANCH  12  15
ENDBRANCH   6  12
ENDBRANCH   1   6
BRANCH   5  22
ATOM     22  C   UNL     1       1.329   0.322  -4.281  0.00  0.00    +0.172 C 
BRANCH  22  23
ATOM     23  C   UNL     1      -0.027  -0.084  -4.801  0.00  0.00    -0.018 A 
ATOM     24  C   UNL     1      -0.125  -0.923  -5.895  0.00  0.00    +0.007 A 
ATOM     25  C   UNL     1      -1.367  -1.299  -6.368  0.00  0.00    +0.020 A 
ATOM     26  C   UNL     1      -2.514  -0.827  -5.754  0.00  0.00    +0.041 A 
ATOM     27  C   UNL     1      -2.415   0.018  -4.663  0.00  0.00    +0.020 A 
ATOM     28  C   UNL     1      -1.172   0.389  -4.187  0.00  0.00    +0.007 A 
ATOM     29 CL   UNL     1      -4.075  -1.293  -6.353  0.00  0.00    -0.084 Cl
ENDBRANCH  22  23
BRANCH  22  30
ATOM     30  C   UNL     1       1.976   1.274  -5.254  0.00  0.00    -0.000 A 
ATOM     31  C   UNL     1       2.360   0.829  -6.505  0.00  0.00    +0.007 A 
ATOM     32  C   UNL     1       2.949   1.703  -7.399  0.00  0.00    +0.000 A 
ATOM     33  C   UNL     1       3.163   3.020  -7.039  0.00  0.00    +0.001 A 
ATOM     34  C   UNL     1       2.784   3.465  -5.787  0.00  0.00    +0.020 A 
ATOM     35  C   UNL     1       2.190   2.592  -4.894  0.00  0.00    +0.046 A 
ATOM     36 CL   UNL     1       1.713   3.150  -3.320  0.00  0.00    -0.083 Cl
ENDBRANCH  22  30
ENDBRANCH   5  22
TORSDOF 7
