REMARK  Name = ZINC36508419
REMARK  17 active torsions:
REMARK  status: ('A' for Active; 'I' for Inactive)
REMARK    1  A    between atoms: C_1  and  C_2
REMARK    2  A    between atoms: C_2  and  C_3
REMARK    3  A    between atoms: C_3  and  C_4
REMARK    4  A    between atoms: C_4  and  C_5
REMARK    5  A    between atoms: C_5  and  C_6
REMARK    6  A    between atoms: C_6  and  N_7
REMARK    7  A    between atoms: N_7  and  C_8
REMARK    8  A    between atoms: C_8  and  C_10
REMARK    9  A    between atoms: C_8  and  C_15
REMARK   10  A    between atoms: C_11  and  C_12
REMARK   11  A    between atoms: C_12  and  C_13
REMARK   12  A    between atoms: C_13  and  C_14
REMARK   13  A    between atoms: N_17  and  C_18
REMARK   14  A    between atoms: C_18  and  C_19
REMARK   15  A    between atoms: C_19  and  C_20
REMARK   16  A    between atoms: C_20  and  C_21
REMARK   17  A    between atoms: C_22  and  C_24
REMARK                            x       y       z     vdW  Elec       q    Type
REMARK                         _______ _______ _______ _____ _____    ______ ____
ROOT
ATOM      1  N   UNL     1      -4.406  -4.312   0.068  0.00  0.00    -0.286 N 
ATOM      2  C   UNL     1      -4.787  -4.965   1.184  0.00  0.00    +0.219 C 
ATOM      3  O   UNL     1      -5.707  -5.755   1.140  0.00  0.00    -0.275 OA
ENDROOT
BRANCH   2   4
ATOM      4  C   UNL     1      -4.072  -4.713   2.486  0.00  0.00    +0.075 C 
ATOM      5  C   UNL     1      -2.697  -5.383   2.451  0.00  0.00    +0.013 C 
ATOM      6  C   UNL     1      -1.971  -5.127   3.773  0.00  0.00    +0.001 C 
ATOM      7  C   UNL     1      -2.792  -5.707   4.926  0.00  0.00    +0.000 C 
ATOM      8  C   UNL     1      -4.167  -5.037   4.962  0.00  0.00    +0.001 C 
ATOM      9  C   UNL     1      -4.893  -5.293   3.640  0.00  0.00    +0.013 C 
ENDBRANCH   2   4
BRANCH   1  10
ATOM     10  C   UNL     1      -3.232  -3.436   0.097  0.00  0.00    +0.109 C 
BRANCH  10  11
ATOM     11  C   UNL     1      -3.680  -1.991   0.325  0.00  0.00    +0.019 C 
BRANCH  11  12
ATOM     12  C   UNL     1      -2.454  -1.076   0.355  0.00  0.00    +0.002 C 
BRANCH  12  13
ATOM     13  C   UNL     1      -2.901   0.369   0.583  0.00  0.00    -0.000 C 
BRANCH  13  15
ATOM     14  C   UNL     1      -2.123   2.729   0.841  0.00  0.00    +0.004 C 
ATOM     15  C   UNL     1      -1.675   1.284   0.613  0.00  0.00    -0.003 C 
ENDBRANCH  13  15
ENDBRANCH  12  13
ENDBRANCH  11  12
ENDBRANCH  10  11
ENDBRANCH   1  10
BRANCH   1  16
ATOM     16  C   UNL     1      -5.165  -4.479  -1.174  0.00  0.00    +0.185 C 
BRANCH  16  17
ATOM     17  C   UNL     1      -6.587  -4.029  -0.957  0.00  0.00    +0.238 C 
ATOM     18  O   UNL     1      -6.933  -3.611   0.128  0.00  0.00    -0.273 OA
ATOM     19  N   UNL     1      -7.475  -4.092  -1.969  0.00  0.00    -0.314 N 
ATOM     20  H   UNL     1      -7.199  -4.427  -2.837  0.00  0.00    +0.149 HD
BRANCH  19  21
ATOM     21  C   UNL     1      -8.858  -3.655  -1.759  0.00  0.00    +0.104 C 
BRANCH  21  22
ATOM     22  C   UNL     1      -9.651  -3.829  -3.055  0.00  0.00    +0.018 C 
BRANCH  22  23
ATOM     23  C   UNL     1     -11.094  -3.373  -2.836  0.00  0.00    -0.002 C 
ATOM     24  C   UNL     1     -11.887  -3.547  -4.133  0.00  0.00    +0.004 C 
ENDBRANCH  22  23
ENDBRANCH  21  22
ENDBRANCH  19  21
ENDBRANCH  16  17
BRANCH  16  25
ATOM     25  C   UNL     1      -5.153  -5.930  -1.579  0.00  0.00    +0.000 C 
ATOM     26  C   UNL     1      -4.556  -6.297  -2.686  0.00  0.00    -0.029 C 
BRANCH  26  27
ATOM     27  C   UNL     1      -4.544  -7.748  -3.091  0.00  0.00    +0.027 C 
BRANCH  27  28
ATOM     28  C   UNL     1      -5.116  -7.888  -4.503  0.00  0.00    +0.001 C 
ATOM     29  C   UNL     1      -5.104  -9.362  -4.914  0.00  0.00    +0.004 C 
ENDBRANCH  27  28
ENDBRANCH  26  27
ENDBRANCH  16  25
ENDBRANCH   1  16
TORSDOF 14
