REMARK  Name = ZINC09371057
REMARK  7 active torsions:
REMARK  status: ('A' for Active; 'I' for Inactive)
REMARK    1  A    between atoms: C_1  and  C_2
REMARK    2  A    between atoms: C_5  and  N_9
REMARK    3  A    between atoms: C_10  and  N_11
REMARK    4  A    between atoms: N_11  and  C_12
REMARK    5  A    between atoms: C_14  and  C_19
REMARK    6  A    between atoms: C_16  and  C_18
REMARK    7  A    between atoms: N_23  and  C_24
REMARK                            x       y       z     vdW  Elec       q    Type
REMARK                         _______ _______ _______ _____ _____    ______ ____
ROOT
ATOM      1  N   UNL     1      -0.156  -2.886   0.570  0.00  0.00    -0.213 NA
ATOM      2  C   UNL     1       0.457  -3.723   1.386  0.00  0.00    +0.233 C 
ATOM      3  N   UNL     1       1.601  -3.357   1.990  0.00  0.00    -0.306 N 
ATOM      4  C   UNL     1       2.169  -4.160   2.872  0.00  0.00    +0.150 C 
ATOM      5  S   UNL     1       1.351  -5.638   3.373  0.00  0.00    -0.016 SA
ATOM      6  N   UNL     1       3.394  -3.844   3.397  0.00  0.00    -0.295 N 
ATOM      7  H   UNL     1       3.711  -4.295   4.195  0.00  0.00    +0.154 HD
ATOM      8  H   UNL     1       2.009  -2.503   1.778  0.00  0.00    +0.171 HD
ENDROOT
BRANCH   1  13
ATOM      9  C   UNL     1       1.688   2.425   0.064  0.00  0.00    +0.045 C 
ATOM     10  C   UNL     1       1.196   1.007   0.199  0.00  0.00    -0.032 A 
ATOM     11  C   UNL     1       0.976   0.243  -0.933  0.00  0.00    +0.007 A 
ATOM     12  C   UNL     1       0.526  -1.055  -0.817  0.00  0.00    +0.028 A 
ATOM     13  C   UNL     1       0.291  -1.599   0.448  0.00  0.00    +0.069 A 
ATOM     14  C   UNL     1       0.515  -0.823   1.588  0.00  0.00    +0.048 A 
ATOM     15  C   UNL     1       0.971   0.473   1.457  0.00  0.00    +0.046 A 
ATOM     16 CL   UNL     1       1.257   1.438   2.872  0.00  0.00    -0.083 Cl
ENDBRANCH   1  13
BRANCH   6  17
ATOM     17  C   UNL     1       4.187  -2.870   2.783  0.00  0.00    +0.033 A 
ATOM     18  C   UNL     1       4.156  -2.714   1.403  0.00  0.00    +0.023 A 
ATOM     19  C   UNL     1       4.940  -1.751   0.800  0.00  0.00    +0.002 A 
ATOM     20  C   UNL     1       5.757  -0.942   1.568  0.00  0.00    +0.000 A 
ATOM     21  C   UNL     1       5.791  -1.094   2.942  0.00  0.00    +0.002 A 
ATOM     22  C   UNL     1       5.005  -2.051   3.552  0.00  0.00    +0.023 A 
ENDBRANCH   6  17
BRANCH   2  23
ATOM     23  N   UNL     1      -0.076  -4.976   1.619  0.00  0.00    -0.175 NA
BRANCH  23  24
ATOM     24  C   UNL     1      -1.241  -5.365   0.974  0.00  0.00    +0.254 A 
ATOM     25  N   UNL     1      -1.807  -4.537   0.108  0.00  0.00    -0.216 NA
ATOM     26  C   UNL     1      -2.918  -4.877  -0.525  0.00  0.00    +0.044 A 
ATOM     27  C   UNL     1      -3.488  -6.115  -0.273  0.00  0.00    +0.046 A 
ATOM     28  C   UNL     1      -2.869  -6.956   0.639  0.00  0.00    +0.044 A 
ATOM     29  N   UNL     1      -1.757  -6.556   1.234  0.00  0.00    -0.216 NA
ATOM     30  C   UNL     1      -3.453  -8.312   0.945  0.00  0.00    +0.066 C 
ATOM     31  C   UNL     1      -3.556  -3.930  -1.508  0.00  0.00    +0.066 C 
ENDBRANCH  23  24
ENDBRANCH   2  23
TORSDOF 4
