REMARK  Name = ZINC53536632
REMARK  9 active torsions:
REMARK  status: ('A' for Active; 'I' for Inactive)
REMARK    1  A    between atoms: C_1  and  C_2
REMARK    2  A    between atoms: C_2  and  C_3
REMARK    3  A    between atoms: C_3  and  C_5
REMARK    4  A    between atoms: C_3  and  N_15
REMARK    5  A    between atoms: C_10  and  C_14
REMARK    6  A    between atoms: N_15  and  C_16
REMARK    7  A    between atoms: N_19  and  C_22
REMARK    8  A    between atoms: C_25  and  N_28
REMARK    9  A    between atoms: C_29  and  C_31
REMARK                            x       y       z     vdW  Elec       q    Type
REMARK                         _______ _______ _______ _____ _____    ______ ____
ROOT
ATOM      1  C   UNL     1      -0.111   1.202  -2.830  0.00  0.00    -0.068 C 
ATOM      2  C   UNL     1      -0.837   1.982  -1.732  0.00  0.00    +0.003 C 
ATOM      3  C   UNL     1      -0.745   3.482  -2.030  0.00  0.00    +0.103 C 
ATOM      4  N   UNL     1      -1.259   3.727  -3.385  0.00  0.00    -0.330 N 
ATOM      5  C   UNL     1      -0.691   2.963  -4.504  0.00  0.00    +0.103 C 
ATOM      6  C   UNL     1      -0.784   1.469  -4.178  0.00  0.00    +0.003 C 
ENDROOT
BRANCH   4   7
ATOM      7  C   UNL     1      -2.268   4.670  -3.605  0.00  0.00    +0.030 A 
ATOM      8  C   UNL     1      -2.707   5.474  -2.561  0.00  0.00    +0.025 A 
ATOM      9  C   UNL     1      -3.704   6.404  -2.778  0.00  0.00    +0.025 A 
ATOM     10  C   UNL     1      -4.268   6.536  -4.040  0.00  0.00    +0.034 A 
ATOM     11  C   UNL     1      -3.829   5.732  -5.084  0.00  0.00    +0.025 A 
ATOM     12  C   UNL     1      -2.828   4.806  -4.868  0.00  0.00    +0.025 A 
BRANCH  10  13
ATOM     13  N   UNL     1      -5.279   7.479  -4.260  0.00  0.00    -0.280 N 
ATOM     14  C   UNL     1      -6.271   7.213  -5.133  0.00  0.00    +0.268 C 
ATOM     15  O   UNL     1      -6.337   6.121  -5.663  0.00  0.00    -0.268 OA
ATOM     16  H   UNL     1      -5.267   8.324  -3.783  0.00  0.00    +0.155 HD
BRANCH  14  17
ATOM     17  C   UNL     1      -7.280   8.250  -5.446  0.00  0.00    +0.144 A 
ATOM     18  C   UNL     1      -8.311   7.975  -6.345  0.00  0.00    +0.143 A 
ATOM     19  N   UNL     1      -9.209   8.903  -6.620  0.00  0.00    -0.259 NA
ATOM     20  C   UNL     1      -9.132  10.091  -6.046  0.00  0.00    +0.130 A 
ATOM     21  C   UNL     1      -8.108  10.368  -5.151  0.00  0.00    +0.131 A 
ATOM     22  N   UNL     1      -7.211   9.445  -4.866  0.00  0.00    -0.247 NA
ENDBRANCH  14  17
ENDBRANCH  10  13
ENDBRANCH   4   7
BRANCH   1  23
ATOM     23  N   UNL     1      -0.168  -0.235  -2.530  0.00  0.00    +0.388 N 
ATOM     24  H   UNL     1       0.242  -0.754  -3.292  0.00  0.00    -0.084 HD
ATOM     25  H   UNL     1      -1.130  -0.515  -2.411  0.00  0.00    -0.084 HD
BRANCH  23  26
ATOM     26  C   UNL     1       0.577  -0.507  -1.294  0.00  0.00    -0.004 C 
BRANCH  26  27
ATOM     27  C   UNL     1       2.034  -0.181  -1.504  0.00  0.00    +0.094 A 
ATOM     28  N   UNL     1       2.637  -0.173  -2.656  0.00  0.00    -0.234 NA
ATOM     29  C   UNL     1       3.942   0.161  -2.486  0.00  0.00    +0.089 A 
ATOM     30  C   UNL     1       5.020   0.316  -3.362  0.00  0.00    +0.030 A 
ATOM     31  C   UNL     1       6.247   0.668  -2.877  0.00  0.00    +0.005 A 
ATOM     32  C   UNL     1       6.437   0.876  -1.518  0.00  0.00    -0.048 A 
ATOM     33  C   UNL     1       5.389   0.729  -0.635  0.00  0.00    +0.031 A 
ATOM     34  C   UNL     1       4.135   0.371  -1.110  0.00  0.00    +0.066 A 
ATOM     35  N   UNL     1       2.908   0.153  -0.516  0.00  0.00    -0.343 N 
ATOM     36  C   UNL     1       7.800   1.264  -1.004  0.00  0.00    +0.044 C 
ATOM     37  H   UNL     1       2.706   0.223   0.430  0.00  0.00    +0.167 HD
ENDBRANCH  26  27
BRANCH  26  39
ATOM     38  C   UNL     1      -1.039  -2.302  -0.655  0.00  0.00    +0.002 C 
ATOM     39  C   UNL     1       0.433  -1.985  -0.926  0.00  0.00    -0.012 C 
ENDBRANCH  26  39
ENDBRANCH  23  26
ENDBRANCH   1  23
TORSDOF 7
