REMARK  Name = ZINC33272048
REMARK  4 active torsions:
REMARK  status: ('A' for Active; 'I' for Inactive)
REMARK    1  A    between atoms: C_1  and  C_2
REMARK    2  A    between atoms: C_4  and  C_19
REMARK    3  A    between atoms: N_8  and  C_18
REMARK    4  A    between atoms: N_21  and  C_22
REMARK                            x       y       z     vdW  Elec       q    Type
REMARK                         _______ _______ _______ _____ _____    ______ ____
ROOT
ATOM      1  C   UNL     1      -6.128  -2.028  -0.393  0.00  0.00    +0.046 C 
ATOM      2  C   UNL     1      -4.858  -2.834  -0.279  0.00  0.00    -0.027 A 
ATOM      3  C   UNL     1      -3.671  -2.131  -0.214  0.00  0.00    +0.018 A 
ATOM      4  C   UNL     1      -2.452  -2.811  -0.203  0.00  0.00    +0.038 A 
ATOM      5  C   UNL     1      -2.436  -4.200  -0.316  0.00  0.00    +0.023 A 
ATOM      6  C   UNL     1      -3.630  -4.913  -0.376  0.00  0.00    +0.008 A 
ATOM      7  C   UNL     1      -4.855  -4.220  -0.288  0.00  0.00    +0.062 A 
ATOM      8  N   UNL     1      -6.030  -4.967  -0.210  0.00  0.00    -0.205 N 
ATOM      9  S   UNL     1      -6.147  -6.230  -1.304  0.00  0.00    +0.075 S 
ATOM     10  O   UNL     1      -6.046  -5.667  -2.600  0.00  0.00    -0.150 OA
ATOM     11  O   UNL     1      -7.220  -7.050  -0.877  0.00  0.00    -0.150 OA
ATOM     12  C   UNL     1      -4.649  -7.122  -1.001  0.00  0.00    +0.116 A 
ATOM     13  C   UNL     1      -3.549  -6.385  -0.554  0.00  0.00    +0.011 A 
ATOM     14  C   UNL     1      -2.363  -7.063  -0.268  0.00  0.00    +0.010 A 
ATOM     15  C   UNL     1      -2.291  -8.430  -0.449  0.00  0.00    +0.001 A 
ATOM     16  C   UNL     1      -3.385  -9.139  -0.912  0.00  0.00    +0.002 A 
ATOM     17  C   UNL     1      -4.571  -8.477  -1.190  0.00  0.00    +0.029 A 
ATOM     18  C   UNL     1      -7.085  -4.747   0.774  0.00  0.00    +0.157 C 
ENDROOT
BRANCH   4  19
ATOM     19  C   UNL     1      -1.184  -2.064  -0.100  0.00  0.00    +0.248 C 
ATOM     20  O   UNL     1      -0.124  -2.661  -0.113  0.00  0.00    -0.270 OA
ATOM     21  N   UNL     1      -1.200  -0.721   0.009  0.00  0.00    -0.281 N 
ATOM     22  H   UNL     1      -2.158  -0.188   0.098  0.00  0.00    +0.155 HD
BRANCH  21  23
ATOM     23  C   UNL     1       0.003  -0.005   0.009  0.00  0.00    +0.037 A 
ATOM     24  C   UNL     1       0.065   1.248  -0.586  0.00  0.00    +0.026 A 
ATOM     25  C   UNL     1       1.252   1.955  -0.585  0.00  0.00    +0.043 A 
ATOM     26  C   UNL     1       2.380   1.415   0.009  0.00  0.00    +0.159 A 
ATOM     27  C   UNL     1       2.321   0.165   0.605  0.00  0.00    +0.160 A 
ATOM     28  C   UNL     1       1.133  -0.546   0.606  0.00  0.00    +0.064 A 
ATOM     29  F   UNL     1       3.422  -0.360   1.185  0.00  0.00    -0.202 F 
ATOM     30  F   UNL     1       3.540   2.108   0.009  0.00  0.00    -0.202 F 
ENDBRANCH  21  23
ENDBRANCH   4  19
TORSDOF 2
