REMARK  Name = ZINC36542386
REMARK  17 active torsions:
REMARK  status: ('A' for Active; 'I' for Inactive)
REMARK    1  A    between atoms: C_1  and  C_2
REMARK    2  A    between atoms: C_2  and  C_3
REMARK    3  A    between atoms: C_3  and  C_4
REMARK    4  A    between atoms: C_4  and  C_5
REMARK    5  A    between atoms: C_5  and  C_6
REMARK    6  A    between atoms: C_7  and  C_8
REMARK    7  A    between atoms: N_10  and  C_11
REMARK    8  A    between atoms: N_10  and  C_18
REMARK    9  A    between atoms: C_18  and  C_20
REMARK   10  A    between atoms: C_18  and  C_29
REMARK   11  A    between atoms: C_23  and  N_26
REMARK   12  A    between atoms: N_26  and  C_27
REMARK   13  A    between atoms: N_26  and  C_28
REMARK   14  A    between atoms: N_31  and  C_32
REMARK   15  A    between atoms: C_32  and  C_33
REMARK   16  A    between atoms: C_33  and  C_34
REMARK   17  A    between atoms: C_34  and  C_35
REMARK                            x       y       z     vdW  Elec       q    Type
REMARK                         _______ _______ _______ _____ _____    ______ ____
ROOT
ATOM      1  C   UNL     1       4.353  -8.425   2.978  0.00  0.00    +0.197 C 
ENDROOT
BRANCH   1   2
ATOM      2  C   UNL     1       4.604  -7.597   4.212  0.00  0.00    -0.018 A 
ATOM      3  C   UNL     1       4.793  -6.231   4.099  0.00  0.00    +0.008 A 
ATOM      4  C   UNL     1       5.024  -5.469   5.228  0.00  0.00    +0.023 A 
ATOM      5  C   UNL     1       5.066  -6.076   6.477  0.00  0.00    +0.029 A 
ATOM      6  C   UNL     1       4.875  -7.447   6.586  0.00  0.00    +0.023 A 
ATOM      7  C   UNL     1       4.639  -8.203   5.455  0.00  0.00    +0.008 A 
BRANCH   5   8
ATOM      8  N   UNL     1       5.299  -5.308   7.620  0.00  0.00    -0.336 N 
ATOM      9  C   UNL     1       5.369  -3.848   7.521  0.00  0.00    +0.129 C 
ATOM     10  C   UNL     1       5.475  -5.963   8.919  0.00  0.00    +0.129 C 
ENDBRANCH   5   8
ENDBRANCH   1   2
BRANCH   1  11
ATOM     11  C   UNL     1       5.655  -8.664   2.259  0.00  0.00    +0.238 C 
ATOM     12  O   UNL     1       6.107  -7.811   1.525  0.00  0.00    -0.273 OA
ATOM     13  N   UNL     1       6.318  -9.824   2.432  0.00  0.00    -0.313 N 
ATOM     14  H   UNL     1       5.956 -10.506   3.020  0.00  0.00    +0.149 HD
BRANCH  13  15
ATOM     15  C   UNL     1       7.584 -10.056   1.733  0.00  0.00    +0.104 C 
BRANCH  15  16
ATOM     16  C   UNL     1       8.124 -11.440   2.101  0.00  0.00    +0.018 C 
BRANCH  16  17
ATOM     17  C   UNL     1       9.447 -11.682   1.371  0.00  0.00    -0.002 C 
ATOM     18  C   UNL     1       9.986 -13.065   1.739  0.00  0.00    +0.004 C 
ENDBRANCH  16  17
ENDBRANCH  15  16
ENDBRANCH  13  15
ENDBRANCH   1  11
BRANCH   1  21
ATOM     19  C   UNL     1       2.206  -7.361   2.536  0.00  0.00    +0.244 C 
ATOM     20  O   UNL     1       1.869  -7.635   3.672  0.00  0.00    -0.270 OA
ATOM     21  N   UNL     1       3.429  -7.713   2.092  0.00  0.00    -0.250 N 
BRANCH  21  22
ATOM     22  C   UNL     1       3.816  -7.398   0.785  0.00  0.00    +0.056 A 
ATOM     23  C   UNL     1       4.597  -6.276   0.542  0.00  0.00    +0.025 A 
ATOM     24  C   UNL     1       4.978  -5.968  -0.749  0.00  0.00    +0.002 A 
ATOM     25  C   UNL     1       4.582  -6.775  -1.800  0.00  0.00    +0.002 A 
ATOM     26  C   UNL     1       3.804  -7.893  -1.563  0.00  0.00    +0.022 A 
ATOM     27  C   UNL     1       3.425  -8.211  -0.272  0.00  0.00    +0.062 A 
ATOM     28 CL   UNL     1       2.454  -9.619   0.027  0.00  0.00    -0.082 Cl
ENDBRANCH  21  22
BRANCH  19  30
ATOM     29  C   UNL     1       0.071  -6.299   2.084  0.00  0.00    -0.022 C 
ATOM     30  C   UNL     1       1.278  -6.646   1.646  0.00  0.00    +0.063 C 
BRANCH  29  31
ATOM     31  C   UNL     1      -0.879  -5.566   1.172  0.00  0.00    +0.027 C 
BRANCH  31  32
ATOM     32  C   UNL     1      -2.200  -6.333   1.089  0.00  0.00    +0.004 C 
BRANCH  32  33
ATOM     33  C   UNL     1      -3.165  -5.590   0.164  0.00  0.00    +0.000 C 
BRANCH  33  35
ATOM     34  C   UNL     1      -5.451  -5.613  -0.844  0.00  0.00    +0.004 C 
ATOM     35  C   UNL     1      -4.486  -6.357   0.082  0.00  0.00    -0.003 C 
ENDBRANCH  33  35
ENDBRANCH  32  33
ENDBRANCH  31  32
ENDBRANCH  29  31
ENDBRANCH  19  30
ENDBRANCH   1  21
TORSDOF 13
