REMARK  Name = ZINC04699892
REMARK  5 active torsions:
REMARK  status: ('A' for Active; 'I' for Inactive)
REMARK    1  A    between atoms: C_1  and  N_2
REMARK    2  A    between atoms: C_5  and  C_17
REMARK    3  A    between atoms: N_9  and  C_10
REMARK    4  A    between atoms: C_17  and  C_18
REMARK    5  A    between atoms: N_20  and  C_21
REMARK                            x       y       z     vdW  Elec       q    Type
REMARK                         _______ _______ _______ _____ _____    ______ ____
ROOT
ATOM      1  C   UNL     1       5.912   2.267   0.862  0.00  0.00    +0.140 C 
ATOM      2  N   UNL     1       4.614   1.588   0.908  0.00  0.00    -0.253 N 
ATOM      3  C   UNL     1       3.782   1.733  -0.109  0.00  0.00    +0.235 C 
ATOM      4  O   UNL     1       4.060   2.409  -1.077  0.00  0.00    -0.274 OA
ATOM      5  C   UNL     1       2.456   1.000   0.010  0.00  0.00    +0.149 C 
ATOM      6  S   UNL     1       2.669   0.199   1.649  0.00  0.00    -0.077 S 
ATOM      7  C   UNL     1       4.304   0.821   2.011  0.00  0.00    +0.164 C 
ATOM      8  N   UNL     1       5.037   0.600   3.077  0.00  0.00    -0.226 NA
ENDROOT
BRANCH   8   9
ATOM      9  C   UNL     1       4.561  -0.197   4.083  0.00  0.00    +0.067 A 
ATOM     10  C   UNL     1       3.251  -0.039   4.542  0.00  0.00    +0.029 A 
ATOM     11  C   UNL     1       2.775  -0.849   5.553  0.00  0.00    +0.022 A 
ATOM     12  C   UNL     1       3.596  -1.810   6.118  0.00  0.00    +0.041 A 
ATOM     13  C   UNL     1       4.897  -1.968   5.671  0.00  0.00    +0.022 A 
ATOM     14  C   UNL     1       5.383  -1.168   4.658  0.00  0.00    +0.029 A 
ATOM     15 CL   UNL     1       2.992  -2.821   7.394  0.00  0.00    -0.084 Cl
ENDBRANCH   8   9
BRANCH   5  16
ATOM     16  C   UNL     1       1.280   1.979   0.020  0.00  0.00    +0.120 C 
BRANCH  16  17
ATOM     17  C   UNL     1      -0.015   1.208   0.016  0.00  0.00    +0.219 C 
ATOM     18  O   UNL     1       0.001  -0.005   0.006  0.00  0.00    -0.275 OA
ATOM     19  N   UNL     1      -1.191   1.867   0.018  0.00  0.00    -0.283 N 
ATOM     20  H   UNL     1      -1.205   2.834   0.091  0.00  0.00    +0.155 HD
BRANCH  19  21
ATOM     21  C   UNL     1      -2.392   1.155  -0.086  0.00  0.00    +0.069 A 
ATOM     22  C   UNL     1      -2.511  -0.099   0.499  0.00  0.00    +0.026 A 
ATOM     23  C   UNL     1      -3.699  -0.796   0.400  0.00  0.00    +0.002 A 
ATOM     24  C   UNL     1      -4.767  -0.253  -0.291  0.00  0.00    +0.003 A 
ATOM     25  C   UNL     1      -4.652   0.992  -0.880  0.00  0.00    +0.040 A 
ATOM     26  C   UNL     1      -3.467   1.699  -0.780  0.00  0.00    +0.144 A 
ATOM     27  F   UNL     1      -3.354   2.916  -1.356  0.00  0.00    -0.204 F 
ENDBRANCH  19  21
ENDBRANCH  16  17
ENDBRANCH   5  16
TORSDOF 4
