REMARK  Name = ZINC32075236
REMARK  5 active torsions:
REMARK  status: ('A' for Active; 'I' for Inactive)
REMARK    1  A    between atoms: C_1  and  O_2
REMARK    2  A    between atoms: O_2  and  C_3
REMARK    3  A    between atoms: C_5  and  C_11
REMARK    4  A    between atoms: C_8  and  O_9
REMARK    5  A    between atoms: C_15  and  N_23
REMARK                            x       y       z     vdW  Elec       q    Type
REMARK                         _______ _______ _______ _____ _____    ______ ____
ROOT
ATOM      1  C   UNL     1      -4.551  -0.917  -0.402  0.00  0.00    +0.021 C 
ATOM      2  C   UNL     1      -5.822  -1.369  -0.193  0.00  0.00    +0.047 C 
ATOM      3  C   UNL     1      -6.726  -1.031   0.931  0.00  0.00    +0.011 A 
ATOM      4  C   UNL     1      -6.592  -0.212   2.047  0.00  0.00    +0.044 A 
ATOM      5  C   UNL     1      -7.638  -0.096   2.940  0.00  0.00    +0.145 A 
ATOM      6  C   UNL     1      -8.817  -0.792   2.723  0.00  0.00    +0.073 A 
ATOM      7  C   UNL     1      -8.959  -1.607   1.617  0.00  0.00    +0.046 A 
ATOM      8  C   UNL     1      -7.915  -1.737   0.708  0.00  0.00    +0.043 A 
ATOM      9  N   UNL     1      -7.797  -2.475  -0.464  0.00  0.00    -0.281 N 
ATOM     10  C   UNL     1      -6.595  -2.295  -1.038  0.00  0.00    +0.249 C 
ATOM     11  O   UNL     1      -6.212  -2.809  -2.073  0.00  0.00    -0.270 OA
ATOM     12 CL   UNL     1     -10.127  -0.637   3.851  0.00  0.00    -0.081 Cl
ATOM     13  H   UNL     1      -8.633  -3.102  -0.806  0.00  0.00    +0.155 HD
ENDROOT
BRANCH   1  16
ATOM     14  C   UNL     1      -2.474   1.685   1.321  0.00  0.00    +0.163 A 
ATOM     15  C   UNL     1      -3.130   0.986   0.327  0.00  0.00    +0.057 A 
ATOM     16  C   UNL     1      -3.858  -0.167   0.650  0.00  0.00    -0.020 A 
ATOM     17  C   UNL     1      -3.925  -0.598   1.982  0.00  0.00    +0.027 A 
ATOM     18  C   UNL     1      -3.271   0.109   2.967  0.00  0.00    +0.063 A 
ATOM     19  C   UNL     1      -2.546   1.249   2.644  0.00  0.00    +0.173 A 
ATOM     20 BR   UNL     1      -3.362  -0.474   4.763  0.00  0.00    -0.046 Br
BRANCH  14  22
ATOM     21  C   UNL     1      -1.733   3.190  -0.364  0.00  0.00    +0.277 C 
ATOM     22  O   UNL     1      -1.763   2.801   1.010  0.00  0.00    -0.491 OA
ENDBRANCH  14  22
BRANCH  19  23
ATOM     23  O   UNL     1      -1.904   1.942   3.620  0.00  0.00    -0.503 OA
ATOM     24  H   UNL     1      -1.959   1.600   4.664  0.00  0.00    +0.292 HD
ENDBRANCH  19  23
ENDBRANCH   1  16
BRANCH   5  25
ATOM     25  N   UNL     1      -7.502   0.774   4.130  0.00  0.00    +0.058 N 
ATOM     26  O   UNL     1      -6.510   1.468   4.266  0.00  0.00    -0.126 OA
ATOM     27  O   UNL     1      -8.381   0.797   4.972  0.00  0.00    -0.126 OA
ENDBRANCH   5  25
TORSDOF 4
