REMARK  Name = ZINC39965276
REMARK  9 active torsions:
REMARK  status: ('A' for Active; 'I' for Inactive)
REMARK    1  A    between atoms: C_1  and  C_2
REMARK    2  A    between atoms: C_5  and  C_35
REMARK    3  A    between atoms: N_8  and  S_10
REMARK    4  A    between atoms: S_10  and  C_13
REMARK    5  A    between atoms: C_16  and  N_19
REMARK    6  A    between atoms: C_20  and  C_22
REMARK    7  A    between atoms: C_22  and  N_23
REMARK    8  A    between atoms: N_26  and  C_29
REMARK    9  A    between atoms: C_29  and  C_30
REMARK                            x       y       z     vdW  Elec       q    Type
REMARK                         _______ _______ _______ _____ _____    ______ ____
ROOT
ATOM      1  N   UNL     1       3.843  -4.106  -4.087  0.00  0.00    -0.287 N 
ATOM      2  C   UNL     1       4.018  -5.384  -4.477  0.00  0.00    +0.201 C 
ATOM      3  O   UNL     1       3.711  -6.292  -3.734  0.00  0.00    -0.278 OA
ATOM      4  H   UNL     1       4.025  -3.381  -4.705  0.00  0.00    +0.155 HD
ENDROOT
BRANCH   1   8
ATOM      5  C   UNL     1       2.524  -3.269  -0.225  0.00  0.00    +0.106 A 
ATOM      6  C   UNL     1       2.056  -4.389  -0.886  0.00  0.00    +0.030 A 
ATOM      7  C   UNL     1       2.492  -4.670  -2.166  0.00  0.00    +0.025 A 
ATOM      8  C   UNL     1       3.400  -3.824  -2.790  0.00  0.00    +0.033 A 
ATOM      9  C   UNL     1       3.868  -2.699  -2.123  0.00  0.00    +0.025 A 
ATOM     10  C   UNL     1       3.425  -2.422  -0.845  0.00  0.00    +0.030 A 
BRANCH   5  11
ATOM     11  S   UNL     1       1.967  -2.915   1.409  0.00  0.00    +0.061 S 
ATOM     12  O   UNL     1       2.965  -2.103   2.012  0.00  0.00    -0.153 OA
ATOM     13  O   UNL     1       1.547  -4.151   1.971  0.00  0.00    -0.153 OA
BRANCH  11  19
ATOM     14  C   UNL     1      -0.027   1.533  -0.007  0.00  0.00    +0.009 C 
ATOM     15  C   UNL     1      -0.011   0.003  -0.018  0.00  0.00    +0.002 C 
ATOM     16  C   UNL     1      -1.448  -0.522  -0.015  0.00  0.00    +0.009 C 
ATOM     17  C   UNL     1      -1.434  -2.052  -0.059  0.00  0.00    +0.002 C 
ATOM     18  C   UNL     1      -0.721  -2.588   1.187  0.00  0.00    +0.112 C 
ATOM     19  N   UNL     1       0.611  -1.974   1.270  0.00  0.00    -0.176 NA
ATOM     20  C   UNL     1       0.719  -0.509   1.228  0.00  0.00    +0.112 C 
ATOM     21  C   UNL     1      -2.871  -2.576  -0.090  0.00  0.00    +0.009 C 
ENDBRANCH  11  19
ENDBRANCH   5  11
ENDBRANCH   1   8
BRANCH   2  22
ATOM     22  C   UNL     1       4.593  -5.685  -5.837  0.00  0.00    +0.019 C 
BRANCH  22  23
ATOM     23  N   UNL     1       4.682  -7.139  -6.020  0.00  0.00    +0.387 N 
ATOM     24  C   UNL     1       5.641  -7.697  -5.058  0.00  0.00    -0.063 C 
ATOM     25  C   UNL     1       5.720  -9.214  -5.236  0.00  0.00    +0.066 C 
ATOM     26  N   UNL     1       6.142  -9.523  -6.610  0.00  0.00    -0.301 NA
ATOM     27  C   UNL     1       5.204  -8.950  -7.585  0.00  0.00    +0.066 C 
ATOM     28  C   UNL     1       5.130  -7.434  -7.388  0.00  0.00    -0.063 C 
ATOM     29  H   UNL     1       3.774  -7.553  -5.868  0.00  0.00    -0.081 HD
BRANCH  26  30
ATOM     30  C   UNL     1       6.284 -10.972  -6.804  0.00  0.00    +0.126 C 
BRANCH  30  31
ATOM     31  C   UNL     1       6.948 -11.238  -8.131  0.00  0.00    +0.004 A 
ATOM     32  C   UNL     1       8.267 -11.364  -8.415  0.00  0.00    +0.012 A 
ATOM     33  C   UNL     1       8.651 -11.611  -9.720  0.00  0.00    +0.008 A 
ATOM     34  C   UNL     1       7.697 -11.719 -10.677  0.00  0.00    +0.045 A 
ATOM     35  S   UNL     1       6.200 -11.476  -9.734  0.00  0.00    -0.100 S 
ENDBRANCH  30  31
ENDBRANCH  26  30
ENDBRANCH  22  23
ENDBRANCH   2  22
TORSDOF 7
