REMARK  Name = ZINC23546786
REMARK  10 active torsions:
REMARK  status: ('A' for Active; 'I' for Inactive)
REMARK    1  A    between atoms: C_1  and  C_2
REMARK    2  A    between atoms: C_2  and  N_3
REMARK    3  A    between atoms: N_3  and  C_4
REMARK    4  A    between atoms: N_3  and  C_6
REMARK    5  A    between atoms: C_4  and  C_5
REMARK    6  A    between atoms: C_6  and  C_8
REMARK    7  A    between atoms: C_6  and  C_29
REMARK    8  A    between atoms: C_8  and  N_9
REMARK    9  A    between atoms: C_10  and  C_12
REMARK   10  A    between atoms: C_15  and  N_18
REMARK                            x       y       z     vdW  Elec       q    Type
REMARK                         _______ _______ _______ _____ _____    ______ ____
ROOT
ATOM      1  N   UNL     1       1.705   2.385   2.197  0.00  0.00    -0.313 N 
ATOM      2  C   UNL     1       3.014   2.582   2.452  0.00  0.00    +0.244 C 
ATOM      3  O   UNL     1       3.620   3.462   1.873  0.00  0.00    -0.270 OA
ATOM      4  H   UNL     1       1.156   1.588   2.721  0.00  0.00    +0.149 HD
ENDROOT
BRANCH   2   5
ATOM      5  C   UNL     1       3.711   1.729   3.436  0.00  0.00    +0.037 A 
ATOM      6  C   UNL     1       3.014   0.721   4.106  0.00  0.00    +0.015 A 
ATOM      7  C   UNL     1       3.668  -0.077   5.018  0.00  0.00    +0.027 A 
ATOM      8  C   UNL     1       5.019   0.129   5.281  0.00  0.00    +0.051 A 
ATOM      9  C   UNL     1       5.714   1.135   4.619  0.00  0.00    +0.027 A 
ATOM     10  C   UNL     1       5.067   1.933   3.702  0.00  0.00    +0.015 A 
BRANCH   8  11
ATOM     11  N   UNL     1       5.678  -0.679   6.211  0.00  0.00    -0.267 N 
ATOM     12  C   UNL     1       5.207  -0.763   7.485  0.00  0.00    +0.207 A 
ATOM     13  N   UNL     1       5.764  -1.491   8.405  0.00  0.00    -0.237 NA
ATOM     14  C   UNL     1       6.873  -2.230   8.152  0.00  0.00    +0.078 A 
ATOM     15  C   UNL     1       7.472  -3.014   9.141  0.00  0.00    +0.028 A 
ATOM     16  C   UNL     1       8.597  -3.748   8.841  0.00  0.00    +0.002 A 
ATOM     17  C   UNL     1       9.146  -3.720   7.565  0.00  0.00    +0.001 A 
ATOM     18  C   UNL     1       8.573  -2.955   6.573  0.00  0.00    +0.015 A 
ATOM     19  C   UNL     1       7.434  -2.204   6.856  0.00  0.00    +0.065 A 
ATOM     20  C   UNL     1       6.777  -1.375   5.835  0.00  0.00    +0.266 A 
ATOM     21  O   UNL     1       7.207  -1.312   4.698  0.00  0.00    -0.267 OA
ENDBRANCH   8  11
ENDBRANCH   2   5
BRANCH   1  22
ATOM     22  C   UNL     1       1.014   3.231   1.221  0.00  0.00    +0.094 C 
BRANCH  22  23
ATOM     23  C   UNL     1      -0.477   2.886   1.213  0.00  0.00    -0.019 C 
BRANCH  23  24
ATOM     24  C   UNL     1      -1.200   3.804   0.261  0.00  0.00    -0.041 A 
ATOM     25  C   UNL     1      -1.615   3.334  -0.971  0.00  0.00    +0.003 A 
ATOM     26  C   UNL     1      -2.282   4.174  -1.843  0.00  0.00    +0.000 A 
ATOM     27  C   UNL     1      -2.525   5.488  -1.488  0.00  0.00    +0.001 A 
ATOM     28  C   UNL     1      -2.105   5.960  -0.259  0.00  0.00    +0.020 A 
ATOM     29  C   UNL     1      -1.442   5.119   0.616  0.00  0.00    +0.043 A 
ATOM     30 CL   UNL     1      -0.914   5.712   2.160  0.00  0.00    -0.083 Cl
ENDBRANCH  23  24
BRANCH  23  31
ATOM     31  N   UNL     1      -0.655   1.494   0.781  0.00  0.00    +0.385 N 
ATOM     32  H   UNL     1      -1.542   1.452   0.132  0.00  0.00    -0.081 HD
BRANCH  31  34
ATOM     33  C   UNL     1       0.559   1.804  -1.323  0.00  0.00    -0.017 C 
ATOM     34  C   UNL     1       0.499   1.034  -0.002  0.00  0.00    -0.081 C 
ENDBRANCH  31  34
BRANCH  31  35
ATOM     35  C   UNL     1      -0.896   0.612   1.932  0.00  0.00    -0.081 C 
ATOM     36  C   UNL     1      -2.304   0.858   2.476  0.00  0.00    -0.017 C 
ENDBRANCH  31  35
ENDBRANCH  23  31
ENDBRANCH  22  23
ENDBRANCH   1  22
TORSDOF 8
