REMARK  Name = ZINC08667068
REMARK  3 active torsions:
REMARK  status: ('A' for Active; 'I' for Inactive)
REMARK    1  A    between atoms: C_1  and  N_2
REMARK    2  A    between atoms: C_5  and  C_20
REMARK    3  A    between atoms: C_11  and  C_12
REMARK                            x       y       z     vdW  Elec       q    Type
REMARK                         _______ _______ _______ _____ _____    ______ ____
ROOT
ATOM      1  C   UNL     1       0.537   0.424   2.674  0.00  0.00    +0.138 C 
ATOM      2  N   UNL     1       0.569  -0.661   1.689  0.00  0.00    -0.269 N 
ATOM      3  C   UNL     1      -0.645  -1.019   1.116  0.00  0.00    +0.051 A 
ATOM      4  C   UNL     1      -1.691  -0.104   1.158  0.00  0.00    +0.037 A 
ATOM      5  C   UNL     1      -2.927  -0.420   0.594  0.00  0.00    +0.039 A 
ATOM      6  C   UNL     1      -3.123  -1.661  -0.019  0.00  0.00    +0.014 A 
ATOM      7  C   UNL     1      -2.091  -2.571  -0.062  0.00  0.00    +0.017 A 
ATOM      8  C   UNL     1      -0.860  -2.257   0.501  0.00  0.00    +0.034 A 
ATOM      9  S   UNL     1       0.458  -3.434   0.445  0.00  0.00    -0.082 S 
ATOM     10  C   UNL     1       1.878  -2.376   0.536  0.00  0.00    +0.075 C 
ATOM     11  C   UNL     1       3.004  -2.624  -0.175  0.00  0.00    +0.028 C 
ATOM     12  C   UNL     1       1.763  -1.201   1.430  0.00  0.00    +0.257 C 
ATOM     13  O   UNL     1       2.762  -0.727   1.937  0.00  0.00    -0.269 OA
ENDROOT
BRANCH   5  14
ATOM     14  C   UNL     1      -4.029   0.559   0.643  0.00  0.00    +0.247 C 
ATOM     15  O   UNL     1      -3.823   1.722   0.357  0.00  0.00    -0.270 OA
ATOM     16  N   UNL     1      -5.265   0.163   1.007  0.00  0.00    -0.295 N 
ATOM     17  C   UNL     1      -5.548  -1.254   1.277  0.00  0.00    +0.127 C 
ATOM     18  C   UNL     1      -6.145  -1.375   2.684  0.00  0.00    +0.125 C 
ATOM     19  N   UNL     1      -7.234  -0.397   2.818  0.00  0.00    -0.314 N 
ATOM     20  C   UNL     1      -6.952   1.020   2.548  0.00  0.00    +0.125 C 
ATOM     21  C   UNL     1      -6.353   1.141   1.146  0.00  0.00    +0.127 C 
ATOM     22  C   UNL     1      -8.509  -0.805   3.193  0.00  0.00    +0.099 A 
ATOM     23  C   UNL     1      -8.725  -2.124   3.579  0.00  0.00    +0.042 A 
ATOM     24  C   UNL     1      -9.998  -2.517   3.950  0.00  0.00    +0.005 A 
ATOM     25  C   UNL     1     -11.017  -1.573   3.922  0.00  0.00    +0.018 A 
ATOM     26  C   UNL     1     -10.732  -0.281   3.528  0.00  0.00    +0.084 A 
ATOM     27  N   UNL     1      -9.506   0.066   3.185  0.00  0.00    -0.350 N 
ATOM     28  H   UNL     1      -9.332   0.982   2.916  0.00  0.00    +0.166 HD
ENDBRANCH   5  14
BRANCH  11  29
ATOM     29  C   UNL     1       4.083  -1.626  -0.216  0.00  0.00    -0.024 A 
ATOM     30  C   UNL     1       5.421  -2.035  -0.198  0.00  0.00    +0.008 A 
ATOM     31  C   UNL     1       6.426  -1.092  -0.237  0.00  0.00    +0.001 A 
ATOM     32  C   UNL     1       6.115   0.255  -0.294  0.00  0.00    +0.000 A 
ATOM     33  C   UNL     1       4.794   0.668  -0.312  0.00  0.00    +0.001 A 
ATOM     34  C   UNL     1       3.777  -0.262  -0.280  0.00  0.00    +0.008 A 
ENDBRANCH  11  29
TORSDOF 2
