REMARK  Name = ZINC13625127
REMARK  3 active torsions:
REMARK  status: ('A' for Active; 'I' for Inactive)
REMARK    1  A    between atoms: C_1  and  C_2
REMARK    2  A    between atoms: C_15  and  C_17
REMARK    3  A    between atoms: C_20  and  C_23
REMARK                            x       y       z     vdW  Elec       q    Type
REMARK                         _______ _______ _______ _____ _____    ______ ____
ROOT
ATOM      1  C   UNL     1      -0.009   1.657   0.165  0.00  0.00    +0.029 C 
ATOM      2  C   UNL     1       0.008   0.130   0.064  0.00  0.00    +0.087 C 
ATOM      3  C   UNL     1       0.722  -0.286  -1.223  0.00  0.00    +0.118 C 
ATOM      4  C   UNL     1       1.101  -1.742  -1.158  0.00  0.00    +0.219 C 
ATOM      5  O   UNL     1       0.462  -2.559  -1.786  0.00  0.00    -0.275 OA
ATOM      6  N   UNL     1       2.147  -2.143  -0.404  0.00  0.00    -0.284 N 
ATOM      7  C   UNL     1       2.834  -1.228   0.401  0.00  0.00    +0.055 A 
ATOM      8  C   UNL     1       4.217  -1.151   0.370  0.00  0.00    +0.025 A 
ATOM      9  C   UNL     1       4.875  -0.255   1.192  0.00  0.00    +0.002 A 
ATOM     10  C   UNL     1       4.158   0.564   2.046  0.00  0.00    +0.002 A 
ATOM     11  C   UNL     1       2.777   0.499   2.077  0.00  0.00    +0.025 A 
ATOM     12  C   UNL     1       2.110  -0.388   1.248  0.00  0.00    +0.058 A 
ATOM     13  N   UNL     1       0.710  -0.426   1.222  0.00  0.00    -0.263 N 
ATOM     14  C   UNL     1       0.022  -0.966   2.248  0.00  0.00    +0.264 C 
ATOM     15  O   UNL     1       0.615  -1.502   3.160  0.00  0.00    -0.271 OA
ATOM     16  H   UNL     1       2.424  -3.073  -0.421  0.00  0.00    +0.155 HD
ENDROOT
BRANCH  14  17
ATOM     17  C   UNL     1      -1.484  -0.902   2.261  0.00  0.00    +0.296 C 
ATOM     18  C   UNL     1      -2.090  -1.941   1.288  0.00  0.00    +0.116 C 
ATOM     19  C   UNL     1      -2.345  -3.131   2.193  0.00  0.00    +0.091 C 
ATOM     20  N   UNL     1      -2.280  -2.729   3.418  0.00  0.00    -0.088 NA
ATOM     21  O   UNL     1      -2.008  -1.345   3.530  0.00  0.00    -0.380 OA
BRANCH  19  22
ATOM     22  C   UNL     1      -2.619  -4.512   1.749  0.00  0.00    -0.000 A 
ATOM     23  C   UNL     1      -2.657  -4.816   0.387  0.00  0.00    +0.011 A 
ATOM     24  C   UNL     1      -2.914  -6.108  -0.021  0.00  0.00    +0.020 A 
ATOM     25  C   UNL     1      -3.134  -7.103   0.916  0.00  0.00    +0.041 A 
ATOM     26  C   UNL     1      -3.099  -6.808   2.269  0.00  0.00    +0.020 A 
ATOM     27  C   UNL     1      -2.837  -5.521   2.690  0.00  0.00    +0.011 A 
ATOM     28 CL   UNL     1      -3.458  -8.727   0.394  0.00  0.00    -0.084 Cl
ENDBRANCH  19  22
ENDBRANCH  14  17
TORSDOF 2
