REMARK  Name = ZINC39876106
REMARK  8 active torsions:
REMARK  status: ('A' for Active; 'I' for Inactive)
REMARK    1  A    between atoms: C_1  and  C_2
REMARK    2  A    between atoms: C_5  and  N_9
REMARK    3  A    between atoms: C_7  and  C_8
REMARK    4  A    between atoms: C_10  and  C_26
REMARK    5  A    between atoms: C_29  and  O_34
REMARK    6  A    between atoms: C_30  and  O_32
REMARK    7  A    between atoms: O_32  and  C_33
REMARK    8  A    between atoms: O_34  and  C_35
REMARK                            x       y       z     vdW  Elec       q    Type
REMARK                         _______ _______ _______ _____ _____    ______ ____
ROOT
ATOM      1  N   UNL     1       0.058  -4.168  -0.021  0.00  0.00    -0.253 N 
ATOM      2  C   UNL     1       0.070  -5.027  -1.217  0.00  0.00    +0.150 C 
ATOM      3  C   UNL     1       0.086  -6.431  -0.710  0.00  0.00    +0.072 A 
ATOM      4  C   UNL     1       0.093  -7.715  -1.419  0.00  0.00    +0.199 A 
ATOM      5  O   UNL     1       0.262  -7.811  -2.622  0.00  0.00    -0.287 OA
ATOM      6  C   UNL     1      -0.125  -8.885  -0.532  0.00  0.00    +0.067 A 
ATOM      7  C   UNL     1      -0.344 -10.151  -1.075  0.00  0.00    +0.053 A 
ATOM      8  C   UNL     1      -0.550 -11.226  -0.237  0.00  0.00    +0.124 A 
ATOM      9  C   UNL     1      -0.539 -11.045   1.142  0.00  0.00    +0.042 A 
ATOM     10  C   UNL     1      -0.323  -9.800   1.687  0.00  0.00    +0.050 A 
ATOM     11  C   UNL     1      -0.110  -8.698   0.860  0.00  0.00    +0.140 A 
ATOM     12  O   UNL     1       0.111  -7.488   1.424  0.00  0.00    -0.450 OA
ATOM     13  C   UNL     1       0.090  -6.381   0.656  0.00  0.00    +0.199 A 
ATOM     14  C   UNL     1       0.074  -4.966   1.066  0.00  0.00    +0.287 C 
ATOM     15  O   UNL     1       0.074  -4.576   2.217  0.00  0.00    -0.266 OA
ATOM     16  F   UNL     1      -0.762 -12.456  -0.755  0.00  0.00    -0.205 F 
ENDROOT
BRANCH   1  21
ATOM     17  C   UNL     1      -0.018   1.503   0.010  0.00  0.00    +0.044 C 
ATOM     18  C   UNL     1       0.002  -0.004   0.002  0.00  0.00    -0.047 A 
ATOM     19  C   UNL     1       0.006  -0.688  -1.200  0.00  0.00    +0.005 A 
ATOM     20  C   UNL     1       0.024  -2.068  -1.212  0.00  0.00    +0.024 A 
ATOM     21  C   UNL     1       0.040  -2.771  -0.013  0.00  0.00    +0.038 A 
ATOM     22  C   UNL     1       0.036  -2.081   1.192  0.00  0.00    +0.027 A 
ATOM     23  C   UNL     1       0.023  -0.700   1.196  0.00  0.00    -0.046 A 
ATOM     24  C   UNL     1       0.025   0.049   2.504  0.00  0.00    +0.044 C 
ENDBRANCH   1  21
BRANCH   2  25
ATOM     25  C   UNL     1       1.302  -4.755  -2.040  0.00  0.00    -0.018 A 
ATOM     26  C   UNL     1       2.517  -4.547  -1.415  0.00  0.00    +0.009 A 
ATOM     27  C   UNL     1       3.651  -4.297  -2.165  0.00  0.00    +0.050 A 
ATOM     28  C   UNL     1       3.571  -4.255  -3.548  0.00  0.00    +0.162 A 
ATOM     29  C   UNL     1       2.348  -4.465  -4.178  0.00  0.00    +0.162 A 
ATOM     30  C   UNL     1       1.216  -4.720  -3.419  0.00  0.00    +0.055 A 
BRANCH  29  31
ATOM     31  O   UNL     1       2.264  -4.425  -5.534  0.00  0.00    -0.491 OA
ATOM     32  C   UNL     1       0.977  -4.649  -6.112  0.00  0.00    +0.277 C 
ENDBRANCH  29  31
BRANCH  28  33
ATOM     33  O   UNL     1       4.685  -4.009  -4.288  0.00  0.00    -0.491 OA
ATOM     34  C   UNL     1       5.906  -3.803  -3.574  0.00  0.00    +0.277 C 
ENDBRANCH  28  33
ENDBRANCH   2  25
TORSDOF 4
