REMARK  Name = ZINC02991294
REMARK  9 active torsions:
REMARK  status: ('A' for Active; 'I' for Inactive)
REMARK    1  A    between atoms: C_1  and  C_2
REMARK    2  A    between atoms: C_2  and  C_3
REMARK    3  A    between atoms: C_2  and  C_4
REMARK    4  A    between atoms: C_2  and  C_5
REMARK    5  A    between atoms: C_12  and  N_20
REMARK    6  A    between atoms: C_13  and  C_14
REMARK    7  A    between atoms: N_16  and  C_17
REMARK    8  A    between atoms: C_17  and  C_18
REMARK    9  A    between atoms: C_21  and  C_23
REMARK                            x       y       z     vdW  Elec       q    Type
REMARK                         _______ _______ _______ _____ _____    ______ ____
ROOT
ATOM      1  C   UNL     1       3.958  -1.296   0.338  0.00  0.00    -0.000 C 
ATOM      2  C   UNL     1       4.464  -0.117  -0.498  0.00  0.00    +0.009 C 
ATOM      3  C   UNL     1       3.798   1.177  -0.029  0.00  0.00    +0.037 C 
ATOM      4  C   UNL     1       2.288   0.974  -0.015  0.00  0.00    -0.023 A 
ATOM      5  C   UNL     1       1.753  -0.266  -0.016  0.00  0.00    -0.004 A 
ATOM      6  S   UNL     1       0.002  -0.004   0.002  0.00  0.00    -0.077 S 
ATOM      7  C   UNL     1      -0.021   1.728   0.011  0.00  0.00    +0.085 A 
ATOM      8  C   UNL     1       1.326   2.063   0.001  0.00  0.00    +0.069 A 
ATOM      9  C   UNL     1       2.492  -1.569  -0.028  0.00  0.00    +0.046 C 
ENDROOT
BRANCH   1  11
ATOM     10  C   UNL     1       6.264  -2.257   0.387  0.00  0.00    +0.011 C 
ATOM     11  C   UNL     1       4.801  -2.537   0.037  0.00  0.00    -0.035 C 
ATOM     12  C   UNL     1       4.293  -3.713   0.873  0.00  0.00    +0.011 C 
ATOM     13  C   UNL     1       4.689  -2.882  -1.449  0.00  0.00    +0.011 C 
ENDBRANCH   1  11
BRANCH   8  14
ATOM     14  C   UNL     1       1.762   3.463   0.003  0.00  0.00    +0.247 C 
ATOM     15  O   UNL     1       1.953   4.038   1.058  0.00  0.00    -0.270 OA
ATOM     16  N   UNL     1       1.950   4.112  -1.163  0.00  0.00    -0.308 N 
ATOM     17  H   UNL     1       1.798   3.653  -2.003  0.00  0.00    +0.149 HD
BRANCH  16  18
ATOM     18  C   UNL     1       2.386   5.511  -1.160  0.00  0.00    +0.131 C 
BRANCH  18  19
ATOM     19  C   UNL     1       2.521   5.998  -2.579  0.00  0.00    -0.016 C 
ATOM     20  C   UNL     1       1.877   7.070  -2.968  0.00  0.00    +0.005 C 
ENDBRANCH  18  19
ENDBRANCH  16  18
ENDBRANCH   8  14
BRANCH   7  21
ATOM     21  N   UNL     1      -1.119   2.575   0.022  0.00  0.00    -0.275 N 
ATOM     22  C   UNL     1      -2.365   2.062   0.026  0.00  0.00    +0.251 C 
ATOM     23  O   UNL     1      -2.527   0.857   0.020  0.00  0.00    -0.270 OA
ATOM     24  H   UNL     1      -0.990   3.536   0.026  0.00  0.00    +0.156 HD
BRANCH  22  25
ATOM     25  C   UNL     1      -3.534   2.963   0.036  0.00  0.00    +0.072 A 
ATOM     26  C   UNL     1      -3.352   4.348   0.043  0.00  0.00    +0.016 A 
ATOM     27  C   UNL     1      -4.448   5.184   0.053  0.00  0.00    +0.001 A 
ATOM     28  C   UNL     1      -5.728   4.656   0.057  0.00  0.00    +0.003 A 
ATOM     29  C   UNL     1      -5.918   3.287   0.051  0.00  0.00    +0.039 A 
ATOM     30  C   UNL     1      -4.829   2.435   0.035  0.00  0.00    +0.135 A 
ATOM     31  F   UNL     1      -5.015   1.097   0.023  0.00  0.00    -0.205 F 
ENDBRANCH  22  25
ENDBRANCH   7  21
TORSDOF 6
