REMARK  Name = ZINC59833011
REMARK  6 active torsions:
REMARK  status: ('A' for Active; 'I' for Inactive)
REMARK    1  A    between atoms: C_1  and  C_2
REMARK    2  A    between atoms: C_4  and  C_22
REMARK    3  A    between atoms: N_5  and  N_11
REMARK    4  A    between atoms: C_8  and  C_9
REMARK    5  A    between atoms: C_12  and  C_13
REMARK    6  A    between atoms: C_16  and  O_20
REMARK                            x       y       z     vdW  Elec       q    Type
REMARK                         _______ _______ _______ _____ _____    ______ ____
ROOT
ATOM      1  N   UNL     1      -0.002  -4.165  -0.019  0.00  0.00    -0.171 NA
ATOM      2  C   UNL     1       0.559  -4.825   0.950  0.00  0.00    +0.141 C 
ENDROOT
BRANCH   1   7
ATOM      3  C   UNL     1      -0.006   1.503   0.011  0.00  0.00    +0.045 C 
ATOM      4  C   UNL     1       0.011  -0.004   0.001  0.00  0.00    -0.026 A 
ATOM      5  C   UNL     1      -1.175  -0.727   0.134  0.00  0.00    +0.028 A 
ATOM      6  C   UNL     1      -1.150  -2.084   0.124  0.00  0.00    +0.044 A 
ATOM      7  N   UNL     1       0.015  -2.765  -0.014  0.00  0.00    -0.200 N 
ATOM      8  C   UNL     1       1.187  -2.115  -0.146  0.00  0.00    +0.289 A 
ATOM      9  O   UNL     1       2.224  -2.745  -0.269  0.00  0.00    -0.264 OA
ATOM     10  C   UNL     1       1.211  -0.697  -0.148  0.00  0.00    +0.121 A 
ATOM     11  C   UNL     1      -2.441  -2.848   0.269  0.00  0.00    +0.066 C 
BRANCH  10  12
ATOM     12  C   UNL     1       2.448   0.010  -0.293  0.00  0.00    +0.105 C 
ATOM     13  N   UNL     1       3.429   0.571  -0.409  0.00  0.00    -0.191 NA
ENDBRANCH  10  12
ENDBRANCH   1   7
BRANCH   2  14
ATOM     14  C   UNL     1       0.642  -6.295   0.889  0.00  0.00    -0.003 A 
ATOM     15  C   UNL     1       0.124  -6.981  -0.213  0.00  0.00    +0.028 A 
ATOM     16  C   UNL     1       0.204  -8.356  -0.266  0.00  0.00    +0.061 A 
ATOM     17  C   UNL     1       0.799  -9.060   0.774  0.00  0.00    +0.145 A 
ATOM     18  C   UNL     1       1.316  -8.382   1.871  0.00  0.00    +0.061 A 
ATOM     19  C   UNL     1       1.246  -7.006   1.930  0.00  0.00    +0.028 A 
ATOM     20 BR   UNL     1       2.124  -9.347   3.283  0.00  0.00    -0.046 Br
ATOM     21 BR   UNL     1      -0.497  -9.286  -1.756  0.00  0.00    -0.046 Br
BRANCH  17  22
ATOM     22  O   UNL     1       0.876 -10.415   0.718  0.00  0.00    -0.505 OA
ATOM     23  H   UNL     1       1.680 -10.747   0.295  0.00  0.00    +0.292 HD
ENDBRANCH  17  22
ENDBRANCH   2  14
TORSDOF 4
