REMARK  Name = ZINC29574416
REMARK  8 active torsions:
REMARK  status: ('A' for Active; 'I' for Inactive)
REMARK    1  A    between atoms: C_1  and  C_2
REMARK    2  A    between atoms: C_5  and  N_19
REMARK    3  A    between atoms: C_7  and  S_8
REMARK    4  A    between atoms: S_8  and  N_11
REMARK    5  A    between atoms: N_11  and  C_12
REMARK    6  A    between atoms: C_20  and  C_22
REMARK    7  A    between atoms: C_22  and  C_23
REMARK    8  A    between atoms: C_26  and  N_29
REMARK                            x       y       z     vdW  Elec       q    Type
REMARK                         _______ _______ _______ _____ _____    ______ ____
ROOT
ATOM      1  C   UNL     1      -0.299   1.186   0.164  0.00  0.00    +0.046 C 
ATOM      2  C   UNL     1      -0.151  -0.313   0.110  0.00  0.00    -0.024 A 
ATOM      3  C   UNL     1      -0.307  -0.979  -1.092  0.00  0.00    +0.007 A 
ATOM      4  C   UNL     1      -0.172  -2.352  -1.145  0.00  0.00    +0.023 A 
ATOM      5  C   UNL     1       0.121  -3.065   0.011  0.00  0.00    +0.035 A 
ATOM      6  C   UNL     1       0.277  -2.393   1.216  0.00  0.00    +0.052 A 
ATOM      7  C   UNL     1       0.145  -1.019   1.261  0.00  0.00    +0.113 A 
ENDROOT
BRANCH   5   8
ATOM      8  N   UNL     1       0.258  -4.456  -0.040  0.00  0.00    -0.285 N 
ATOM      9  C   UNL     1       0.778  -5.043  -1.136  0.00  0.00    +0.222 C 
ATOM     10  O   UNL     1       1.209  -4.362  -2.042  0.00  0.00    -0.275 OA
ATOM     11  H   UNL     1      -0.022  -4.999   0.715  0.00  0.00    +0.155 HD
BRANCH   9  12
ATOM     12  C   UNL     1       0.825  -6.546  -1.235  0.00  0.00    +0.131 C 
BRANCH  12  13
ATOM     13  C   UNL     1       1.448  -6.944  -2.548  0.00  0.00    -0.039 A 
ATOM     14  C   UNL     1       0.652  -7.119  -3.665  0.00  0.00    +0.006 A 
ATOM     15  C   UNL     1       1.220  -7.484  -4.870  0.00  0.00    +0.023 A 
ATOM     16  C   UNL     1       2.593  -7.673  -4.959  0.00  0.00    +0.035 A 
ATOM     17  C   UNL     1       3.390  -7.495  -3.836  0.00  0.00    +0.023 A 
ATOM     18  C   UNL     1       2.816  -7.126  -2.635  0.00  0.00    +0.006 A 
BRANCH  16  19
ATOM     19  N   UNL     1       3.172  -8.042  -6.179  0.00  0.00    -0.270 N 
ATOM     20  C   UNL     1       2.652  -7.589  -7.337  0.00  0.00    +0.301 C 
ATOM     21  O   UNL     1       1.738  -6.787  -7.319  0.00  0.00    -0.253 OA
ATOM     22  N   UNL     1       3.144  -8.024  -8.513  0.00  0.00    -0.313 N 
ATOM     23  H   UNL     1       3.947  -8.625  -6.191  0.00  0.00    +0.156 HD
ATOM     24  H   UNL     1       3.873  -8.664  -8.527  0.00  0.00    +0.146 HD
ATOM     25  H   UNL     1       2.770  -7.697  -9.346  0.00  0.00    +0.146 HD
ENDBRANCH  16  19
ENDBRANCH  12  13
ENDBRANCH   9  12
ENDBRANCH   5   8
BRANCH   7  26
ATOM     26  S   UNL     1       0.350  -0.165   2.789  0.00  0.00    +0.073 S 
ATOM     27  O   UNL     1       0.596  -1.155   3.778  0.00  0.00    -0.150 OA
ATOM     28  O   UNL     1       1.253   0.903   2.540  0.00  0.00    -0.150 OA
BRANCH  26  29
ATOM     29  N   UNL     1      -1.108   0.525   3.163  0.00  0.00    -0.216 N 
ATOM     30  H   UNL     1      -1.202   1.491   3.162  0.00  0.00    +0.174 HD
BRANCH  29  31
ATOM     31  C   UNL     1      -2.203  -0.283   3.480  0.00  0.00    +0.048 A 
ATOM     32  C   UNL     1      -2.490  -1.401   2.706  0.00  0.00    +0.026 A 
ATOM     33  C   UNL     1      -3.572  -2.198   3.022  0.00  0.00    +0.022 A 
ATOM     34  C   UNL     1      -4.372  -1.884   4.107  0.00  0.00    +0.041 A 
ATOM     35  C   UNL     1      -4.088  -0.771   4.880  0.00  0.00    +0.022 A 
ATOM     36  C   UNL     1      -3.004   0.026   4.572  0.00  0.00    +0.026 A 
ATOM     37 CL   UNL     1      -5.732  -2.888   4.500  0.00  0.00    -0.084 Cl
ENDBRANCH  29  31
ENDBRANCH  26  29
ENDBRANCH   7  26
TORSDOF 7
