REMARK  Name = ZINC36509672
REMARK  17 active torsions:
REMARK  status: ('A' for Active; 'I' for Inactive)
REMARK    1  A    between atoms: C_1  and  C_2
REMARK    2  A    between atoms: C_2  and  C_3
REMARK    3  A    between atoms: C_3  and  C_4
REMARK    4  A    between atoms: C_4  and  C_5
REMARK    5  A    between atoms: C_5  and  C_6
REMARK    6  A    between atoms: C_6  and  N_7
REMARK    7  A    between atoms: N_7  and  C_8
REMARK    8  A    between atoms: C_8  and  C_10
REMARK    9  A    between atoms: C_8  and  C_13
REMARK   10  A    between atoms: C_11  and  C_12
REMARK   11  A    between atoms: N_15  and  C_16
REMARK   12  A    between atoms: C_16  and  C_17
REMARK   13  A    between atoms: C_17  and  C_18
REMARK   14  A    between atoms: C_18  and  C_19
REMARK   15  A    between atoms: C_20  and  C_22
REMARK   16  A    between atoms: C_22  and  C_23
REMARK   17  A    between atoms: C_23  and  C_24
REMARK                            x       y       z     vdW  Elec       q    Type
REMARK                         _______ _______ _______ _____ _____    ______ ____
ROOT
ATOM      1  N   UNL     1       2.162  -4.523  -3.738  0.00  0.00    -0.286 N 
ATOM      2  C   UNL     1       1.461  -4.751  -4.866  0.00  0.00    +0.216 C 
ATOM      3  O   UNL     1       2.028  -5.142  -5.864  0.00  0.00    -0.276 OA
ENDROOT
BRANCH   1   4
ATOM      4  C   UNL     1       1.476  -4.051  -2.532  0.00  0.00    +0.109 C 
BRANCH   4   5
ATOM      5  C   UNL     1       1.455  -2.521  -2.524  0.00  0.00    +0.019 C 
BRANCH   5   6
ATOM      6  C   UNL     1       0.739  -2.027  -1.265  0.00  0.00    +0.002 C 
BRANCH   6   7
ATOM      7  C   UNL     1       0.718  -0.497  -1.257  0.00  0.00    -0.000 C 
BRANCH   7   9
ATOM      8  C   UNL     1      -0.019   1.526   0.010  0.00  0.00    +0.004 C 
ATOM      9  C   UNL     1       0.002  -0.004   0.002  0.00  0.00    -0.003 C 
ENDBRANCH   7   9
ENDBRANCH   6   7
ENDBRANCH   5   6
ENDBRANCH   4   5
ENDBRANCH   1   4
BRANCH   1  10
ATOM     10  C   UNL     1       3.609  -4.748  -3.716  0.00  0.00    +0.185 C 
BRANCH  10  11
ATOM     11  C   UNL     1       3.941  -5.788  -2.678  0.00  0.00    +0.238 C 
ATOM     12  O   UNL     1       3.055  -6.292  -2.020  0.00  0.00    -0.273 OA
ATOM     13  N   UNL     1       5.221  -6.158  -2.480  0.00  0.00    -0.314 N 
ATOM     14  H   UNL     1       5.930  -5.755  -3.006  0.00  0.00    +0.149 HD
BRANCH  13  15
ATOM     15  C   UNL     1       5.544  -7.169  -1.470  0.00  0.00    +0.104 C 
BRANCH  15  16
ATOM     16  C   UNL     1       7.056  -7.404  -1.447  0.00  0.00    +0.018 C 
BRANCH  16  17
ATOM     17  C   UNL     1       7.393  -8.460  -0.393  0.00  0.00    -0.002 C 
ATOM     18  C   UNL     1       8.904  -8.694  -0.370  0.00  0.00    +0.004 C 
ENDBRANCH  16  17
ENDBRANCH  15  16
ENDBRANCH  13  15
ENDBRANCH  10  11
BRANCH  10  19
ATOM     19  C   UNL     1       4.313  -3.458  -3.379  0.00  0.00    +0.000 C 
ATOM     20  C   UNL     1       5.093  -2.887  -4.263  0.00  0.00    -0.032 C 
ATOM     21  C   UNL     1       5.796  -1.598  -3.926  0.00  0.00    +0.035 C 
ENDBRANCH  10  19
ENDBRANCH   1  10
BRANCH   2  22
ATOM     22  C   UNL     1      -0.028  -4.520  -4.888  0.00  0.00    +0.096 C 
BRANCH  22  23
ATOM     23  C   UNL     1      -0.575  -4.851  -6.278  0.00  0.00    +0.013 C 
BRANCH  23  24
ATOM     24  C   UNL     1      -2.087  -4.616  -6.300  0.00  0.00    -0.011 C 
ATOM     25  C   UNL     1      -2.770  -5.603  -5.351  0.00  0.00    +0.003 C 
ATOM     26  C   UNL     1      -4.282  -5.368  -5.373  0.00  0.00    +0.000 C 
ATOM     27  C   UNL     1      -4.810  -5.579  -6.793  0.00  0.00    +0.000 C 
ATOM     28  C   UNL     1      -4.127  -4.593  -7.743  0.00  0.00    +0.000 C 
ATOM     29  C   UNL     1      -2.615  -4.827  -7.721  0.00  0.00    +0.003 C 
ENDBRANCH  23  24
ENDBRANCH  22  23
ENDBRANCH   2  22
TORSDOF 14
