REMARK  Name = ZINC39707765
REMARK  5 active torsions:
REMARK  status: ('A' for Active; 'I' for Inactive)
REMARK    1  A    between atoms: C_1  and  C_2
REMARK    2  A    between atoms: C_2  and  C_4
REMARK    3  A    between atoms: C_2  and  S_14
REMARK    4  A    between atoms: N_6  and  C_7
REMARK    5  A    between atoms: S_14  and  C_15
REMARK                            x       y       z     vdW  Elec       q    Type
REMARK                         _______ _______ _______ _____ _____    ______ ____
ROOT
ATOM      1  S   UNL     1       0.849  -0.593  -1.492  0.00  0.00    -0.072 S 
ENDROOT
BRANCH   1   2
ATOM      2  C   UNL     1       2.510  -0.043  -1.286  0.00  0.00    +0.208 C 
ATOM      3  N   UNL     1       2.811   0.619  -0.194  0.00  0.00    -0.227 NA
ATOM      4  C   UNL     1       4.170   1.139  -0.066  0.00  0.00    +0.252 C 
ATOM      5  C   UNL     1       5.062   0.208  -0.874  0.00  0.00    +0.117 C 
ATOM      6  C   UNL     1       6.104  -0.103  -0.054  0.00  0.00    +0.025 A 
ATOM      7  C   UNL     1       7.299  -0.834  -0.269  0.00  0.00    +0.012 A 
ATOM      8  C   UNL     1       8.142  -0.978   0.788  0.00  0.00    +0.001 A 
ATOM      9  C   UNL     1       7.903  -0.454   2.062  0.00  0.00    +0.002 A 
ATOM     10  C   UNL     1       6.795   0.267   2.380  0.00  0.00    +0.026 A 
ATOM     11  C   UNL     1       5.825   0.482   1.293  0.00  0.00    +0.046 A 
ATOM     12  N   UNL     1       4.704   1.135   1.288  0.00  0.00    -0.358 N 
ATOM     13  N   UNL     1       4.686  -0.243  -2.075  0.00  0.00    -0.147 NA
ATOM     14  N   UNL     1       3.405  -0.332  -2.262  0.00  0.00    -0.122 NA
ATOM     15  H   UNL     1       4.290   1.553   2.060  0.00  0.00    +0.162 HD
ENDBRANCH   1   2
BRANCH   1  17
ATOM     16  C   UNL     1      -0.008   1.520   0.019  0.00  0.00    +0.029 C 
ATOM     17  C   UNL     1       0.004  -0.010   0.003  0.00  0.00    +0.137 C 
BRANCH  17  18
ATOM     18  C   UNL     1      -1.412  -0.524   0.013  0.00  0.00    +0.230 C 
ATOM     19  O   UNL     1      -1.931  -0.892  -1.020  0.00  0.00    -0.274 OA
ATOM     20  N   UNL     1      -2.103  -0.575   1.169  0.00  0.00    -0.285 N 
ATOM     21  H   UNL     1      -1.668  -0.345   2.004  0.00  0.00    +0.155 HD
BRANCH  20  22
ATOM     22  C   UNL     1      -3.449  -0.960   1.163  0.00  0.00    +0.033 A 
ATOM     23  C   UNL     1      -4.343  -0.374   2.050  0.00  0.00    +0.024 A 
ATOM     24  C   UNL     1      -5.671  -0.756   2.042  0.00  0.00    +0.017 A 
ATOM     25  C   UNL     1      -6.109  -1.720   1.152  0.00  0.00    +0.018 A 
ATOM     26  C   UNL     1      -5.220  -2.305   0.268  0.00  0.00    +0.017 A 
ATOM     27  C   UNL     1      -3.893  -1.924   0.268  0.00  0.00    +0.024 A 
ATOM     28 BR   UNL     1      -7.927  -2.241   1.145  0.00  0.00    -0.050 Br
ENDBRANCH  20  22
ENDBRANCH  17  18
ENDBRANCH   1  17
TORSDOF 4
