REMARK  Name = ZINC06280973
REMARK  5 active torsions:
REMARK  status: ('A' for Active; 'I' for Inactive)
REMARK    1  A    between atoms: C_1  and  C_2
REMARK    2  A    between atoms: C_9  and  C_11
REMARK    3  A    between atoms: C_12  and  C_34
REMARK    4  A    between atoms: C_16  and  C_18
REMARK    5  A    between atoms: C_30  and  C_33
REMARK                            x       y       z     vdW  Elec       q    Type
REMARK                         _______ _______ _______ _____ _____    ______ ____
ROOT
ATOM      1  C   UNL     1       1.116  -0.166  -4.877  0.00  0.00    +0.043 C 
ATOM      2  C   UNL     1      -0.165   0.169  -4.654  0.00  0.00    +0.014 C 
ATOM      3  N   UNL     1      -0.497   0.977  -3.602  0.00  0.00    -0.321 N 
ATOM      4  C   UNL     1       0.360   1.137  -2.547  0.00  0.00    +0.016 C 
ATOM      5  C   UNL     1       1.669   0.835  -2.676  0.00  0.00    +0.024 C 
ATOM      6  C   UNL     1       2.218   0.335  -3.989  0.00  0.00    +0.090 C 
ATOM      7  C   UNL     1       2.558   0.980  -1.597  0.00  0.00    +0.162 C 
ATOM      8  O   UNL     1       3.732   0.708  -1.750  0.00  0.00    -0.292 OA
ATOM      9  C   UNL     1       2.082   1.466  -0.255  0.00  0.00    +0.083 C 
ATOM     10  C   UNL     1       0.611   1.078  -0.077  0.00  0.00    -0.001 C 
ATOM     11  C   UNL     1      -0.191   1.660  -1.243  0.00  0.00    +0.055 C 
ATOM     12  C   UNL     1       0.086   1.644   1.245  0.00  0.00    +0.008 C 
ATOM     13  C   UNL     1      -1.244  -0.347  -5.571  0.00  0.00    +0.061 C 
ATOM     14  H   UNL     1      -1.462   1.506  -3.598  0.00  0.00    +0.152 HD
ENDROOT
BRANCH   1  23
ATOM     15  C   UNL     1       3.901  -4.257 -10.882  0.00  0.00    +0.045 C 
ATOM     16  C   UNL     1       3.622  -3.449  -9.641  0.00  0.00    -0.032 A 
ATOM     17  C   UNL     1       4.669  -2.911  -8.904  0.00  0.00    +0.008 A 
ATOM     18  C   UNL     1       4.370  -2.171  -7.774  0.00  0.00    +0.044 A 
ATOM     19  C   UNL     1       3.038  -2.002  -7.410  0.00  0.00    +0.125 A 
ATOM     20  N   UNL     1       2.068  -2.531  -8.139  0.00  0.00    -0.240 NA
ATOM     21  C   UNL     1       2.323  -3.236  -9.224  0.00  0.00    +0.116 A 
ATOM     22  N   UNL     1       2.723  -1.264  -6.272  0.00  0.00    -0.267 N 
ATOM     23  C   UNL     1       1.434  -1.009  -5.970  0.00  0.00    +0.248 C 
ATOM     24  O   UNL     1       0.543  -1.502  -6.637  0.00  0.00    -0.270 OA
ATOM     25  H   UNL     1       3.525  -0.890  -5.619  0.00  0.00    +0.157 HD
ENDBRANCH   1  23
BRANCH   6  26
ATOM     26  C   UNL     1       2.940   1.460  -4.684  0.00  0.00    -0.032 A 
ATOM     27  C   UNL     1       2.257   2.615  -5.019  0.00  0.00    +0.008 A 
ATOM     28  C   UNL     1       2.915   3.650  -5.657  0.00  0.00    +0.050 A 
ATOM     29  C   UNL     1       4.262   3.532  -5.963  0.00  0.00    +0.166 A 
ATOM     30  C   UNL     1       4.949   2.369  -5.625  0.00  0.00    +0.167 A 
ATOM     31  C   UNL     1       4.285   1.338  -4.981  0.00  0.00    +0.054 A 
ATOM     32  O   UNL     1       6.247   2.497  -6.028  0.00  0.00    -0.453 OA
ATOM     33  C   UNL     1       6.445   3.906  -6.246  0.00  0.00    +0.466 C 
ATOM     34  O   UNL     1       5.129   4.389  -6.577  0.00  0.00    -0.453 OA
ENDBRANCH   6  26
TORSDOF 2
