REMARK  Name = ZINC36495939
REMARK  16 active torsions:
REMARK  status: ('A' for Active; 'I' for Inactive)
REMARK    1  A    between atoms: C_1  and  C_2
REMARK    2  A    between atoms: C_2  and  C_3
REMARK    3  A    between atoms: C_3  and  C_4
REMARK    4  A    between atoms: C_4  and  C_5
REMARK    5  A    between atoms: C_5  and  C_6
REMARK    6  A    between atoms: C_7  and  C_8
REMARK    7  A    between atoms: N_10  and  C_11
REMARK    8  A    between atoms: N_10  and  C_17
REMARK    9  A    between atoms: C_11  and  C_12
REMARK   10  A    between atoms: C_17  and  C_19
REMARK   11  A    between atoms: C_17  and  C_26
REMARK   12  A    between atoms: C_24  and  O_25
REMARK   13  A    between atoms: N_28  and  C_29
REMARK   14  A    between atoms: C_29  and  C_30
REMARK   15  A    between atoms: C_30  and  C_31
REMARK   16  A    between atoms: C_31  and  C_32
REMARK                            x       y       z     vdW  Elec       q    Type
REMARK                         _______ _______ _______ _____ _____    ______ ____
ROOT
ATOM      1  C   UNL     1      -5.295  -4.043   4.191  0.00  0.00    +0.196 C 
ENDROOT
BRANCH   1   2
ATOM      2  C   UNL     1      -6.568  -3.542   3.560  0.00  0.00    +0.023 A 
ATOM      3  C   UNL     1      -6.662  -2.229   3.140  0.00  0.00    +0.009 A 
ATOM      4  C   UNL     1      -7.830  -1.768   2.561  0.00  0.00    +0.001 A 
ATOM      5  C   UNL     1      -8.908  -2.619   2.402  0.00  0.00    +0.004 A 
ATOM      6  C   UNL     1      -8.819  -3.933   2.820  0.00  0.00    +0.046 A 
ATOM      7  C   UNL     1      -7.646  -4.399   3.396  0.00  0.00    +0.122 A 
BRANCH   7   8
ATOM      8  O   UNL     1      -7.555  -5.692   3.803  0.00  0.00    -0.506 OA
ATOM      9  H   UNL     1      -7.904  -5.851   4.691  0.00  0.00    +0.292 HD
ENDBRANCH   7   8
ENDBRANCH   1   2
BRANCH   1  10
ATOM     10  C   UNL     1      -4.425  -2.871   4.566  0.00  0.00    +0.238 C 
ATOM     11  O   UNL     1      -3.379  -2.681   3.983  0.00  0.00    -0.273 OA
ATOM     12  N   UNL     1      -4.810  -2.034   5.550  0.00  0.00    -0.313 N 
ATOM     13  H   UNL     1      -5.608  -2.227   6.066  0.00  0.00    +0.149 HD
BRANCH  12  14
ATOM     14  C   UNL     1      -4.021  -0.834   5.841  0.00  0.00    +0.104 C 
BRANCH  14  15
ATOM     15  C   UNL     1      -4.670  -0.065   6.993  0.00  0.00    +0.018 C 
BRANCH  15  16
ATOM     16  C   UNL     1      -3.847   1.189   7.297  0.00  0.00    -0.002 C 
ATOM     17  C   UNL     1      -4.496   1.958   8.449  0.00  0.00    +0.004 C 
ENDBRANCH  15  16
ENDBRANCH  14  15
ENDBRANCH  12  14
ENDBRANCH   1  10
BRANCH   1  20
ATOM     18  C   UNL     1      -4.282  -4.429   2.008  0.00  0.00    +0.240 C 
ATOM     19  O   UNL     1      -4.606  -3.301   1.691  0.00  0.00    -0.271 OA
ATOM     20  N   UNL     1      -4.581  -4.896   3.237  0.00  0.00    -0.275 N 
BRANCH  18  22
ATOM     21  C   UNL     1      -3.139  -4.781  -0.103  0.00  0.00    -0.022 C 
ATOM     22  C   UNL     1      -3.565  -5.285   1.051  0.00  0.00    +0.063 C 
BRANCH  21  23
ATOM     23  C   UNL     1      -3.069  -3.287  -0.292  0.00  0.00    +0.027 C 
BRANCH  23  24
ATOM     24  C   UNL     1      -1.683  -2.904  -0.814  0.00  0.00    +0.004 C 
BRANCH  24  25
ATOM     25  C   UNL     1      -1.611  -1.387  -1.006  0.00  0.00    +0.000 C 
BRANCH  25  27
ATOM     26  C   UNL     1      -0.153   0.512  -1.719  0.00  0.00    +0.004 C 
ATOM     27  C   UNL     1      -0.225  -1.004  -1.527  0.00  0.00    -0.003 C 
ENDBRANCH  25  27
ENDBRANCH  24  25
ENDBRANCH  23  24
ENDBRANCH  21  23
ENDBRANCH  18  22
BRANCH  20  28
ATOM     28  C   UNL     1      -4.190  -6.255   3.620  0.00  0.00    +0.183 C 
BRANCH  28  29
ATOM     29  C   UNL     1      -2.769  -6.247   4.120  0.00  0.00    +0.122 A 
ATOM     30  C   UNL     1      -2.389  -6.154   5.407  0.00  0.00    +0.046 A 
ATOM     31  C   UNL     1      -0.976  -6.185   5.420  0.00  0.00    +0.041 A 
ATOM     32  C   UNL     1      -0.577  -6.296   4.141  0.00  0.00    +0.195 A 
ATOM     33  O   UNL     1      -1.667  -6.339   3.358  0.00  0.00    -0.466 OA
ENDBRANCH  28  29
ENDBRANCH  20  28
ENDBRANCH   1  20
TORSDOF 14
