REMARK  Name = ZINC29698407
REMARK  10 active torsions:
REMARK  status: ('A' for Active; 'I' for Inactive)
REMARK    1  A    between atoms: C_1  and  C_2
REMARK    2  A    between atoms: C_5  and  C_7
REMARK    3  A    between atoms: C_9  and  C_12
REMARK    4  A    between atoms: C_12  and  N_13
REMARK    5  A    between atoms: N_13  and  C_14
REMARK    6  A    between atoms: N_13  and  C_15
REMARK    7  A    between atoms: C_15  and  C_16
REMARK    8  A    between atoms: N_18  and  C_19
REMARK    9  A    between atoms: C_24  and  O_25
REMARK   10  A    between atoms: O_25  and  C_26
REMARK                            x       y       z     vdW  Elec       q    Type
REMARK                         _______ _______ _______ _____ _____    ______ ____
ROOT
ATOM      1  N   UNL     1      -2.433   0.973  -0.007  0.00  0.00    +0.387 N 
ATOM      2  C   UNL     1      -2.464   0.204   1.244  0.00  0.00    -0.095 C 
ATOM      3  H   UNL     1      -2.258   0.268  -0.833  0.00  0.00    -0.081 HD
ENDROOT
BRANCH   1   4
ATOM      4  C   UNL     1      -3.719   1.640  -0.247  0.00  0.00    -0.022 C 
BRANCH   4   7
ATOM      5  C   UNL     1      -5.892  -0.804  -1.936  0.00  0.00    +0.143 A 
ATOM      6  N   UNL     1      -4.963   0.114  -1.696  0.00  0.00    -0.243 NA
ATOM      7  C   UNL     1      -4.785   0.603  -0.491  0.00  0.00    +0.033 A 
ATOM      8  C   UNL     1      -5.567   0.177   0.536  0.00  0.00    +0.068 A 
ATOM      9  S   UNL     1      -6.609  -1.005  -0.310  0.00  0.00    -0.072 S 
BRANCH   5  14
ATOM     10  C   UNL     1      -5.852  -2.109  -6.776  0.00  0.00    +0.086 C 
ATOM     11  C   UNL     1      -6.229  -2.048  -5.318  0.00  0.00    +0.103 A 
ATOM     12  C   UNL     1      -7.202  -2.769  -4.727  0.00  0.00    +0.045 A 
ATOM     13  C   UNL     1      -7.218  -2.407  -3.367  0.00  0.00    +0.052 A 
ATOM     14  C   UNL     1      -6.241  -1.472  -3.199  0.00  0.00    +0.160 A 
ATOM     15  O   UNL     1      -5.654  -1.261  -4.394  0.00  0.00    -0.458 OA
ENDBRANCH   5  14
ENDBRANCH   4   7
ENDBRANCH   1   4
BRANCH   1  16
ATOM     16  C   UNL     1      -1.330   1.943  -0.001  0.00  0.00    +0.019 C 
BRANCH  16  17
ATOM     17  C   UNL     1      -0.014   1.208   0.001  0.00  0.00    +0.201 C 
ATOM     18  O   UNL     1       0.003  -0.005  -0.002  0.00  0.00    -0.278 OA
ATOM     19  N   UNL     1       1.143   1.898   0.001  0.00  0.00    -0.284 N 
ATOM     20  H   UNL     1       1.129   2.996  -0.070  0.00  0.00    +0.155 HD
BRANCH  19  21
ATOM     21  C   UNL     1       2.365   1.218   0.092  0.00  0.00    +0.077 A 
ATOM     22  C   UNL     1       2.515  -0.025  -0.507  0.00  0.00    +0.047 A 
ATOM     23  C   UNL     1       3.723  -0.692  -0.421  0.00  0.00    +0.043 A 
ATOM     24  C   UNL     1       4.780  -0.128   0.271  0.00  0.00    +0.024 A 
ATOM     25  C   UNL     1       4.636   1.108   0.874  0.00  0.00    +0.049 A 
ATOM     26  C   UNL     1       3.430   1.784   0.788  0.00  0.00    +0.141 A 
ATOM     27 CL   UNL     1       3.911  -2.244  -1.176  0.00  0.00    -0.083 Cl
BRANCH  26  28
ATOM     28  O   UNL     1       3.287   3.000   1.381  0.00  0.00    -0.493 OA
ATOM     29  C   UNL     1       4.421   3.519   2.078  0.00  0.00    +0.277 C 
ENDBRANCH  26  28
ENDBRANCH  19  21
ENDBRANCH  16  17
ENDBRANCH   1  16
TORSDOF 7
