REMARK  Name = ZINC41077432
REMARK  5 active torsions:
REMARK  status: ('A' for Active; 'I' for Inactive)
REMARK    1  A    between atoms: C_1  and  C_2
REMARK    2  A    between atoms: C_5  and  N_9
REMARK    3  A    between atoms: N_15  and  C_18
REMARK    4  A    between atoms: C_18  and  C_19
REMARK    5  A    between atoms: C_27  and  C_29
REMARK                            x       y       z     vdW  Elec       q    Type
REMARK                         _______ _______ _______ _____ _____    ______ ____
ROOT
ATOM      1  N   UNL     1      -0.004  -4.177  -0.019  0.00  0.00    -0.269 N 
ATOM      2  C   UNL     1       0.174  -4.852   1.134  0.00  0.00    +0.307 C 
ATOM      3  O   UNL     1       0.227  -4.250   2.189  0.00  0.00    -0.252 OA
ATOM      4  N   UNL     1       0.292  -6.194   1.118  0.00  0.00    -0.283 N 
ATOM      5  C   UNL     1       0.413  -6.926  -0.152  0.00  0.00    +0.124 C 
ATOM      6  C   UNL     1       1.629  -7.855  -0.065  0.00  0.00    +0.104 C 
ATOM      7  N   UNL     1       1.510  -8.701   1.130  0.00  0.00    -0.294 NA
ATOM      8  C   UNL     1       1.525  -7.894   2.358  0.00  0.00    +0.104 C 
ATOM      9  C   UNL     1       0.311  -6.966   2.370  0.00  0.00    +0.124 C 
ATOM     10  H   UNL     1      -0.177  -4.660  -0.842  0.00  0.00    +0.156 HD
ENDROOT
BRANCH   1  15
ATOM     11  C   UNL     1       0.252   1.492  -0.063  0.00  0.00    +0.047 C 
ATOM     12  C   UNL     1       0.184  -0.013  -0.050  0.00  0.00    -0.015 A 
ATOM     13  C   UNL     1       0.409  -0.724  -1.215  0.00  0.00    +0.008 A 
ATOM     14  C   UNL     1       0.347  -2.104  -1.207  0.00  0.00    +0.024 A 
ATOM     15  C   UNL     1       0.059  -2.779  -0.028  0.00  0.00    +0.038 A 
ATOM     16  C   UNL     1      -0.166  -2.065   1.141  0.00  0.00    +0.062 A 
ATOM     17  C   UNL     1      -0.097  -0.683   1.129  0.00  0.00    +0.128 A 
ATOM     18  F   UNL     1      -0.311   0.013   2.266  0.00  0.00    -0.205 F 
ENDBRANCH   1  15
BRANCH   7  19
ATOM     19  C   UNL     1       2.565  -9.723   1.159  0.00  0.00    +0.140 C 
BRANCH  19  20
ATOM     20  C   UNL     1       2.272 -10.716   2.254  0.00  0.00    +0.063 A 
ATOM     21  C   UNL     1       1.997 -12.033   1.951  0.00  0.00    +0.096 A 
ATOM     22  C   UNL     1       1.729 -12.937   2.979  0.00  0.00    +0.275 A 
ATOM     23  O   UNL     1       1.484 -14.105   2.717  0.00  0.00    -0.266 OA
ATOM     24  N   UNL     1       1.740 -12.515   4.278  0.00  0.00    -0.171 N 
ATOM     25  C   UNL     1       2.023 -11.194   4.488  0.00  0.00    +0.199 A 
ATOM     26  N   UNL     1       2.281 -10.339   3.530  0.00  0.00    -0.225 NA
ATOM     27  S   UNL     1       1.941 -11.055   6.261  0.00  0.00    -0.027 S 
ATOM     28  C   UNL     1       1.537 -12.758   6.612  0.00  0.00    +0.139 A 
ATOM     29  N   UNL     1       1.496 -13.283   5.412  0.00  0.00    -0.154 NA
BRANCH  28  30
ATOM     30  C   UNL     1       1.309 -13.406   7.914  0.00  0.00    +0.046 A 
ATOM     31  C   UNL     1       1.346 -12.857   9.171  0.00  0.00    +0.018 A 
ATOM     32  C   UNL     1       1.096 -13.668  10.254  0.00  0.00    +0.008 A 
ATOM     33  C   UNL     1       0.821 -14.983  10.048  0.00  0.00    +0.046 A 
ATOM     34  S   UNL     1       0.905 -15.108   8.269  0.00  0.00    -0.095 S 
ENDBRANCH  28  30
ENDBRANCH  19  20
ENDBRANCH   7  19
TORSDOF 4
