REMARK  Name = ZINC12576012
REMARK  7 active torsions:
REMARK  status: ('A' for Active; 'I' for Inactive)
REMARK    1  A    between atoms: C_1  and  C_2
REMARK    2  A    between atoms: C_2  and  C_28
REMARK    3  A    between atoms: N_8  and  C_9
REMARK    4  A    between atoms: C_16  and  N_50
REMARK    5  A    between atoms: C_19  and  C_20
REMARK    6  A    between atoms: C_19  and  N_50
REMARK    7  A    between atoms: C_23  and  O_27
REMARK                            x       y       z     vdW  Elec       q    Type
REMARK                         _______ _______ _______ _____ _____    ______ ____
ROOT
ATOM      1  C   UNL     1       3.712   2.127  -0.204  0.00  0.00    +0.011 C 
ATOM      2  C   UNL     1       2.412   1.351  -0.428  0.00  0.00    -0.031 C 
ATOM      3  C   UNL     1       1.220   2.216   0.002  0.00  0.00    +0.062 C 
ATOM      4  C   UNL     1      -0.016   1.353   0.009  0.00  0.00    +0.047 A 
ATOM      5  C   UNL     1       0.002  -0.004   0.002  0.00  0.00    -0.020 A 
ATOM      6  C   UNL     1      -1.317  -0.453   0.010  0.00  0.00    +0.137 A 
ATOM      7  N   UNL     1      -2.104   0.596   0.022  0.00  0.00    -0.174 NA
ATOM      8  N   UNL     1      -1.303   1.748   0.018  0.00  0.00    -0.236 N 
ATOM      9  C   UNL     1       1.262  -0.833  -0.011  0.00  0.00    -0.037 C 
ATOM     10  C   UNL     1       2.435   0.065   0.402  0.00  0.00    -0.005 C 
ATOM     11  C   UNL     1       2.276   1.000  -1.911  0.00  0.00    +0.011 C 
ENDROOT
BRANCH   8  12
ATOM     12  C   UNL     1      -1.761   3.072   0.030  0.00  0.00    +0.068 A 
ATOM     13  C   UNL     1      -2.922   3.413  -0.652  0.00  0.00    +0.028 A 
ATOM     14  C   UNL     1      -3.372   4.719  -0.640  0.00  0.00    +0.005 A 
ATOM     15  C   UNL     1      -2.668   5.688   0.051  0.00  0.00    +0.038 A 
ATOM     16  C   UNL     1      -1.510   5.353   0.732  0.00  0.00    +0.125 A 
ATOM     17  C   UNL     1      -1.058   4.045   0.727  0.00  0.00    +0.066 A 
ATOM     18  F   UNL     1      -0.824   6.301   1.406  0.00  0.00    -0.205 F 
ENDBRANCH   8  12
BRANCH   9  19
ATOM     19  N   UNL     1       1.136  -1.945   0.949  0.00  0.00    +0.386 N 
ATOM     20  H   UNL     1       0.593  -1.631   1.762  0.00  0.00    -0.085 HD
ATOM     21  H   UNL     1       2.072  -2.237   1.254  0.00  0.00    -0.085 HD
BRANCH  19  22
ATOM     22  C   UNL     1       0.451  -3.090   0.319  0.00  0.00    -0.046 C 
BRANCH  22  23
ATOM     23  C   UNL     1       0.337  -4.210   1.322  0.00  0.00    -0.063 A 
ATOM     24  C   UNL     1      -0.772  -4.289   2.144  0.00  0.00    +0.005 A 
ATOM     25  C   UNL     1      -0.880  -5.314   3.064  0.00  0.00    +0.047 A 
ATOM     26  C   UNL     1       0.126  -6.264   3.163  0.00  0.00    +0.135 A 
ATOM     27  C   UNL     1       1.238  -6.183   2.337  0.00  0.00    +0.082 A 
ATOM     28  C   UNL     1       1.339  -5.158   1.414  0.00  0.00    +0.025 A 
ATOM     29 CL   UNL     1       2.499  -7.370   2.458  0.00  0.00    -0.080 Cl
BRANCH  26  30
ATOM     30  O   UNL     1       0.022  -7.274   4.068  0.00  0.00    -0.505 OA
ATOM     31  H   UNL     1      -0.419  -8.064   3.726  0.00  0.00    +0.292 HD
ENDBRANCH  26  30
ENDBRANCH  22  23
ENDBRANCH  19  22
ENDBRANCH   9  19
TORSDOF 5
