REMARK  Name = ZINC40794931
REMARK  9 active torsions:
REMARK  status: ('A' for Active; 'I' for Inactive)
REMARK    1  A    between atoms: C_4  and  C_7
REMARK    2  A    between atoms: C_7  and  C_8
REMARK    3  A    between atoms: C_7  and  C_14
REMARK    4  A    between atoms: N_16  and  N_17
REMARK    5  A    between atoms: C_19  and  N_36
REMARK    6  A    between atoms: C_20  and  N_24
REMARK    7  A    between atoms: N_24  and  C_25
REMARK    8  A    between atoms: C_28  and  O_31
REMARK    9  A    between atoms: O_31  and  C_32
REMARK                            x       y       z     vdW  Elec       q    Type
REMARK                         _______ _______ _______ _____ _____    ______ ____
ROOT
ATOM      1  N   UNL     1       3.306  -2.579  -3.635  0.00  0.00    -0.247 N 
ATOM      2  C   UNL     1       3.185  -2.172  -4.958  0.00  0.00    +0.161 A 
ATOM      3  C   UNL     1       3.357  -3.087  -5.999  0.00  0.00    +0.107 A 
ATOM      4  C   UNL     1       3.224  -2.627  -7.310  0.00  0.00    +0.149 A 
ATOM      5  N   UNL     1       2.941  -1.343  -7.517  0.00  0.00    -0.219 NA
ATOM      6  C   UNL     1       2.787  -0.512  -6.506  0.00  0.00    +0.225 A 
ATOM      7  N   UNL     1       2.898  -0.907  -5.253  0.00  0.00    -0.217 NA
ATOM      8  H   UNL     1       3.515  -3.503  -3.428  0.00  0.00    +0.172 HD
ENDROOT
BRANCH   1  11
ATOM      9  C   UNL     1       3.243  -2.046  -1.315  0.00  0.00    +0.241 C 
ATOM     10  O   UNL     1       3.505  -3.202  -1.057  0.00  0.00    -0.273 OA
ATOM     11  N   UNL     1       3.126  -1.653  -2.599  0.00  0.00    -0.235 N 
ATOM     12  H   UNL     1       2.917  -0.728  -2.805  0.00  0.00    +0.173 HD
BRANCH   9  13
ATOM     13  C   UNL     1       3.050  -1.050  -0.201  0.00  0.00    +0.136 C 
BRANCH  13  17
ATOM     14  C   UNL     1      -0.891   0.585  -0.420  0.00  0.00    +0.000 A 
ATOM     15  C   UNL     1      -0.709  -0.785  -0.436  0.00  0.00    +0.000 A 
ATOM     16  C   UNL     1       0.566  -1.315  -0.365  0.00  0.00    +0.005 A 
ATOM     17  C   UNL     1       1.659  -0.474  -0.279  0.00  0.00    -0.031 A 
ATOM     18  C   UNL     1       1.478   0.897  -0.264  0.00  0.00    +0.005 A 
ATOM     19  C   UNL     1       0.203   1.426  -0.333  0.00  0.00    +0.000 A 
ENDBRANCH  13  17
BRANCH  13  20
ATOM     20  C   UNL     1       3.233  -1.740   1.126  0.00  0.00    -0.031 A 
ATOM     21  C   UNL     1       2.507  -2.879   1.420  0.00  0.00    +0.005 A 
ATOM     22  C   UNL     1       2.676  -3.511   2.638  0.00  0.00    +0.000 A 
ATOM     23  C   UNL     1       3.571  -3.005   3.561  0.00  0.00    +0.000 A 
ATOM     24  C   UNL     1       4.298  -1.866   3.267  0.00  0.00    +0.000 A 
ATOM     25  C   UNL     1       4.133  -1.236   2.048  0.00  0.00    +0.005 A 
ENDBRANCH  13  20
ENDBRANCH   9  13
ENDBRANCH   1  11
BRANCH   3  26
ATOM     26  N   UNL     1       3.655  -4.434  -5.734  0.00  0.00    -0.353 N 
ATOM     27  H   UNL     1       3.745  -4.739  -4.818  0.00  0.00    +0.143 HD
ATOM     28  H   UNL     1       3.772  -5.058  -6.468  0.00  0.00    +0.143 HD
ENDBRANCH   3  26
BRANCH   4  29
ATOM     29  N   UNL     1       3.385  -3.496  -8.383  0.00  0.00    -0.298 N 
ATOM     30  H   UNL     1       3.517  -4.444  -8.225  0.00  0.00    +0.154 HD
BRANCH  29  31
ATOM     31  C   UNL     1       3.359  -3.003  -9.693  0.00  0.00    +0.033 A 
ATOM     32  C   UNL     1       2.837  -3.781 -10.718  0.00  0.00    +0.027 A 
ATOM     33  C   UNL     1       2.811  -3.293 -12.010  0.00  0.00    +0.048 A 
ATOM     34  C   UNL     1       3.308  -2.027 -12.284  0.00  0.00    +0.130 A 
ATOM     35  C   UNL     1       3.829  -1.250 -11.261  0.00  0.00    +0.048 A 
ATOM     36  C   UNL     1       3.850  -1.733  -9.968  0.00  0.00    +0.027 A 
BRANCH  34  37
ATOM     37  O   UNL     1       3.283  -1.549 -13.557  0.00  0.00    -0.406 OA
BRANCH  37  38
ATOM     38  C   UNL     1       3.810  -0.237 -13.767  0.00  0.00    +0.575 C 
ATOM     39  F   UNL     1       5.154  -0.208 -13.380  0.00  0.00    -0.133 F 
ATOM     40  F   UNL     1       3.707   0.095 -15.122  0.00  0.00    -0.133 F 
ATOM     41  F   UNL     1       3.085   0.684 -13.005  0.00  0.00    -0.133 F 
ENDBRANCH  37  38
ENDBRANCH  34  37
ENDBRANCH  29  31
ENDBRANCH   4  29
TORSDOF 9
