REMARK  Name = ZINC05899185
REMARK  4 active torsions:
REMARK  status: ('A' for Active; 'I' for Inactive)
REMARK    1  A    between atoms: C_3  and  C_7
REMARK    2  A    between atoms: C_10  and  C_21
REMARK    3  A    between atoms: C_16  and  N_20
REMARK    4  A    between atoms: C_17  and  C_18
REMARK                            x       y       z     vdW  Elec       q    Type
REMARK                         _______ _______ _______ _____ _____    ______ ____
ROOT
ATOM      1  C   UNL     1       3.732   2.096  -0.032  0.00  0.00    +0.103 C 
ATOM      2  C   UNL     1       4.461   1.758   1.244  0.00  0.00    +0.050 A 
ATOM      3  C   UNL     1       4.221   2.163   2.500  0.00  0.00    +0.050 A 
ATOM      4  N   UNL     1       5.147   1.588   3.301  0.00  0.00    -0.277 N 
ATOM      5  H   UNL     1       5.218   1.701   4.262  0.00  0.00    +0.189 HD
ATOM      6  N   UNL     1       5.988   0.800   2.499  0.00  0.00    -0.135 NA
ATOM      7  C   UNL     1       5.582   0.900   1.267  0.00  0.00    +0.245 A 
ATOM      8  O   UNL     1       6.075   0.327   0.136  0.00  0.00    -0.421 OA
ATOM      9  C   UNL     1       5.637   0.808  -1.045  0.00  0.00    +0.201 C 
ATOM     10  C   UNL     1       4.572   1.624  -1.192  0.00  0.00    +0.098 C 
ENDROOT
BRANCH   3  11
ATOM     11  C   UNL     1       3.117   3.091   2.940  0.00  0.00    +0.014 C 
ATOM     12  C   UNL     1       3.179   4.382   2.120  0.00  0.00    +0.016 C 
ATOM     13  C   UNL     1       2.059   5.324   2.567  0.00  0.00    -0.010 C 
ATOM     14  C   UNL     1       2.231   5.653   4.051  0.00  0.00    +0.007 C 
ATOM     15  C   UNL     1       2.169   4.362   4.870  0.00  0.00    -0.010 C 
ATOM     16  C   UNL     1       3.289   3.421   4.424  0.00  0.00    +0.016 C 
ATOM     17  C   UNL     1       0.815   3.684   4.652  0.00  0.00    +0.007 C 
ATOM     18  C   UNL     1       0.643   3.355   3.168  0.00  0.00    -0.010 C 
ATOM     19  C   UNL     1       0.705   4.645   2.348  0.00  0.00    +0.007 C 
ATOM     20  C   UNL     1       1.763   2.413   2.721  0.00  0.00    +0.016 C 
ENDBRANCH   3  11
BRANCH   1  23
ATOM     21  C   UNL     1       0.050   1.394  -0.468  0.00  0.00    +0.020 A 
ATOM     22  C   UNL     1       1.258   2.076  -0.463  0.00  0.00    +0.007 A 
ATOM     23  C   UNL     1       2.396   1.399  -0.053  0.00  0.00    -0.016 A 
ATOM     24  C   UNL     1       2.290   0.076   0.334  0.00  0.00    +0.115 A 
ATOM     25  N   UNL     1       1.125  -0.540   0.317  0.00  0.00    -0.263 NA
ATOM     26  C   UNL     1       0.022   0.072  -0.066  0.00  0.00    +0.111 A 
ENDBRANCH   1  23
BRANCH   9  27
ATOM     27  N   UNL     1       6.322   0.441  -2.177  0.00  0.00    -0.328 N 
ATOM     28  H   UNL     1       7.092  -0.144  -2.109  0.00  0.00    +0.145 HD
ATOM     29  H   UNL     1       6.035   0.768  -3.044  0.00  0.00    +0.145 HD
ENDBRANCH   9  27
BRANCH  10  30
ATOM     30  C   UNL     1       4.222   2.062  -2.510  0.00  0.00    +0.101 C 
ATOM     31  N   UNL     1       3.945   2.409  -3.555  0.00  0.00    -0.191 NA
ENDBRANCH  10  30
TORSDOF 4
