REMARK  Name = ZINC39871736
REMARK  3 active torsions:
REMARK  status: ('A' for Active; 'I' for Inactive)
REMARK    1  A    between atoms: N_14  and  C_26
REMARK    2  A    between atoms: C_15  and  C_17
REMARK    3  A    between atoms: C_21  and  N_23
REMARK                            x       y       z     vdW  Elec       q    Type
REMARK                         _______ _______ _______ _____ _____    ______ ____
ROOT
ATOM      1  C   UNL     1      -0.017   1.363   0.009  0.00  0.00    +0.001 A 
ATOM      2  C   UNL     1       1.173   2.078   0.002  0.00  0.00    +0.004 A 
ATOM      3  C   UNL     1       2.387   1.428  -0.017  0.00  0.00    +0.047 A 
ATOM      4  C   UNL     1       2.432   0.034  -0.027  0.00  0.00    +0.139 A 
ATOM      5  C   UNL     1       1.222  -0.679  -0.013  0.00  0.00    +0.064 A 
ATOM      6  C   UNL     1       0.002  -0.004   0.002  0.00  0.00    +0.015 A 
ATOM      7  C   UNL     1       1.261  -2.163  -0.008  0.00  0.00    +0.199 A 
ATOM      8  O   UNL     1       0.272  -2.857  -0.165  0.00  0.00    -0.287 OA
ATOM      9  C   UNL     1       2.603  -2.715   0.203  0.00  0.00    +0.072 A 
ATOM     10  C   UNL     1       3.708  -1.911   0.174  0.00  0.00    +0.199 A 
ATOM     11  O   UNL     1       3.635  -0.584  -0.053  0.00  0.00    -0.450 OA
ATOM     12  C   UNL     1       4.894  -2.746   0.426  0.00  0.00    +0.287 C 
ATOM     13  O   UNL     1       6.037  -2.336   0.471  0.00  0.00    -0.266 OA
ATOM     14  N   UNL     1       4.528  -4.032   0.599  0.00  0.00    -0.253 N 
ATOM     15  C   UNL     1       3.063  -4.110   0.470  0.00  0.00    +0.150 C 
ENDROOT
BRANCH  14  16
ATOM     16  C   UNL     1       5.388  -5.104   0.857  0.00  0.00    +0.039 A 
ATOM     17  C   UNL     1       4.876  -6.386   1.009  0.00  0.00    +0.023 A 
ATOM     18  C   UNL     1       5.728  -7.443   1.263  0.00  0.00    +0.003 A 
ATOM     19  C   UNL     1       7.090  -7.226   1.366  0.00  0.00    +0.015 A 
ATOM     20  C   UNL     1       7.603  -5.950   1.215  0.00  0.00    +0.020 A 
ATOM     21  C   UNL     1       6.756  -4.889   0.955  0.00  0.00    +0.038 A 
ATOM     22 BR   UNL     1       9.466  -5.659   1.357  0.00  0.00    -0.050 Br
ENDBRANCH  14  16
BRANCH  15  23
ATOM     23  C   UNL     1       2.690  -5.010  -0.679  0.00  0.00    -0.020 A 
ATOM     24  C   UNL     1       3.447  -5.005  -1.836  0.00  0.00    +0.006 A 
ATOM     25  C   UNL     1       3.104  -5.830  -2.890  0.00  0.00    +0.003 A 
ATOM     26  C   UNL     1       2.005  -6.662  -2.788  0.00  0.00    +0.033 A 
ATOM     27  C   UNL     1       1.248  -6.668  -1.631  0.00  0.00    +0.127 A 
ATOM     28  C   UNL     1       1.593  -5.846  -0.575  0.00  0.00    +0.038 A 
BRANCH  27  29
ATOM     29  N   UNL     1       0.071  -7.558  -1.522  0.00  0.00    +0.056 N 
ATOM     30  O   UNL     1      -0.229  -8.280  -2.444  0.00  0.00    -0.126 OA
ATOM     31  O   UNL     1      -0.591  -7.564  -0.510  0.00  0.00    -0.126 OA
ENDBRANCH  27  29
ENDBRANCH  15  23
TORSDOF 3
