REMARK  Name = ZINC40014033
REMARK  7 active torsions:
REMARK  status: ('A' for Active; 'I' for Inactive)
REMARK    1  A    between atoms: C_1  and  C_2
REMARK    2  A    between atoms: C_2  and  O_3
REMARK    3  A    between atoms: O_3  and  C_4
REMARK    4  A    between atoms: C_14  and  C_30
REMARK    5  A    between atoms: C_33  and  O_38
REMARK    6  A    between atoms: C_34  and  O_36
REMARK    7  A    between atoms: O_36  and  C_37
REMARK                            x       y       z     vdW  Elec       q    Type
REMARK                         _______ _______ _______ _____ _____    ______ ____
ROOT
ATOM      1  C   UNL     1       0.777  -1.811  -1.336  0.00  0.00    +0.122 A 
ATOM      2  C   UNL     1       0.244  -2.679  -0.388  0.00  0.00    +0.048 A 
ATOM      3  C   UNL     1       0.335  -4.029  -0.526  0.00  0.00    +0.032 A 
ATOM      4  C   UNL     1       0.980  -4.602  -1.647  0.00  0.00    +0.081 A 
ATOM      5  C   UNL     1       1.512  -3.697  -2.593  0.00  0.00    +0.044 A 
ATOM      6  C   UNL     1       1.413  -2.335  -2.452  0.00  0.00    +0.063 A 
ATOM      7  S   UNL     1       2.214  -4.788  -3.807  0.00  0.00    -0.052 S 
ATOM      8  C   UNL     1       1.773  -6.325  -3.009  0.00  0.00    +0.169 A 
ATOM      9  N   UNL     1       1.153  -5.912  -1.929  0.00  0.00    -0.224 NA
ATOM     10  N   UNL     1       2.021  -7.622  -3.426  0.00  0.00    -0.232 N 
ATOM     11  C   UNL     1       1.622  -8.849  -2.718  0.00  0.00    +0.152 C 
ATOM     12  C   UNL     1       2.115  -9.982  -3.557  0.00  0.00    +0.072 A 
ATOM     13  C   UNL     1       2.029 -11.433  -3.368  0.00  0.00    +0.199 A 
ATOM     14  O   UNL     1       1.343 -11.954  -2.507  0.00  0.00    -0.287 OA
ATOM     15  C   UNL     1       2.857 -12.208  -4.327  0.00  0.00    +0.067 A 
ATOM     16  C   UNL     1       3.039 -13.580  -4.154  0.00  0.00    +0.053 A 
ATOM     17  C   UNL     1       3.815 -14.282  -5.051  0.00  0.00    +0.124 A 
ATOM     18  C   UNL     1       4.412 -13.623  -6.120  0.00  0.00    +0.042 A 
ATOM     19  C   UNL     1       4.237 -12.270  -6.300  0.00  0.00    +0.050 A 
ATOM     20  C   UNL     1       3.454 -11.538  -5.408  0.00  0.00    +0.140 A 
ATOM     21  O   UNL     1       3.291 -10.211  -5.615  0.00  0.00    -0.450 OA
ATOM     22  C   UNL     1       2.737  -9.449  -4.651  0.00  0.00    +0.199 A 
ATOM     23  C   UNL     1       2.667  -7.982  -4.554  0.00  0.00    +0.289 C 
ATOM     24  O   UNL     1       3.125  -7.208  -5.371  0.00  0.00    -0.266 OA
ATOM     25  F   UNL     1       3.996 -15.612  -4.892  0.00  0.00    -0.205 F 
ENDROOT
BRANCH  11  26
ATOM     26  C   UNL     1       2.260  -8.894  -1.354  0.00  0.00    -0.018 A 
ATOM     27  C   UNL     1       3.557  -8.444  -1.184  0.00  0.00    +0.009 A 
ATOM     28  C   UNL     1       4.147  -8.483   0.066  0.00  0.00    +0.049 A 
ATOM     29  C   UNL     1       3.439  -8.973   1.151  0.00  0.00    +0.158 A 
ATOM     30  C   UNL     1       2.134  -9.425   0.981  0.00  0.00    +0.162 A 
ATOM     31  C   UNL     1       1.547  -9.379  -0.274  0.00  0.00    +0.055 A 
BRANCH  30  32
ATOM     32  O   UNL     1       1.435  -9.907   2.043  0.00  0.00    -0.491 OA
ATOM     33  C   UNL     1       0.101 -10.353   1.793  0.00  0.00    +0.277 C 
ENDBRANCH  30  32
BRANCH  29  34
ATOM     34  O   UNL     1       4.018  -9.012   2.381  0.00  0.00    -0.503 OA
ATOM     35  H   UNL     1       3.882  -8.211   2.906  0.00  0.00    +0.292 HD
ENDBRANCH  29  34
ENDBRANCH  11  26
BRANCH   1  36
ATOM     36  O   UNL     1       0.671  -0.465  -1.174  0.00  0.00    -0.492 OA
BRANCH  36  38
ATOM     37  C   UNL     1      -0.019   1.526   0.010  0.00  0.00    +0.048 C 
ATOM     38  C   UNL     1       0.002  -0.004   0.002  0.00  0.00    +0.225 C 
ENDBRANCH  36  38
ENDBRANCH   1  36
TORSDOF 5
