REMARK  Name = ZINC09057762
REMARK  9 active torsions:
REMARK  status: ('A' for Active; 'I' for Inactive)
REMARK    1  A    between atoms: C_1  and  C_2
REMARK    2  A    between atoms: C_5  and  C_8
REMARK    3  A    between atoms: C_10  and  C_11
REMARK    4  A    between atoms: C_11  and  C_12
REMARK    5  A    between atoms: N_14  and  N_15
REMARK    6  A    between atoms: C_16  and  C_18
REMARK    7  A    between atoms: C_18  and  C_19
REMARK    8  A    between atoms: C_18  and  C_25
REMARK    9  A    between atoms: C_18  and  O_31
REMARK                            x       y       z     vdW  Elec       q    Type
REMARK                         _______ _______ _______ _____ _____    ______ ____
ROOT
ATOM      1  N   UNL     1       0.904  -5.898   6.149  0.00  0.00    -0.231 N 
ATOM      2  C   UNL     1       0.786  -4.863   7.003  0.00  0.00    +0.270 C 
ATOM      3  O   UNL     1       0.605  -3.742   6.577  0.00  0.00    -0.270 OA
ATOM      4  H   UNL     1       1.048  -6.794   6.489  0.00  0.00    +0.173 HD
ENDROOT
BRANCH   1   7
ATOM      5  C   UNL     1       0.935  -6.715   3.913  0.00  0.00    +0.300 C 
ATOM      6  O   UNL     1       1.116  -7.837   4.339  0.00  0.00    -0.265 OA
ATOM      7  N   UNL     1       0.817  -5.679   4.767  0.00  0.00    -0.228 N 
ATOM      8  H   UNL     1       0.673  -4.783   4.426  0.00  0.00    +0.173 HD
BRANCH   5   9
ATOM      9  C   UNL     1       0.844  -6.482   2.443  0.00  0.00    +0.245 C 
ATOM     10  O   UNL     1       0.662  -5.357   2.015  0.00  0.00    -0.282 OA
BRANCH   9  13
ATOM     11  C   UNL     1       0.921  -7.338   0.193  0.00  0.00    +0.190 C 
ATOM     12  O   UNL     1       0.895  -8.384  -0.660  0.00  0.00    -0.287 OA
ATOM     13  C   UNL     1       0.966  -7.559   1.554  0.00  0.00    +0.107 C 
BRANCH  11  18
ATOM     14  C   UNL     1       0.846  -1.962  -1.849  0.00  0.00    +0.044 C 
ATOM     15  C   UNL     1       0.866  -3.371  -1.313  0.00  0.00    -0.050 A 
ATOM     16  C   UNL     1       1.890  -3.775  -0.475  0.00  0.00    +0.004 A 
ATOM     17  C   UNL     1       1.915  -5.062   0.019  0.00  0.00    +0.012 A 
ATOM     18  C   UNL     1       0.902  -5.960  -0.330  0.00  0.00    +0.022 A 
ATOM     19  C   UNL     1      -0.130  -5.545  -1.178  0.00  0.00    +0.012 A 
ATOM     20  C   UNL     1      -0.144  -4.253  -1.659  0.00  0.00    +0.004 A 
ENDBRANCH  11  18
ENDBRANCH   9  13
ENDBRANCH   5   9
ENDBRANCH   1   7
BRANCH   2  21
ATOM     21  C   UNL     1       0.879  -5.098   8.489  0.00  0.00    +0.194 C 
BRANCH  21  22
ATOM     22  C   UNL     1       1.327  -3.831   9.171  0.00  0.00    -0.003 A 
ATOM     23  C   UNL     1       2.492  -3.822   9.916  0.00  0.00    +0.007 A 
ATOM     24  C   UNL     1       2.904  -2.660  10.541  0.00  0.00    +0.000 A 
ATOM     25  C   UNL     1       2.151  -1.507  10.422  0.00  0.00    +0.000 A 
ATOM     26  C   UNL     1       0.986  -1.516   9.677  0.00  0.00    +0.000 A 
ATOM     27  C   UNL     1       0.577  -2.677   9.047  0.00  0.00    +0.007 A 
ENDBRANCH  21  22
BRANCH  21  28
ATOM     28  C   UNL     1      -0.473  -5.502   9.019  0.00  0.00    -0.003 A 
ATOM     29  C   UNL     1      -1.606  -4.819   8.617  0.00  0.00    +0.007 A 
ATOM     30  C   UNL     1      -2.845  -5.190   9.103  0.00  0.00    +0.000 A 
ATOM     31  C   UNL     1      -2.953  -6.244   9.991  0.00  0.00    +0.000 A 
ATOM     32  C   UNL     1      -1.820  -6.928  10.393  0.00  0.00    +0.000 A 
ATOM     33  C   UNL     1      -0.581  -6.559   9.903  0.00  0.00    +0.007 A 
ENDBRANCH  21  28
BRANCH  21  34
ATOM     34  O   UNL     1       1.823  -6.139   8.748  0.00  0.00    -0.371 OA
ATOM     35  H   UNL     1       2.717  -5.946   8.434  0.00  0.00    +0.212 HD
ENDBRANCH  21  34
ENDBRANCH   2  21
TORSDOF 8
