REMARK  Name = ZINC39467285
REMARK  6 active torsions:
REMARK  status: ('A' for Active; 'I' for Inactive)
REMARK    1  A    between atoms: C_1  and  S_2
REMARK    2  A    between atoms: S_2  and  C_3
REMARK    3  A    between atoms: P_12  and  C_30
REMARK    4  A    between atoms: C_20  and  S_21
REMARK    5  A    between atoms: S_21  and  C_24
REMARK    6  A    between atoms: C_35  and  O_36
REMARK                            x       y       z     vdW  Elec       q    Type
REMARK                         _______ _______ _______ _____ _____    ______ ____
ROOT
ATOM      1  C   UNL     1      -1.702  -0.454   0.016  0.00  0.00    +0.029 C 
ATOM      2  C   UNL     1      -2.647   0.494   0.024  0.00  0.00    -0.006 C 
ATOM      3  C   UNL     1      -4.103   0.090   0.025  0.00  0.00    +0.023 C 
ATOM      4  C   UNL     1      -4.518  -0.246   1.458  0.00  0.00    +0.031 C 
ATOM      5  C   UNL     1      -5.957  -0.773   1.492  0.00  0.00    +0.100 C 
ATOM      6  C   UNL     1      -6.284  -1.101   2.954  0.00  0.00    +0.189 C 
ATOM      7  O   UNL     1      -7.639  -1.573   3.054  0.00  0.00    -0.311 OA
ATOM      8  P   UNL     1      -8.100  -2.771   2.055  0.00  0.00    +0.318 P 
ATOM      9  O   UNL     1      -9.572  -2.777   1.905  0.00  0.00    -0.266 OA
ATOM     10  N   UNL     1      -7.378  -2.432   0.610  0.00  0.00    -0.175 NA
ATOM     11  N   UNL     1      -6.081  -1.960   0.640  0.00  0.00    -0.229 NA
ATOM     12  C   UNL     1      -5.697  -1.670  -0.752  0.00  0.00    +0.111 C 
ATOM     13  C   UNL     1      -4.267  -1.154  -0.853  0.00  0.00    +0.036 C 
ATOM     14  C   UNL     1      -3.309  -2.221  -0.398  0.00  0.00    +0.007 C 
ATOM     15  C   UNL     1      -2.094  -1.878   0.012  0.00  0.00    +0.103 C 
ATOM     16  H   UNL     1      -7.849  -2.563  -0.229  0.00  0.00    +0.151 HD
ENDROOT
BRANCH   8  17
ATOM     17  C   UNL     1      -7.527  -4.372   2.687  0.00  0.00    +0.094 A 
ATOM     18  C   UNL     1      -6.287  -4.858   2.318  0.00  0.00    +0.018 A 
ATOM     19  C   UNL     1      -5.851  -6.079   2.799  0.00  0.00    +0.001 A 
ATOM     20  C   UNL     1      -6.652  -6.815   3.652  0.00  0.00    +0.004 A 
ATOM     21  C   UNL     1      -7.892  -6.333   4.025  0.00  0.00    +0.046 A 
ATOM     22  C   UNL     1      -8.330  -5.106   3.547  0.00  0.00    +0.131 A 
BRANCH  22  23
ATOM     23  O   UNL     1      -9.547  -4.628   3.917  0.00  0.00    -0.506 OA
ATOM     24  H   UNL     1     -10.269  -4.894   3.332  0.00  0.00    +0.292 HD
ENDBRANCH  22  23
ENDBRANCH   8  17
BRANCH  15  25
ATOM     25  S   UNL     1      -0.960  -3.113   0.554  0.00  0.00    +0.026 S 
ATOM     26  O   UNL     1      -0.441  -2.669   1.800  0.00  0.00    -0.164 OA
ATOM     27  O   UNL     1      -1.619  -4.363   0.405  0.00  0.00    -0.164 OA
BRANCH  25  28
ATOM     28  C   UNL     1       0.389  -3.116  -0.581  0.00  0.00    +0.094 A 
ATOM     29  C   UNL     1       0.348  -3.927  -1.699  0.00  0.00    +0.027 A 
ATOM     30  C   UNL     1       1.406  -3.930  -2.589  0.00  0.00    +0.002 A 
ATOM     31  C   UNL     1       2.504  -3.121  -2.361  0.00  0.00    +0.000 A 
ATOM     32  C   UNL     1       2.543  -2.309  -1.243  0.00  0.00    +0.002 A 
ATOM     33  C   UNL     1       1.484  -2.303  -0.355  0.00  0.00    +0.027 A 
ENDBRANCH  25  28
ENDBRANCH  15  25
BRANCH   1  35
ATOM     34  C   UNL     1      -0.022   1.810   0.012  0.00  0.00    +0.090 C 
ATOM     35  S   UNL     1       0.002  -0.004   0.002  0.00  0.00    -0.127 S 
ENDBRANCH   1  35
TORSDOF 5
