REMARK  Name = ZINC28234845
REMARK  4 active torsions:
REMARK  status: ('A' for Active; 'I' for Inactive)
REMARK    1  A    between atoms: C_4  and  C_8
REMARK    2  A    between atoms: C_8  and  N_9
REMARK    3  A    between atoms: C_15  and  C_17
REMARK    4  A    between atoms: C_19  and  C_23
REMARK                            x       y       z     vdW  Elec       q    Type
REMARK                         _______ _______ _______ _____ _____    ______ ____
ROOT
ATOM      1  N   UNL     1      -1.899   2.094   1.591  0.00  0.00    -0.295 NA
ATOM      2  C   UNL     1      -1.217   0.809   1.382  0.00  0.00    +0.104 C 
ATOM      3  C   UNL     1      -0.309   0.912   0.152  0.00  0.00    +0.123 C 
ATOM      4  N   UNL     1      -1.109   1.388  -0.987  0.00  0.00    -0.294 N 
ATOM      5  C   UNL     1      -1.925   2.599  -0.805  0.00  0.00    +0.123 C 
ATOM      6  C   UNL     1      -2.773   2.429   0.459  0.00  0.00    +0.104 C 
ATOM      7  C   UNL     1      -1.095   0.734  -2.164  0.00  0.00    +0.264 C 
ATOM      8  O   UNL     1      -0.409  -0.262  -2.299  0.00  0.00    -0.268 OA
ENDROOT
BRANCH   7   9
ATOM      9  C   UNL     1      -1.908   1.224  -3.289  0.00  0.00    +0.121 A 
ATOM     10  C   UNL     1      -2.439   0.470  -4.321  0.00  0.00    +0.066 A 
ATOM     11  C   UNL     1      -3.124   1.380  -5.129  0.00  0.00    +0.166 A 
ATOM     12  N   UNL     1      -2.993   2.568  -4.596  0.00  0.00    -0.169 NA
ATOM     13  N   UNL     1      -2.296   2.514  -3.519  0.00  0.00    -0.272 N 
ATOM     14  H   UNL     1      -1.998   3.310  -2.821  0.00  0.00    +0.189 HD
BRANCH  11  15
ATOM     15  C   UNL     1      -3.880   1.052  -6.391  0.00  0.00    +0.436 C 
ATOM     16  F   UNL     1      -5.210   0.754  -6.073  0.00  0.00    -0.164 F 
ATOM     17  F   UNL     1      -3.842   2.150  -7.256  0.00  0.00    -0.164 F 
ATOM     18  F   UNL     1      -3.291  -0.053  -7.013  0.00  0.00    -0.164 F 
ENDBRANCH  11  15
ENDBRANCH   7   9
BRANCH   1  19
ATOM     19  C   UNL     1      -2.649   2.092   2.854  0.00  0.00    +0.124 C 
BRANCH  19  23
ATOM     20  C   UNL     1       0.079   1.803   6.131  0.00  0.00    +0.004 A 
ATOM     21  C   UNL     1      -0.433   0.655   5.557  0.00  0.00    +0.039 A 
ATOM     22  C   UNL     1      -1.322   0.747   4.499  0.00  0.00    +0.129 A 
ATOM     23  C   UNL     1      -1.687   1.990   4.010  0.00  0.00    +0.020 A 
ATOM     24  C   UNL     1      -1.173   3.137   4.585  0.00  0.00    +0.048 A 
ATOM     25  C   UNL     1      -0.290   3.043   5.647  0.00  0.00    +0.020 A 
ATOM     26 CL   UNL     1      -1.636   4.696   3.977  0.00  0.00    -0.083 Cl
ATOM     27  F   UNL     1      -1.828  -0.374   3.941  0.00  0.00    -0.205 F 
ENDBRANCH  19  23
ENDBRANCH   1  19
TORSDOF 4
