REMARK  Name = ZINC39681131
REMARK  6 active torsions:
REMARK  status: ('A' for Active; 'I' for Inactive)
REMARK    1  A    between atoms: C_1  and  C_2
REMARK    2  A    between atoms: C_2  and  C_4
REMARK    3  A    between atoms: C_2  and  N_10
REMARK    4  A    between atoms: C_11  and  C_13
REMARK    5  A    between atoms: C_24  and  C_26
REMARK    6  A    between atoms: C_29  and  C_31
REMARK                            x       y       z     vdW  Elec       q    Type
REMARK                         _______ _______ _______ _____ _____    ______ ____
ROOT
ATOM      1  C   UNL     1      -3.465  -1.164  -1.134  0.00  0.00    +0.100 C 
ATOM      2  C   UNL     1      -3.486  -2.652  -0.717  0.00  0.00    +0.121 C 
ATOM      3  N   UNL     1      -4.545  -3.261  -1.556  0.00  0.00    -0.294 N 
ATOM      4  C   UNL     1      -4.384  -2.614  -2.880  0.00  0.00    +0.115 C 
ATOM      5  C   UNL     1      -4.054  -1.143  -2.554  0.00  0.00    -0.004 C 
ATOM      6  C   UNL     1      -3.027  -0.602  -3.545  0.00  0.00    -0.010 C 
ATOM      7  C   UNL     1      -3.655  -0.536  -4.939  0.00  0.00    -0.082 C 
ATOM      8  N   UNL     1      -4.838   0.334  -4.905  0.00  0.00    +0.379 N 
ATOM      9  C   UNL     1      -5.858  -0.244  -4.021  0.00  0.00    -0.082 C 
ATOM     10  C   UNL     1      -5.323  -0.297  -2.587  0.00  0.00    -0.010 C 
ATOM     11  C   UNL     1      -5.451  -4.192  -1.196  0.00  0.00    +0.282 C 
ATOM     12  O   UNL     1      -6.264  -4.595  -2.008  0.00  0.00    -0.267 OA
ATOM     13  H   UNL     1      -4.574   1.245  -4.561  0.00  0.00    -0.086 HD
ATOM     14  H   UNL     1      -5.214   0.424  -5.837  0.00  0.00    -0.086 HD
ENDROOT
BRANCH  11  15
ATOM     15  C   UNL     1      -5.457  -4.718   0.171  0.00  0.00    +0.190 A 
ATOM     16  C   UNL     1      -6.320  -5.670   0.667  0.00  0.00    +0.055 A 
ATOM     17  C   UNL     1      -5.971  -5.872   2.007  0.00  0.00    +0.050 A 
ATOM     18  C   UNL     1      -4.920  -5.044   2.277  0.00  0.00    +0.136 A 
ATOM     19  O   UNL     1      -4.615  -4.358   1.163  0.00  0.00    -0.450 OA
BRANCH  18  20
ATOM     20  C   UNL     1      -4.229  -4.926   3.577  0.00  0.00    +0.017 A 
ATOM     21  C   UNL     1      -4.636  -5.706   4.661  0.00  0.00    +0.011 A 
ATOM     22  C   UNL     1      -3.985  -5.591   5.872  0.00  0.00    +0.001 A 
ATOM     23  C   UNL     1      -2.932  -4.705   6.014  0.00  0.00    +0.000 A 
ATOM     24  C   UNL     1      -2.524  -3.929   4.944  0.00  0.00    +0.001 A 
ATOM     25  C   UNL     1      -3.162  -4.037   3.726  0.00  0.00    +0.011 A 
ENDBRANCH  18  20
ENDBRANCH  11  15
BRANCH   1  27
ATOM     26  N   UNL     1      -1.812   0.661  -0.903  0.00  0.00    -0.308 N 
ATOM     27  C   UNL     1      -2.051  -0.643  -1.145  0.00  0.00    +0.219 C 
ATOM     28  O   UNL     1      -1.128  -1.397  -1.371  0.00  0.00    -0.275 OA
ATOM     29  H   UNL     1      -2.550   1.264  -0.722  0.00  0.00    +0.149 HD
BRANCH  26  31
ATOM     30  C   UNL     1      -0.031   1.511  -2.348  0.00  0.00    +0.033 C 
ATOM     31  C   UNL     1      -0.438   1.169  -0.913  0.00  0.00    +0.100 C 
BRANCH  31  32
ATOM     32  C   UNL     1      -0.352   2.406  -0.058  0.00  0.00    -0.025 A 
ATOM     33  C   UNL     1      -1.369   3.349  -0.071  0.00  0.00    +0.025 A 
ATOM     34  C   UNL     1      -1.256   4.472   0.727  0.00  0.00    +0.111 A 
ATOM     35  N   UNL     1      -0.197   4.652   1.493  0.00  0.00    -0.263 NA
ATOM     36  C   UNL     1       0.788   3.776   1.531  0.00  0.00    +0.111 A 
ATOM     37  C   UNL     1       0.742   2.627   0.765  0.00  0.00    +0.025 A 
ENDBRANCH  31  32
ENDBRANCH  26  31
ENDBRANCH   1  27
TORSDOF 5
