REMARK  Name = ZINC59008865
REMARK  18 active torsions:
REMARK  status: ('A' for Active; 'I' for Inactive)
REMARK    1  A    between atoms: C_1  and  C_2
REMARK    2  A    between atoms: C_2  and  O_3
REMARK    3  A    between atoms: O_3  and  C_4
REMARK    4  A    between atoms: C_7  and  C_13
REMARK    5  A    between atoms: C_9  and  O_10
REMARK    6  A    between atoms: O_10  and  C_11
REMARK    7  A    between atoms: C_11  and  C_12
REMARK    8  A    between atoms: C_13  and  C_14
REMARK    9  A    between atoms: C_14  and  N_15
REMARK   10  A    between atoms: N_15  and  C_16
REMARK   11  A    between atoms: C_16  and  N_18
REMARK   12  A    between atoms: N_18  and  C_19
REMARK   13  A    between atoms: N_18  and  C_26
REMARK   14  A    between atoms: C_19  and  C_20
REMARK   15  A    between atoms: C_26  and  C_27
REMARK   16  A    between atoms: C_30  and  C_33
REMARK   17  A    between atoms: C_33  and  C_34
REMARK   18  A    between atoms: C_33  and  C_35
REMARK                            x       y       z     vdW  Elec       q    Type
REMARK                         _______ _______ _______ _____ _____    ______ ____
ROOT
ATOM      1  C   UNL     1      -2.289  -8.740   2.587  0.00  0.00    +0.133 C 
ATOM      2  S   UNL     1      -2.183  -7.897   4.074  0.00  0.00    -0.019 S 
ENDROOT
BRANCH   1   3
ATOM      3  N   UNL     1      -2.217  -8.065   1.423  0.00  0.00    -0.326 N 
ATOM      4  H   UNL     1      -2.276  -8.543   0.581  0.00  0.00    +0.148 HD
BRANCH   3   5
ATOM      5  C   UNL     1      -2.048  -6.610   1.429  0.00  0.00    +0.108 C 
BRANCH   5   6
ATOM      6  C   UNL     1      -1.996  -6.097  -0.011  0.00  0.00    +0.054 C 
BRANCH   6  10
ATOM      7  C   UNL     1      -1.498  -1.849   0.006  0.00  0.00    +0.162 A 
ATOM      8  C   UNL     1      -0.389  -2.680  -0.003  0.00  0.00    +0.050 A 
ATOM      9  C   UNL     1      -0.553  -4.052  -0.008  0.00  0.00    +0.007 A 
ATOM     10  C   UNL     1      -1.823  -4.600  -0.005  0.00  0.00    -0.042 A 
ATOM     11  C   UNL     1      -2.934  -3.777   0.004  0.00  0.00    +0.053 A 
ATOM     12  C   UNL     1      -2.776  -2.400   0.016  0.00  0.00    +0.162 A 
BRANCH   7  13
ATOM     13  O   UNL     1      -1.339  -0.499   0.012  0.00  0.00    -0.489 OA
BRANCH  13  15
ATOM     14  C   UNL     1      -0.019   1.526   0.010  0.00  0.00    +0.048 C 
ATOM     15  C   UNL     1       0.002  -0.004   0.002  0.00  0.00    +0.226 C 
ENDBRANCH  13  15
ENDBRANCH   7  13
BRANCH  12  16
ATOM     16  O   UNL     1      -3.868  -1.589   0.030  0.00  0.00    -0.489 OA
BRANCH  16  17
ATOM     17  C   UNL     1      -5.148  -2.225   0.039  0.00  0.00    +0.226 C 
ATOM     18  C   UNL     1      -6.246  -1.159   0.055  0.00  0.00    +0.048 C 
ENDBRANCH  16  17
ENDBRANCH  12  16
ENDBRANCH   6  10
ENDBRANCH   5   6
ENDBRANCH   3   5
ENDBRANCH   1   3
BRANCH   1  19
ATOM     19  N   UNL     1      -2.444 -10.079   2.582  0.00  0.00    -0.304 N 
BRANCH  19  20
ATOM     20  C   UNL     1      -2.534 -10.801   1.310  0.00  0.00    +0.142 C 
BRANCH  20  21
ATOM     21  C   UNL     1      -1.154 -11.212   0.866  0.00  0.00    -0.030 A 
ATOM     22  C   UNL     1      -0.402 -10.365   0.073  0.00  0.00    +0.005 A 
ATOM     23  C   UNL     1       0.864 -10.742  -0.334  0.00  0.00    +0.000 A 
ATOM     24  C   UNL     1       1.379 -11.965   0.053  0.00  0.00    +0.000 A 
ATOM     25  C   UNL     1       0.628 -12.811   0.847  0.00  0.00    +0.000 A 
ATOM     26  C   UNL     1      -0.637 -12.433   1.257  0.00  0.00    +0.005 A 
ENDBRANCH  20  21
ENDBRANCH  19  20
BRANCH  19  27
ATOM     27  C   UNL     1      -2.522 -10.813   3.847  0.00  0.00    +0.142 C 
BRANCH  27  28
ATOM     28  C   UNL     1      -3.960 -10.901   4.289  0.00  0.00    -0.030 A 
ATOM     29  C   UNL     1      -4.499  -9.912   5.090  0.00  0.00    +0.005 A 
ATOM     30  C   UNL     1      -5.818  -9.992   5.495  0.00  0.00    +0.004 A 
ATOM     31  C   UNL     1      -6.599 -11.063   5.098  0.00  0.00    -0.045 A 
ATOM     32  C   UNL     1      -6.060 -12.052   4.297  0.00  0.00    +0.004 A 
ATOM     33  C   UNL     1      -4.742 -11.969   3.888  0.00  0.00    +0.005 A 
BRANCH  31  34
ATOM     34  C   UNL     1      -8.037 -11.151   5.541  0.00  0.00    +0.013 C 
ATOM     35  C   UNL     1      -8.948 -11.168   4.312  0.00  0.00    +0.012 C 
ATOM     36  C   UNL     1      -8.244 -12.435   6.347  0.00  0.00    +0.012 C 
ENDBRANCH  31  34
ENDBRANCH  27  28
ENDBRANCH  19  27
ENDBRANCH   1  19
TORSDOF 14
