REMARK  Name = ZINC02914728
REMARK  2 active torsions:
REMARK  status: ('A' for Active; 'I' for Inactive)
REMARK    1  A    between atoms: C_3  and  C_8
REMARK    2  A    between atoms: C_11  and  C_19
REMARK                            x       y       z     vdW  Elec       q    Type
REMARK                         _______ _______ _______ _____ _____    ______ ____
ROOT
ATOM      1  C   UNL     1       3.672   2.183  -0.022  0.00  0.00    +0.106 C 
ATOM      2  C   UNL     1       4.232   2.232  -1.448  0.00  0.00    +0.058 C 
ATOM      3  C   UNL     1       4.426   0.805  -1.977  0.00  0.00    +0.143 C 
ATOM      4  N   UNL     1       5.149   0.024  -0.974  0.00  0.00    -0.226 N 
ATOM      5  C   UNL     1       5.249   0.366   0.333  0.00  0.00    +0.215 A 
ATOM      6  N   UNL     1       5.963  -0.546   0.936  0.00  0.00    -0.202 NA
ATOM      7  C   UNL     1       6.332  -1.480   0.053  0.00  0.00    +0.247 A 
ATOM      8  N   UNL     1       5.855  -1.170  -1.127  0.00  0.00    -0.156 NA
ATOM      9  N   UNL     1       4.654   1.513   0.852  0.00  0.00    -0.307 N 
ATOM     10  H   UNL     1       4.873   1.854   1.733  0.00  0.00    +0.149 HD
ENDROOT
BRANCH   1  13
ATOM     11  C   UNL     1      -0.017   1.378   0.010  0.00  0.00    +0.001 A 
ATOM     12  C   UNL     1       1.171   2.086   0.002  0.00  0.00    +0.005 A 
ATOM     13  C   UNL     1       2.378   1.411  -0.013  0.00  0.00    -0.026 A 
ATOM     14  C   UNL     1       2.397   0.029  -0.022  0.00  0.00    +0.020 A 
ATOM     15  C   UNL     1       1.210  -0.679  -0.014  0.00  0.00    +0.018 A 
ATOM     16  C   UNL     1       0.002  -0.004   0.002  0.00  0.00    +0.015 A 
ATOM     17 BR   UNL     1       1.236  -2.570  -0.025  0.00  0.00    -0.050 Br
ENDBRANCH   1  13
BRANCH   3  18
ATOM     18  C   UNL     1       5.219   0.845  -3.258  0.00  0.00    -0.023 A 
ATOM     19  C   UNL     1       6.496   1.373  -3.264  0.00  0.00    +0.007 A 
ATOM     20  C   UNL     1       7.224   1.410  -4.439  0.00  0.00    +0.020 A 
ATOM     21  C   UNL     1       6.673   0.918  -5.609  0.00  0.00    +0.041 A 
ATOM     22  C   UNL     1       5.395   0.390  -5.602  0.00  0.00    +0.020 A 
ATOM     23  C   UNL     1       4.670   0.348  -4.426  0.00  0.00    +0.007 A 
ATOM     24 CL   UNL     1       7.586   0.965  -7.085  0.00  0.00    -0.084 Cl
ENDBRANCH   3  18
TORSDOF 2
