REMARK  Name = ZINC23058034
REMARK  7 active torsions:
REMARK  status: ('A' for Active; 'I' for Inactive)
REMARK    1  A    between atoms: C_1  and  C_2
REMARK    2  A    between atoms: C_9  and  N_13
REMARK    3  A    between atoms: C_10  and  C_11
REMARK    4  A    between atoms: C_14  and  C_16
REMARK    5  A    between atoms: C_16  and  N_17
REMARK    6  A    between atoms: N_22  and  C_27
REMARK    7  A    between atoms: N_25  and  C_26
REMARK                            x       y       z     vdW  Elec       q    Type
REMARK                         _______ _______ _______ _____ _____    ______ ____
ROOT
ATOM      1  N   UNL     1       0.322  -0.624   0.199  0.00  0.00    -0.277 N 
ATOM      2  C   UNL     1      -0.879  -1.236   0.174  0.00  0.00    +0.237 C 
ATOM      3  O   UNL     1      -1.890  -0.596   0.374  0.00  0.00    -0.273 OA
ATOM      4  H   UNL     1       1.239  -1.204   0.018  0.00  0.00    +0.155 HD
ENDROOT
BRANCH   1  12
ATOM      5  C   UNL     1       0.351   7.044   1.755  0.00  0.00    +0.008 C 
ATOM      6  C   UNL     1       0.753   5.568   1.733  0.00  0.00    -0.009 C 
ATOM      7  C   UNL     1       1.911   5.366   0.751  0.00  0.00    +0.008 C 
ATOM      8  C   UNL     1       2.483   3.955   0.904  0.00  0.00    +0.037 C 
ATOM      9  C   UNL     1       1.343   2.950   0.801  0.00  0.00    -0.018 A 
ATOM     10  C   UNL     1       0.058   3.334   0.973  0.00  0.00    -0.004 A 
ATOM     11  S   UNL     1      -0.889   1.854   0.756  0.00  0.00    -0.077 S 
ATOM     12  C   UNL     1       0.402   0.739   0.452  0.00  0.00    +0.090 A 
ATOM     13  C   UNL     1       1.533   1.538   0.518  0.00  0.00    +0.084 A 
ATOM     14  C   UNL     1      -0.439   4.714   1.276  0.00  0.00    +0.046 C 
BRANCH  13  15
ATOM     15  C   UNL     1       2.841   0.992   0.314  0.00  0.00    +0.102 C 
ATOM     16  N   UNL     1       3.878   0.558   0.152  0.00  0.00    -0.191 NA
ENDBRANCH  13  15
ENDBRANCH   1  12
BRANCH   2  17
ATOM     17  C   UNL     1      -0.965  -2.715  -0.101  0.00  0.00    +0.221 C 
BRANCH  17  18
ATOM     18  N   UNL     1      -2.368  -3.135  -0.074  0.00  0.00    -0.295 N 
ATOM     19  C   UNL     1      -3.241  -3.089  -1.115  0.00  0.00    +0.151 A 
ATOM     20  C   UNL     1      -4.448  -3.585  -0.638  0.00  0.00    +0.172 A 
ATOM     21  C   UNL     1      -5.583  -3.656  -1.560  0.00  0.00    +0.284 A 
ATOM     22  O   UNL     1      -6.662  -4.079  -1.188  0.00  0.00    -0.265 OA
ATOM     23  N   UNL     1      -5.410  -3.226  -2.829  0.00  0.00    -0.262 N 
ATOM     24  C   UNL     1      -4.221  -2.757  -3.243  0.00  0.00    +0.333 A 
ATOM     25  O   UNL     1      -4.105  -2.387  -4.395  0.00  0.00    -0.246 OA
ATOM     26  N   UNL     1      -3.155  -2.682  -2.427  0.00  0.00    -0.281 N 
ATOM     27  C   UNL     1      -1.886  -2.160  -2.940  0.00  0.00    +0.155 C 
ATOM     28  C   UNL     1      -6.531  -3.282  -3.770  0.00  0.00    +0.157 C 
ATOM     29  N   UNL     1      -4.268  -3.905   0.667  0.00  0.00    -0.214 NA
ATOM     30  C   UNL     1      -3.038  -3.639   1.004  0.00  0.00    +0.180 A 
ATOM     31 BR   UNL     1      -2.295  -3.910   2.721  0.00  0.00    -0.008 Br
ENDBRANCH  17  18
ENDBRANCH   2  17
TORSDOF 4
