REMARK  Name = ZINC67391259
REMARK  6 active torsions:
REMARK  status: ('A' for Active; 'I' for Inactive)
REMARK    1  A    between atoms: C_1  and  C_2
REMARK    2  A    between atoms: C_6  and  C_7
REMARK    3  A    between atoms: N_9  and  N_10
REMARK    4  A    between atoms: N_13  and  C_14
REMARK    5  A    between atoms: C_14  and  C_15
REMARK    6  A    between atoms: C_15  and  N_20
REMARK                            x       y       z     vdW  Elec       q    Type
REMARK                         _______ _______ _______ _____ _____    ______ ____
ROOT
ATOM      1  N   UNL     1       0.249  -0.756   4.834  0.00  0.00    -0.218 N 
ATOM      2  C   UNL     1       0.180  -1.632   5.856  0.00  0.00    +0.316 C 
ATOM      3  O   UNL     1       0.115  -1.227   7.000  0.00  0.00    -0.251 OA
ATOM      4  N   UNL     1       0.184  -2.957   5.610  0.00  0.00    -0.300 N 
ATOM      5  H   UNL     1       0.246   0.197   5.011  0.00  0.00    +0.174 HD
ATOM      6  H   UNL     1       0.237  -3.281   4.697  0.00  0.00    +0.150 HD
ENDROOT
BRANCH   1   9
ATOM      7  C   UNL     1       0.393  -0.348   2.493  0.00  0.00    +0.267 C 
ATOM      8  O   UNL     1       0.390   0.849   2.715  0.00  0.00    -0.268 OA
ATOM      9  N   UNL     1       0.324  -1.224   3.515  0.00  0.00    -0.229 N 
ATOM     10  H   UNL     1       0.327  -2.177   3.338  0.00  0.00    +0.173 HD
BRANCH   7  16
ATOM     11  C   UNL     1       0.562   1.394  -0.084  0.00  0.00    +0.045 C 
ATOM     12  C   UNL     1       0.549  -0.113  -0.067  0.00  0.00    -0.031 A 
ATOM     13  C   UNL     1       0.618  -0.858  -1.220  0.00  0.00    +0.011 A 
ATOM     14  C   UNL     1       0.602  -2.211  -1.133  0.00  0.00    +0.046 A 
ATOM     15  S   UNL     1       0.492  -2.516   0.515  0.00  0.00    -0.092 S 
ATOM     16  C   UNL     1       0.472  -0.837   1.113  0.00  0.00    +0.078 A 
ENDBRANCH   7  16
ENDBRANCH   1   9
BRANCH   4  17
ATOM     17  C   UNL     1       0.110  -3.909   6.721  0.00  0.00    +0.094 C 
BRANCH  17  18
ATOM     18  C   UNL     1       0.007  -5.332   6.168  0.00  0.00    -0.050 C 
ATOM     19  C   UNL     1      -1.279  -5.482   5.330  0.00  0.00    -0.010 C 
ATOM     20  C   UNL     1      -1.770  -6.917   5.641  0.00  0.00    -0.001 C 
ATOM     21  C   UNL     1      -1.450  -7.068   7.149  0.00  0.00    -0.001 C 
ATOM     22  C   UNL     1      -0.101  -6.341   7.324  0.00  0.00    -0.010 C 
BRANCH  18  23
ATOM     23  N   UNL     1       1.184  -5.637   5.343  0.00  0.00    +0.386 N 
ATOM     24  C   UNL     1       0.984  -6.927   4.680  0.00  0.00    -0.067 C 
ATOM     25  C   UNL     1       2.002  -7.093   3.545  0.00  0.00    +0.050 C 
ATOM     26  S   UNL     1       3.672  -7.082   4.271  0.00  0.00    -0.164 S 
ATOM     27  C   UNL     1       3.637  -5.600   5.327  0.00  0.00    +0.050 C 
ATOM     28  C   UNL     1       2.375  -5.657   6.195  0.00  0.00    -0.067 C 
ATOM     29  H   UNL     1       1.292  -4.919   4.642  0.00  0.00    -0.081 HD
ENDBRANCH  18  23
ENDBRANCH  17  18
ENDBRANCH   4  17
TORSDOF 5
