REMARK  Name = ZINC14458200
REMARK  7 active torsions:
REMARK  status: ('A' for Active; 'I' for Inactive)
REMARK    1  A    between atoms: C_1  and  C_2
REMARK    2  A    between atoms: C_4  and  C_30
REMARK    3  A    between atoms: C_5  and  C_9
REMARK    4  A    between atoms: C_6  and  C_8
REMARK    5  A    between atoms: C_20  and  C_25
REMARK    6  A    between atoms: N_27  and  C_28
REMARK    7  A    between atoms: N_27  and  C_29
REMARK                            x       y       z     vdW  Elec       q    Type
REMARK                         _______ _______ _______ _____ _____    ______ ____
ROOT
ATOM      1  C   UNL     1      -2.043   1.823  -0.772  0.00  0.00    +0.105 C 
ATOM      2  C   UNL     1      -2.371   2.298  -2.191  0.00  0.00    +0.029 C 
ATOM      3  C   UNL     1      -1.035   2.342  -2.986  0.00  0.00    +0.033 C 
ATOM      4  C   UNL     1      -0.428   3.672  -2.585  0.00  0.00    -0.030 C 
ATOM      5  C   UNL     1      -1.355   4.483  -2.136  0.00  0.00    -0.023 C 
ATOM      6  C   UNL     1      -2.704   3.805  -2.171  0.00  0.00    +0.049 C 
ATOM      7  C   UNL     1      -3.546   4.202  -1.000  0.00  0.00    -0.019 A 
ATOM      8  C   UNL     1      -4.123   5.459  -0.995  0.00  0.00    +0.019 A 
ATOM      9  C   UNL     1      -4.918   5.868   0.075  0.00  0.00    +0.037 A 
ATOM     10  C   UNL     1      -5.138   5.004   1.153  0.00  0.00    +0.015 A 
ATOM     11  C   UNL     1      -4.564   3.754   1.148  0.00  0.00    +0.024 A 
ATOM     12  C   UNL     1      -3.769   3.352   0.077  0.00  0.00    +0.031 A 
ATOM     13  N   UNL     1      -3.196   2.082   0.096  0.00  0.00    -0.336 N 
ATOM     14  H   UNL     1      -3.552   1.385   0.670  0.00  0.00    +0.147 HD
ENDROOT
BRANCH   1  19
ATOM     15  C   UNL     1       2.564   4.696   1.205  0.00  0.00    +0.044 C 
ATOM     16  C   UNL     1       1.361   3.946   0.693  0.00  0.00    -0.050 A 
ATOM     17  C   UNL     1       1.445   2.587   0.453  0.00  0.00    +0.007 A 
ATOM     18  C   UNL     1       0.342   1.899  -0.017  0.00  0.00    -0.045 A 
ATOM     19  C   UNL     1      -0.843   2.571  -0.253  0.00  0.00    -0.021 A 
ATOM     20  C   UNL     1      -0.928   3.929  -0.008  0.00  0.00    -0.045 A 
ATOM     21  C   UNL     1       0.175   4.617   0.462  0.00  0.00    +0.007 A 
ATOM     22  C   UNL     1      -2.221   4.661  -0.259  0.00  0.00    +0.044 C 
ATOM     23  C   UNL     1       0.433   0.418  -0.279  0.00  0.00    +0.044 C 
ENDBRANCH   1  19
BRANCH   9  24
ATOM     24  C   UNL     1      -5.528   7.211   0.071  0.00  0.00    +0.246 C 
ATOM     25  O   UNL     1      -4.967   8.131  -0.492  0.00  0.00    -0.270 OA
ATOM     26  N   UNL     1      -6.707   7.418   0.691  0.00  0.00    -0.304 N 
ATOM     27  C   UNL     1      -7.203   8.783   0.884  0.00  0.00    +0.132 C 
ATOM     28  C   UNL     1      -7.492   6.279   1.172  0.00  0.00    +0.132 C 
ENDBRANCH   9  24
TORSDOF 2
