REMARK  Name = ZINC35099418
REMARK  5 active torsions:
REMARK  status: ('A' for Active; 'I' for Inactive)
REMARK    1  A    between atoms: C_6  and  C_7
REMARK    2  A    between atoms: C_7  and  O_31
REMARK    3  A    between atoms: C_8  and  C_25
REMARK    4  A    between atoms: C_10  and  C_16
REMARK    5  A    between atoms: C_25  and  C_27
REMARK                            x       y       z     vdW  Elec       q    Type
REMARK                         _______ _______ _______ _____ _____    ______ ____
ROOT
ATOM      1  C   UNL     1      -1.028  -0.650   0.110  0.00  0.00    +0.172 C 
ATOM      2  C   UNL     1      -1.461  -1.016   1.534  0.00  0.00    +0.144 C 
ATOM      3  C   UNL     1      -2.033   0.236   2.207  0.00  0.00    +0.120 C 
ATOM      4  N   UNL     1      -3.115   0.773   1.381  0.00  0.00    -0.292 N 
ATOM      5  C   UNL     1      -3.126   0.607   0.050  0.00  0.00    +0.302 C 
ATOM      6  O   UNL     1      -4.043   1.083  -0.590  0.00  0.00    -0.253 OA
ATOM      7  N   UNL     1      -2.165  -0.064  -0.602  0.00  0.00    -0.267 N 
ATOM      8  H   UNL     1      -3.840   1.260   1.805  0.00  0.00    +0.151 HD
ATOM      9  H   UNL     1      -2.225  -0.163  -1.565  0.00  0.00    +0.153 HD
ENDROOT
BRANCH   3  10
ATOM     10  C   UNL     1      -2.568  -0.124   3.569  0.00  0.00    -0.023 A 
ATOM     11  C   UNL     1      -3.857  -0.606   3.698  0.00  0.00    +0.009 A 
ATOM     12  C   UNL     1      -4.353  -0.939   4.945  0.00  0.00    +0.050 A 
ATOM     13  C   UNL     1      -3.557  -0.789   6.069  0.00  0.00    +0.166 A 
ATOM     14  C   UNL     1      -2.258  -0.304   5.940  0.00  0.00    +0.167 A 
ATOM     15  C   UNL     1      -1.767   0.022   4.686  0.00  0.00    +0.055 A 
ATOM     16  O   UNL     1      -1.687  -0.249   7.178  0.00  0.00    -0.453 OA
ATOM     17  C   UNL     1      -2.782  -0.318   8.110  0.00  0.00    +0.466 C 
ATOM     18  O   UNL     1      -3.800  -1.039   7.389  0.00  0.00    -0.453 OA
ENDBRANCH   3  10
BRANCH   1  24
ATOM     19  C   UNL     1      -0.179   1.704   0.190  0.00  0.00    +0.011 A 
ATOM     20  C   UNL     1       0.853   2.621   0.243  0.00  0.00    +0.039 A 
ATOM     21  C   UNL     1       2.166   2.183   0.273  0.00  0.00    +0.123 A 
ATOM     22  C   UNL     1       2.444   0.827   0.251  0.00  0.00    +0.039 A 
ATOM     23  C   UNL     1       1.410  -0.089   0.198  0.00  0.00    +0.011 A 
ATOM     24  C   UNL     1       0.099   0.350   0.168  0.00  0.00    +0.003 A 
ATOM     25  F   UNL     1       3.176   3.079   0.325  0.00  0.00    -0.205 F 
ENDBRANCH   1  24
BRANCH   2  26
ATOM     26  C   UNL     1      -2.514  -2.093   1.481  0.00  0.00    +0.245 C 
ATOM     27  O   UNL     1      -3.567  -1.881   0.930  0.00  0.00    -0.287 OA
BRANCH  26  28
ATOM     28  C   UNL     1      -2.252  -3.434   2.116  0.00  0.00    +0.451 C 
ATOM     29  F   UNL     1      -3.330  -4.288   1.864  0.00  0.00    -0.163 F 
ATOM     30  F   UNL     1      -1.084  -3.985   1.577  0.00  0.00    -0.163 F 
ATOM     31  F   UNL     1      -2.097  -3.274   3.498  0.00  0.00    -0.163 F 
ENDBRANCH  26  28
ENDBRANCH   2  26
BRANCH   1  32
ATOM     32  O   UNL     1      -0.589  -1.825  -0.574  0.00  0.00    -0.367 OA
ATOM     33  H   UNL     1      -0.303  -1.666  -1.484  0.00  0.00    +0.212 HD
ENDBRANCH   1  32
TORSDOF 5
