REMARK  Name = ZINC19230819
REMARK  2 active torsions:
REMARK  status: ('A' for Active; 'I' for Inactive)
REMARK    1  A    between atoms: C_2  and  N_10
REMARK    2  A    between atoms: N_10  and  C_11
REMARK                            x       y       z     vdW  Elec       q    Type
REMARK                         _______ _______ _______ _____ _____    ______ ____
ROOT
ATOM      1  N   UNL     1      -0.414   0.667   2.387  0.00  0.00    -0.332 N 
ATOM      2  H   UNL     1       0.507   0.066   2.371  0.00  0.00    +0.147 HD
ENDROOT
BRANCH   1   4
ATOM      3  C   UNL     1      -2.457   1.327   3.491  0.00  0.00    +0.045 A 
ATOM      4  C   UNL     1      -1.296   0.565   3.467  0.00  0.00    +0.048 A 
ATOM      5  C   UNL     1      -1.010  -0.295   4.521  0.00  0.00    +0.063 A 
ATOM      6  C   UNL     1      -1.884  -0.393   5.587  0.00  0.00    +0.043 A 
ATOM      7  C   UNL     1      -3.042   0.363   5.607  0.00  0.00    +0.061 A 
ATOM      8  C   UNL     1      -3.329   1.221   4.558  0.00  0.00    +0.061 A 
ATOM      9 CL   UNL     1      -4.784   2.168   4.586  0.00  0.00    -0.082 Cl
ATOM     10 CL   UNL     1      -4.137   0.238   6.948  0.00  0.00    -0.082 Cl
ATOM     11 CL   UNL     1       0.443  -1.244   4.498  0.00  0.00    -0.082 Cl
ENDBRANCH   1   4
BRANCH   1  12
ATOM     12  C   UNL     1      -0.717   1.573   1.277  0.00  0.00    +0.157 C 
ATOM     13  C   UNL     1      -0.013   1.086   0.008  0.00  0.00    +0.032 C 
ATOM     14  C   UNL     1      -0.735   1.583  -1.231  0.00  0.00    +0.004 C 
ATOM     15  C   UNL     1      -0.668   3.087  -1.417  0.00  0.00    +0.019 C 
ATOM     16  C   UNL     1      -1.450   3.808  -0.317  0.00  0.00    +0.104 C 
ATOM     17  N   UNL     1      -0.562   4.000   0.842  0.00  0.00    -0.314 N 
ATOM     18  C   UNL     1      -0.211   2.963   1.603  0.00  0.00    +0.233 C 
ATOM     19  O   UNL     1       0.517   3.134   2.558  0.00  0.00    -0.274 OA
ATOM     20  H   UNL     1      -0.185   5.005   1.085  0.00  0.00    +0.149 HD
ENDBRANCH   1  12
TORSDOF 2
