REMARK  Name = ZINC35684966
REMARK  6 active torsions:
REMARK  status: ('A' for Active; 'I' for Inactive)
REMARK    1  A    between atoms: C_1  and  C_2
REMARK    2  A    between atoms: C_5  and  C_8
REMARK    3  A    between atoms: C_9  and  C_31
REMARK    4  A    between atoms: C_13  and  C_19
REMARK    5  A    between atoms: C_16  and  O_18
REMARK    6  A    between atoms: N_21  and  C_22
REMARK                            x       y       z     vdW  Elec       q    Type
REMARK                         _______ _______ _______ _____ _____    ______ ____
ROOT
ATOM      1  C   UNL     1       0.075  -4.267  -0.010  0.00  0.00    +0.098 A 
ATOM      2  C   UNL     1       0.731  -5.089   0.927  0.00  0.00    +0.021 A 
ATOM      3  C   UNL     1       0.500  -6.377   0.575  0.00  0.00    +0.159 A 
ATOM      4  N   UNL     1      -0.277  -6.366  -0.557  0.00  0.00    -0.233 N 
ATOM      5  N   UNL     1      -0.532  -5.041  -0.891  0.00  0.00    -0.168 NA
ATOM      6  C   UNL     1      -0.708  -7.602  -1.216  0.00  0.00    +0.204 C 
ATOM      7  C   UNL     1       0.357  -8.673  -0.961  0.00  0.00    +0.131 C 
ATOM      8  C   UNL     1       0.837  -8.643   0.462  0.00  0.00    +0.191 C 
ATOM      9  N   UNL     1       0.909  -7.544   1.157  0.00  0.00    -0.198 NA
ATOM     10  C   UNL     1       1.543  -4.621   2.107  0.00  0.00    +0.050 C 
ENDROOT
BRANCH   1  15
ATOM     11  C   UNL     1       0.023   1.492   0.013  0.00  0.00    +0.044 C 
ATOM     12  C   UNL     1       0.037  -0.015   0.007  0.00  0.00    -0.050 A 
ATOM     13  C   UNL     1       0.045  -0.699  -1.195  0.00  0.00    +0.004 A 
ATOM     14  C   UNL     1       0.058  -2.079  -1.206  0.00  0.00    +0.010 A 
ATOM     15  C   UNL     1       0.062  -2.783  -0.004  0.00  0.00    +0.002 A 
ATOM     16  C   UNL     1       0.053  -2.089   1.204  0.00  0.00    +0.010 A 
ATOM     17  C   UNL     1       0.046  -0.709   1.204  0.00  0.00    +0.004 A 
ENDBRANCH   1  15
BRANCH   6  18
ATOM     18  C   UNL     1      -2.028  -8.050  -0.643  0.00  0.00    +0.242 C 
ATOM     19  O   UNL     1      -2.562  -7.401   0.231  0.00  0.00    -0.273 OA
ATOM     20  N   UNL     1      -2.616  -9.172  -1.104  0.00  0.00    -0.281 N 
ATOM     21  H   UNL     1      -2.232  -9.647  -1.857  0.00  0.00    +0.155 HD
BRANCH  20  22
ATOM     22  C   UNL     1      -3.783  -9.652  -0.495  0.00  0.00    +0.072 A 
ATOM     23  C   UNL     1      -4.058  -9.334   0.828  0.00  0.00    +0.029 A 
ATOM     24  C   UNL     1      -5.209  -9.808   1.429  0.00  0.00    +0.043 A 
ATOM     25  C   UNL     1      -6.089 -10.601   0.713  0.00  0.00    +0.161 A 
ATOM     26  C   UNL     1      -5.819 -10.921  -0.609  0.00  0.00    +0.195 A 
ATOM     27  C   UNL     1      -4.670 -10.443  -1.216  0.00  0.00    +0.182 A 
ATOM     28  F   UNL     1      -4.409 -10.749  -2.506  0.00  0.00    -0.200 F 
ATOM     29  F   UNL     1      -6.680 -11.695  -1.306  0.00  0.00    -0.199 F 
ATOM     30  F   UNL     1      -7.213 -11.063   1.303  0.00  0.00    -0.202 F 
ENDBRANCH  20  22
ENDBRANCH   6  18
BRANCH   8  31
ATOM     31  O   UNL     1       1.209  -9.801   1.043  0.00  0.00    -0.495 OA
ATOM     32  H   UNL     1       1.506  -9.704   1.958  0.00  0.00    +0.293 HD
ENDBRANCH   8  31
TORSDOF 4
