REMARK  Name = ZINC09332345
REMARK  11 active torsions:
REMARK  status: ('A' for Active; 'I' for Inactive)
REMARK    1  A    between atoms: C_1  and  C_2
REMARK    2  A    between atoms: C_2  and  C_4
REMARK    3  A    between atoms: C_2  and  S_14
REMARK    4  A    between atoms: N_6  and  C_7
REMARK    5  A    between atoms: C_7  and  C_8
REMARK    6  A    between atoms: C_7  and  C_9
REMARK    7  A    between atoms: C_7  and  C_11
REMARK    8  A    between atoms: C_11  and  C_12
REMARK    9  A    between atoms: C_11  and  C_13
REMARK   10  A    between atoms: S_14  and  C_15
REMARK   11  A    between atoms: N_28  and  C_29
REMARK                            x       y       z     vdW  Elec       q    Type
REMARK                         _______ _______ _______ _____ _____    ______ ____
ROOT
ATOM      1  C   UNL     1       2.509  -0.029  -1.285  0.00  0.00    +0.178 A 
ATOM      2  N   UNL     1       2.838   0.645  -0.202  0.00  0.00    -0.215 NA
ATOM      3  C   UNL     1       4.080   1.079  -0.022  0.00  0.00    +0.117 A 
ATOM      4  C   UNL     1       5.097   0.847  -0.963  0.00  0.00    +0.076 A 
ATOM      5  C   UNL     1       6.415   1.387  -0.626  0.00  0.00    -0.023 A 
ATOM      6  C   UNL     1       6.525   2.049   0.544  0.00  0.00    -0.004 A 
ATOM      7  S   UNL     1       4.903   1.993   1.258  0.00  0.00    -0.073 S 
ATOM      8  C   UNL     1       7.754   2.689   1.113  0.00  0.00    +0.043 C 
ATOM      9  C   UNL     1       8.974   2.167   0.341  0.00  0.00    +0.005 C 
ATOM     10  C   UNL     1       8.681   2.255  -1.159  0.00  0.00    +0.005 C 
ATOM     11  C   UNL     1       7.623   1.221  -1.544  0.00  0.00    +0.037 C 
ATOM     12  C   UNL     1       4.712   0.113  -2.129  0.00  0.00    +0.268 A 
ATOM     13  O   UNL     1       5.528  -0.136  -2.999  0.00  0.00    -0.267 OA
ATOM     14  N   UNL     1       3.438  -0.303  -2.249  0.00  0.00    -0.253 N 
ENDROOT
BRANCH  14  15
ATOM     15  C   UNL     1       3.055  -1.028  -3.387  0.00  0.00    +0.087 A 
ATOM     16  C   UNL     1       2.593  -0.362  -4.513  0.00  0.00    +0.029 A 
ATOM     17  C   UNL     1       2.217  -1.078  -5.633  0.00  0.00    +0.002 A 
ATOM     18  C   UNL     1       2.300  -2.458  -5.633  0.00  0.00    +0.003 A 
ATOM     19  C   UNL     1       2.759  -3.127  -4.513  0.00  0.00    +0.040 A 
ATOM     20  C   UNL     1       3.143  -2.416  -3.391  0.00  0.00    +0.147 A 
ATOM     21  F   UNL     1       3.598  -3.068  -2.299  0.00  0.00    -0.203 F 
ENDBRANCH  14  15
BRANCH   1  22
ATOM     22  S   UNL     1       0.851  -0.589  -1.490  0.00  0.00    -0.075 S 
BRANCH  22  24
ATOM     23  C   UNL     1      -0.019   1.526   0.010  0.00  0.00    +0.029 C 
ATOM     24  C   UNL     1       0.002  -0.004   0.002  0.00  0.00    +0.137 C 
BRANCH  24  25
ATOM     25  C   UNL     1      -1.412  -0.526   0.013  0.00  0.00    +0.227 C 
ATOM     26  O   UNL     1      -1.927  -0.901  -1.019  0.00  0.00    -0.275 OA
ATOM     27  N   UNL     1      -2.103  -0.575   1.169  0.00  0.00    -0.296 N 
ATOM     28  H   UNL     1      -1.691  -0.275   1.994  0.00  0.00    +0.150 HD
BRANCH  27  29
ATOM     29  C   UNL     1      -3.478  -1.082   1.179  0.00  0.00    +0.121 C 
ATOM     30  C   UNL     1      -4.347  -0.217   0.265  0.00  0.00    +0.048 C 
BRANCH  29  31
ATOM     31  C   UNL     1      -4.029  -1.031   2.605  0.00  0.00    +0.020 C 
ATOM     32  C   UNL     1      -4.132   0.426   3.061  0.00  0.00    +0.010 C 
ATOM     33  C   UNL     1      -5.417  -1.675   2.639  0.00  0.00    +0.010 C 
ENDBRANCH  29  31
BRANCH  29  34
ATOM     34  C   UNL     1      -3.491  -2.473   0.697  0.00  0.00    +0.088 C 
ATOM     35  N   UNL     1      -3.502  -3.546   0.325  0.00  0.00    -0.194 NA
ENDBRANCH  29  34
ENDBRANCH  27  29
ENDBRANCH  24  25
ENDBRANCH  22  24
ENDBRANCH   1  22
TORSDOF 7
