REMARK  Name = ZINC09129844
REMARK  5 active torsions:
REMARK  status: ('A' for Active; 'I' for Inactive)
REMARK    1  A    between atoms: C_1  and  C_2
REMARK    2  A    between atoms: C_5  and  N_8
REMARK    3  A    between atoms: C_13  and  C_15
REMARK    4  A    between atoms: C_23  and  S_27
REMARK    5  A    between atoms: S_27  and  C_30
REMARK                            x       y       z     vdW  Elec       q    Type
REMARK                         _______ _______ _______ _____ _____    ______ ____
ROOT
ATOM      1  C   UNL     1      -0.127  -6.748  -2.556  0.00  0.00    +0.274 C 
ATOM      2  O   UNL     1      -0.116  -7.962  -2.629  0.00  0.00    -0.268 OA
ATOM      3  N   UNL     1      -0.236  -6.007  -3.676  0.00  0.00    -0.259 N 
ATOM      4  C   UNL     1      -0.335  -6.628  -4.910  0.00  0.00    +0.166 A 
ATOM      5  N   UNL     1      -0.347  -7.911  -5.188  0.00  0.00    -0.225 NA
ATOM      6  C   UNL     1      -0.450  -8.379  -6.450  0.00  0.00    +0.080 A 
ATOM      7  C   UNL     1      -0.474  -9.725  -6.883  0.00  0.00    +0.031 A 
ATOM      8  C   UNL     1      -0.584 -10.031  -8.214  0.00  0.00    +0.029 A 
ATOM      9  C   UNL     1      -0.675  -9.040  -9.180  0.00  0.00    +0.089 A 
ATOM     10  C   UNL     1      -0.655  -7.712  -8.793  0.00  0.00    +0.044 A 
ATOM     11  C   UNL     1      -0.545  -7.397  -7.462  0.00  0.00    +0.043 A 
ATOM     12  S   UNL     1      -0.488  -5.886  -6.529  0.00  0.00    -0.052 S 
ATOM     13  H   UNL     1      -0.244  -5.039  -3.619  0.00  0.00    +0.157 HD
ENDROOT
BRANCH   1  19
ATOM     14  N   UNL     1       0.059  -4.170  -0.021  0.00  0.00    -0.239 N 
ATOM     15  C   UNL     1       0.173  -4.818   1.164  0.00  0.00    +0.117 A 
ATOM     16  C   UNL     1       0.196  -6.171   1.215  0.00  0.00    +0.073 A 
ATOM     17  C   UNL     1       0.099  -6.882  -0.009  0.00  0.00    +0.212 A 
ATOM     18  O   UNL     1       0.113  -8.103  -0.039  0.00  0.00    -0.285 OA
ATOM     19  C   UNL     1      -0.021  -6.087  -1.241  0.00  0.00    +0.193 A 
ATOM     20  N   UNL     1      -0.036  -4.773  -1.148  0.00  0.00    -0.158 NA
BRANCH  14  25
ATOM     21  C   UNL     1      -0.018   1.503   0.010  0.00  0.00    +0.044 C 
ATOM     22  C   UNL     1       0.002  -0.004   0.002  0.00  0.00    -0.050 A 
ATOM     23  C   UNL     1       0.052  -0.687  -1.200  0.00  0.00    +0.005 A 
ATOM     24  C   UNL     1       0.072  -2.067  -1.211  0.00  0.00    +0.028 A 
ATOM     25  C   UNL     1       0.041  -2.771  -0.013  0.00  0.00    +0.065 A 
ATOM     26  C   UNL     1      -0.010  -2.082   1.192  0.00  0.00    +0.028 A 
ATOM     27  C   UNL     1      -0.024  -0.701   1.196  0.00  0.00    +0.005 A 
ENDBRANCH  14  25
ENDBRANCH   1  19
BRANCH   9  28
ATOM     28  S   UNL     1      -0.815  -9.468 -10.884  0.00  0.00    -0.006 S 
ATOM     29  O   UNL     1      -0.280  -8.352 -11.583  0.00  0.00    -0.170 OA
ATOM     30  O   UNL     1      -0.205 -10.747 -10.987  0.00  0.00    -0.170 OA
ATOM     31  C   UNL     1      -2.598  -9.599 -11.187  0.00  0.00    +0.200 C 
ENDBRANCH   9  28
TORSDOF 3
