REMARK  Name = ZINC20799079
REMARK  4 active torsions:
REMARK  status: ('A' for Active; 'I' for Inactive)
REMARK    1  A    between atoms: C_4  and  N_7
REMARK    2  A    between atoms: C_13  and  C_18
REMARK    3  A    between atoms: C_18  and  C_19
REMARK    4  A    between atoms: N_21  and  C_22
REMARK                            x       y       z     vdW  Elec       q    Type
REMARK                         _______ _______ _______ _____ _____    ______ ____
ROOT
ATOM      1  N   UNL     1       3.573  -0.646  -0.135  0.00  0.00    -0.326 N 
ATOM      2  C   UNL     1       3.602  -2.019  -0.222  0.00  0.00    +0.201 C 
ATOM      3  N   UNL     1       2.488  -2.691  -0.296  0.00  0.00    -0.268 NA
ATOM      4  N   UNL     1       4.810  -2.685  -0.232  0.00  0.00    -0.295 N 
ATOM      5  C   UNL     1       4.838  -4.065  -0.320  0.00  0.00    +0.230 C 
ATOM      6  N   UNL     1       5.938  -4.765  -0.329  0.00  0.00    -0.236 NA
ATOM      7  C   UNL     1       5.531  -6.177  -0.433  0.00  0.00    +0.208 C 
ATOM      8  C   UNL     1       4.018  -6.101  -0.477  0.00  0.00    +0.274 C 
ATOM      9  O   UNL     1       3.153  -7.128  -0.570  0.00  0.00    -0.268 OA
ATOM     10  N   UNL     1       3.730  -4.832  -0.399  0.00  0.00    -0.176 NA
ATOM     11  H   UNL     1       2.726  -0.184  -0.039  0.00  0.00    +0.169 HD
ATOM     12  H   UNL     1       1.642  -2.221  -0.362  0.00  0.00    +0.190 HD
ATOM     13  H   UNL     1       5.639  -2.185  -0.177  0.00  0.00    +0.172 HD
ENDROOT
BRANCH   1  17
ATOM     14  C   UNL     1       7.125   1.525  -0.284  0.00  0.00    +0.000 A 
ATOM     15  C   UNL     1       6.949   0.433  -1.113  0.00  0.00    +0.002 A 
ATOM     16  C   UNL     1       5.773  -0.289  -1.067  0.00  0.00    +0.026 A 
ATOM     17  C   UNL     1       4.766   0.083  -0.185  0.00  0.00    +0.042 A 
ATOM     18  C   UNL     1       4.946   1.180   0.647  0.00  0.00    +0.026 A 
ATOM     19  C   UNL     1       6.125   1.898   0.595  0.00  0.00    +0.002 A 
ENDBRANCH   1  17
BRANCH   7  20
ATOM     20  C   UNL     1       6.081  -6.804  -1.716  0.00  0.00    +0.132 C 
BRANCH  20  21
ATOM     21  C   UNL     1       7.584  -6.874  -1.637  0.00  0.00    +0.220 C 
ATOM     22  O   UNL     1       8.159  -6.463  -0.651  0.00  0.00    -0.275 OA
ATOM     23  N   UNL     1       8.290  -7.394  -2.661  0.00  0.00    -0.285 N 
ATOM     24  H   UNL     1       7.828  -7.780  -3.421  0.00  0.00    +0.155 HD
BRANCH  23  25
ATOM     25  C   UNL     1       9.689  -7.376  -2.627  0.00  0.00    +0.035 A 
ATOM     26  C   UNL     1      10.411  -7.179  -3.797  0.00  0.00    +0.025 A 
ATOM     27  C   UNL     1      11.791  -7.162  -3.761  0.00  0.00    +0.023 A 
ATOM     28  C   UNL     1      12.456  -7.341  -2.561  0.00  0.00    +0.059 A 
ATOM     29  C   UNL     1      11.739  -7.538  -1.393  0.00  0.00    +0.061 A 
ATOM     30  C   UNL     1      10.357  -7.551  -1.423  0.00  0.00    +0.044 A 
ATOM     31 CL   UNL     1      12.577  -7.764   0.111  0.00  0.00    -0.082 Cl
ATOM     32 CL   UNL     1      14.191  -7.319  -2.520  0.00  0.00    -0.082 Cl
ENDBRANCH  23  25
ENDBRANCH  20  21
ENDBRANCH   7  20
TORSDOF 4
