REMARK  Name = ZINC35427119
REMARK  5 active torsions:
REMARK  status: ('A' for Active; 'I' for Inactive)
REMARK    1  A    between atoms: C_1  and  N_2
REMARK    2  A    between atoms: C_16  and  C_30
REMARK    3  A    between atoms: N_22  and  C_23
REMARK    4  A    between atoms: C_33  and  O_36
REMARK    5  A    between atoms: O_36  and  C_37
REMARK                            x       y       z     vdW  Elec       q    Type
REMARK                         _______ _______ _______ _____ _____    ______ ____
ROOT
ATOM      1  C   UNL     1       1.129   1.282  -1.573  0.00  0.00    -0.096 C 
ATOM      2  N   UNL     1       0.914  -0.146  -1.304  0.00  0.00    +0.381 N 
ATOM      3  C   UNL     1      -0.508  -0.469  -1.481  0.00  0.00    -0.074 C 
ATOM      4  C   UNL     1      -0.709  -1.986  -1.521  0.00  0.00    +0.018 C 
ATOM      5  C   UNL     1      -0.042  -2.583  -0.284  0.00  0.00    -0.034 A 
ATOM      6  C   UNL     1      -0.324  -3.878   0.190  0.00  0.00    +0.004 A 
ATOM      7  C   UNL     1       0.352  -4.283   1.299  0.00  0.00    +0.090 A 
ATOM      8  S   UNL     1       1.364  -2.901   1.733  0.00  0.00    -0.077 S 
ATOM      9  C   UNL     1       0.866  -1.839   0.404  0.00  0.00    -0.021 A 
ATOM     10  C   UNL     1       1.317  -0.453   0.081  0.00  0.00    -0.036 C 
ATOM     11  N   UNL     1       0.217  -5.539   1.878  0.00  0.00    -0.312 N 
ATOM     12  C   UNL     1       0.068  -5.920   3.168  0.00  0.00    +0.092 A 
ATOM     13  C   UNL     1      -0.090  -7.263   3.193  0.00  0.00    +0.020 A 
ATOM     14  C   UNL     1      -0.015  -7.724   1.861  0.00  0.00    +0.025 A 
ATOM     15  C   UNL     1       0.198  -6.657   1.077  0.00  0.00    +0.049 A 
ATOM     16  C   UNL     1       0.431  -6.593  -0.403  0.00  0.00    +0.155 C 
ATOM     17  N   UNL     1      -0.706  -5.961  -1.114  0.00  0.00    -0.268 N 
ATOM     18  C   UNL     1      -1.333  -4.797  -0.463  0.00  0.00    +0.148 C 
ATOM     19  C   UNL     1      -1.145  -6.428  -2.300  0.00  0.00    +0.308 C 
ATOM     20  O   UNL     1      -0.606  -7.391  -2.811  0.00  0.00    -0.252 OA
ATOM     21  N   UNL     1      -2.182  -5.829  -2.918  0.00  0.00    -0.268 N 
ATOM     22  H   UNL     1      -2.569  -5.022  -2.544  0.00  0.00    +0.156 HD
ATOM     23  H   UNL     1       1.466  -0.696  -1.945  0.00  0.00    -0.082 HD
ENDROOT
BRANCH  21  24
ATOM     24  C   UNL     1      -2.700  -6.371  -4.100  0.00  0.00    +0.053 A 
ATOM     25  C   UNL     1      -1.883  -7.112  -4.943  0.00  0.00    +0.025 A 
ATOM     26  C   UNL     1      -2.397  -7.646  -6.108  0.00  0.00    +0.002 A 
ATOM     27  C   UNL     1      -3.725  -7.442  -6.437  0.00  0.00    +0.002 A 
ATOM     28  C   UNL     1      -4.542  -6.704  -5.601  0.00  0.00    +0.022 A 
ATOM     29  C   UNL     1      -4.035  -6.173  -4.430  0.00  0.00    +0.062 A 
ATOM     30 CL   UNL     1      -5.064  -5.252  -3.377  0.00  0.00    -0.082 Cl
ENDBRANCH  21  24
BRANCH  16  31
ATOM     31  C   UNL     1       1.680  -5.793  -0.668  0.00  0.00    -0.021 A 
ATOM     32  C   UNL     1       2.740  -5.853   0.218  0.00  0.00    +0.009 A 
ATOM     33  C   UNL     1       3.885  -5.120  -0.023  0.00  0.00    +0.046 A 
ATOM     34  C   UNL     1       3.973  -4.324  -1.156  0.00  0.00    +0.120 A 
ATOM     35  C   UNL     1       2.909  -4.266  -2.044  0.00  0.00    +0.046 A 
ATOM     36  C   UNL     1       1.767  -5.005  -1.801  0.00  0.00    +0.009 A 
BRANCH  34  37
ATOM     37  O   UNL     1       5.099  -3.601  -1.395  0.00  0.00    -0.495 OA
ATOM     38  C   UNL     1       5.119  -2.804  -2.581  0.00  0.00    +0.277 C 
ENDBRANCH  34  37
ENDBRANCH  16  31
TORSDOF 3
