REMARK  Name = ZINC54439138
REMARK  9 active torsions:
REMARK  status: ('A' for Active; 'I' for Inactive)
REMARK    1  A    between atoms: C_1  and  C_2
REMARK    2  A    between atoms: C_3  and  N_14
REMARK    3  A    between atoms: C_7  and  N_8
REMARK    4  A    between atoms: N_17  and  C_18
REMARK    5  A    between atoms: C_18  and  C_19
REMARK    6  A    between atoms: C_19  and  C_20
REMARK    7  A    between atoms: C_19  and  C_21
REMARK    8  A    between atoms: C_19  and  N_22
REMARK    9  A    between atoms: C_26  and  C_29
REMARK                            x       y       z     vdW  Elec       q    Type
REMARK                         _______ _______ _______ _____ _____    ______ ____
ROOT
ATOM      1  N   UNL     1      -0.010   0.011  -2.412  0.00  0.00    -0.269 N 
ATOM      2  C   UNL     1       0.095  -0.653  -3.580  0.00  0.00    +0.304 C 
ATOM      3  O   UNL     1       0.112  -1.869  -3.588  0.00  0.00    -0.253 OA
ATOM      4  N   UNL     1       0.182   0.030  -4.738  0.00  0.00    -0.300 N 
ATOM      5  H   UNL     1      -0.106   0.977  -2.410  0.00  0.00    +0.156 HD
ATOM      6  H   UNL     1       0.168   1.000  -4.732  0.00  0.00    +0.150 HD
ENDROOT
BRANCH   1   9
ATOM      7  C   UNL     1      -1.262   1.188  -0.145  0.00  0.00    +0.047 C 
ATOM      8  C   UNL     1      -0.580  -0.154  -0.072  0.00  0.00    -0.008 A 
ATOM      9  C   UNL     1       0.019  -0.692  -1.202  0.00  0.00    +0.039 A 
ATOM     10  C   UNL     1       0.647  -1.928  -1.131  0.00  0.00    +0.024 A 
ATOM     11  C   UNL     1       0.675  -2.623   0.062  0.00  0.00    +0.004 A 
ATOM     12  C   UNL     1       0.079  -2.091   1.189  0.00  0.00    +0.024 A 
ATOM     13  C   UNL     1      -0.545  -0.851   1.127  0.00  0.00    +0.041 A 
BRANCH  13  14
ATOM     14  N   UNL     1      -1.143  -0.309   2.270  0.00  0.00    -0.271 N 
ATOM     15  C   UNL     1      -2.538  -0.539   2.663  0.00  0.00    +0.114 C 
ATOM     16  C   UNL     1      -2.619  -0.133   4.151  0.00  0.00    +0.029 C 
ATOM     17  C   UNL     1      -1.456   0.879   4.266  0.00  0.00    +0.098 C 
ATOM     18  C   UNL     1      -0.511   0.484   3.153  0.00  0.00    +0.220 C 
ATOM     19  O   UNL     1       0.647   0.834   3.067  0.00  0.00    -0.275 OA
ENDBRANCH  13  14
ENDBRANCH   1   9
BRANCH   4  20
ATOM     20  C   UNL     1       0.296  -0.692  -6.008  0.00  0.00    +0.093 C 
BRANCH  20  21
ATOM     21  C   UNL     1       0.378   0.312  -7.160  0.00  0.00    -0.055 C 
ATOM     22  C   UNL     1       0.497  -0.443  -8.486  0.00  0.00    -0.008 C 
ATOM     23  C   UNL     1      -0.886   1.174  -7.176  0.00  0.00    -0.008 C 
BRANCH  21  24
ATOM     24  N   UNL     1       1.555   1.171  -6.978  0.00  0.00    +0.384 N 
ATOM     25  C   UNL     1       2.766   0.342  -6.954  0.00  0.00    -0.078 C 
ATOM     26  C   UNL     1       3.987   1.224  -6.684  0.00  0.00    -0.018 C 
ATOM     27  C   UNL     1       4.107   2.274  -7.792  0.00  0.00    -0.001 C 
ATOM     28  C   UNL     1       2.809   3.084  -7.857  0.00  0.00    -0.031 C 
ATOM     29  C   UNL     1       1.632   2.134  -8.084  0.00  0.00    -0.075 C 
ATOM     30  C   UNL     1       2.889   4.085  -9.011  0.00  0.00    +0.005 C 
ATOM     31  H   UNL     1       1.474   1.670  -6.104  0.00  0.00    -0.081 HD
ENDBRANCH  21  24
ENDBRANCH  20  21
ENDBRANCH   4  20
TORSDOF 5
