REMARK  Name = ZINC15612416
REMARK  12 active torsions:
REMARK  status: ('A' for Active; 'I' for Inactive)
REMARK    1  A    between atoms: C_1  and  C_2
REMARK    2  A    between atoms: N_4  and  C_5
REMARK    3  A    between atoms: C_5  and  C_6
REMARK    4  A    between atoms: C_9  and  C_11
REMARK    5  A    between atoms: C_17  and  C_19
REMARK    6  A    between atoms: C_22  and  C_25
REMARK    7  A    between atoms: C_25  and  N_26
REMARK    8  A    between atoms: C_27  and  O_29
REMARK    9  A    between atoms: O_29  and  C_30
REMARK   10  A    between atoms: C_30  and  C_31
REMARK   11  A    between atoms: C_30  and  C_32
REMARK   12  A    between atoms: C_30  and  C_33
REMARK                            x       y       z     vdW  Elec       q    Type
REMARK                         _______ _______ _______ _____ _____    ______ ____
ROOT
ATOM      1  C   UNL     1       0.404  11.872   2.069  0.00  0.00    +0.087 A 
ATOM      2  C   UNL     1       0.482  12.367   0.795  0.00  0.00    +0.077 A 
ATOM      3  S   UNL     1       0.228  10.875  -0.158  0.00  0.00    -0.060 S 
ATOM      4  C   UNL     1       0.035   9.756   1.222  0.00  0.00    +0.165 A 
ATOM      5  N   UNL     1       0.181  10.572   2.249  0.00  0.00    -0.224 NA
ATOM      6  N   UNL     1      -0.200   8.387   1.216  0.00  0.00    -0.261 N 
ATOM      7  C   UNL     1      -0.320   7.730   0.046  0.00  0.00    +0.250 C 
ATOM      8  O   UNL     1      -0.222   8.334  -1.004  0.00  0.00    -0.270 OA
ATOM      9  H   UNL     1      -0.278   7.905   2.054  0.00  0.00    +0.157 HD
ENDROOT
BRANCH   7  10
ATOM     10  C   UNL     1      -0.570   6.273   0.039  0.00  0.00    +0.037 A 
ATOM     11  C   UNL     1      -0.695   5.589  -1.171  0.00  0.00    +0.013 A 
ATOM     12  C   UNL     1      -0.928   4.229  -1.171  0.00  0.00    +0.006 A 
ATOM     13  C   UNL     1      -1.040   3.544   0.026  0.00  0.00    -0.030 A 
ATOM     14  C   UNL     1      -0.923   4.217   1.229  0.00  0.00    +0.006 A 
ATOM     15  C   UNL     1      -0.683   5.576   1.243  0.00  0.00    +0.013 A 
BRANCH  13  16
ATOM     16  C   UNL     1      -1.295   2.059   0.019  0.00  0.00    +0.142 C 
BRANCH  16  17
ATOM     17  N   UNL     1      -0.016   1.344   0.009  0.00  0.00    -0.277 N 
ATOM     18  C   UNL     1       0.002  -0.004   0.002  0.00  0.00    +0.401 C 
ATOM     19  O   UNL     1      -1.042  -0.626   0.009  0.00  0.00    -0.226 OA
ATOM     20  H   UNL     1       0.817   1.840   0.004  0.00  0.00    +0.152 HD
BRANCH  18  21
ATOM     21  O   UNL     1       1.177  -0.661  -0.013  0.00  0.00    -0.445 OA
BRANCH  21  22
ATOM     22  C   UNL     1       1.121  -2.112  -0.020  0.00  0.00    +0.107 C 
ATOM     23  C   UNL     1       0.368  -2.587  -1.265  0.00  0.00    +0.055 C 
ATOM     24  C   UNL     1       2.542  -2.678  -0.037  0.00  0.00    +0.055 C 
ATOM     25  C   UNL     1       0.392  -2.601   1.234  0.00  0.00    +0.055 C 
ENDBRANCH  21  22
ENDBRANCH  18  21
ENDBRANCH  16  17
ENDBRANCH  13  16
ENDBRANCH   7  10
BRANCH   1  29
ATOM     26  C   UNL     1       0.916  14.751   5.031  0.00  0.00    +0.007 A 
ATOM     27  C   UNL     1       0.701  13.489   5.480  0.00  0.00    +0.013 A 
ATOM     28  C   UNL     1       0.516  12.472   4.567  0.00  0.00    +0.018 A 
ATOM     29  C   UNL     1       0.566  12.771   3.232  0.00  0.00    +0.038 A 
ATOM     30  S   UNL     1       0.869  14.530   3.260  0.00  0.00    -0.090 S 
BRANCH  26  31
ATOM     31  C   UNL     1       1.138  16.013   5.823  0.00  0.00    +0.146 C 
BRANCH  31  35
ATOM     32  C   UNL     1       4.482  17.437   7.024  0.00  0.00    +0.109 C 
ATOM     33  C   UNL     1       3.008  17.257   6.768  0.00  0.00    +0.210 C 
ATOM     34  O   UNL     1       2.215  18.074   7.186  0.00  0.00    -0.276 OA
ATOM     35  N   UNL     1       2.571  16.188   6.072  0.00  0.00    -0.311 N 
ATOM     36  H   UNL     1       3.204  15.535   5.737  0.00  0.00    +0.149 HD
ENDBRANCH  31  35
ENDBRANCH  26  31
ENDBRANCH   1  29
TORSDOF 8
