REMARK  Name = ZINC05217280
REMARK  8 active torsions:
REMARK  status: ('A' for Active; 'I' for Inactive)
REMARK    1  A    between atoms: N_9  and  C_10
REMARK    2  A    between atoms: C_12  and  O_24
REMARK    3  A    between atoms: C_14  and  O_23
REMARK    4  A    between atoms: C_16  and  S_19
REMARK    5  A    between atoms: S_19  and  C_20
REMARK    6  A    between atoms: C_20  and  C_21
REMARK    7  A    between atoms: C_21  and  C_22
REMARK    8  A    between atoms: C_22  and  N_40
REMARK                            x       y       z     vdW  Elec       q    Type
REMARK                         _______ _______ _______ _____ _____    ______ ____
ROOT
ATOM      1  C   UNL     1       1.172   3.100  -0.091  0.00  0.00    +0.254 C 
ATOM      2  C   UNL     1       1.286   1.562  -0.002  0.00  0.00    +0.196 C 
ATOM      3  C   UNL     1       2.056   1.168  -1.283  0.00  0.00    +0.186 C 
ATOM      4  C   UNL     1       2.315   2.514  -1.994  0.00  0.00    +0.209 C 
ATOM      5  O   UNL     1       2.267   3.502  -0.942  0.00  0.00    -0.337 OA
ENDROOT
BRANCH   1  14
ATOM      6  C   UNL     1       2.462   4.184   1.788  0.00  0.00    +0.203 A 
ATOM      7  N   UNL     1       2.223   4.647   2.980  0.00  0.00    -0.231 NA
ATOM      8  C   UNL     1       0.911   4.481   3.275  0.00  0.00    +0.147 A 
ATOM      9  C   UNL     1       0.103   4.777   4.386  0.00  0.00    +0.149 A 
ATOM     10  N   UNL     1      -1.188   4.467   4.331  0.00  0.00    -0.201 NA
ATOM     11  C   UNL     1      -1.709   3.893   3.260  0.00  0.00    +0.226 A 
ATOM     12  N   UNL     1      -0.990   3.598   2.196  0.00  0.00    -0.198 NA
ATOM     13  C   UNL     1       0.311   3.872   2.161  0.00  0.00    +0.169 A 
ATOM     14  N   UNL     1       1.312   3.700   1.238  0.00  0.00    -0.285 N 
ATOM     15 CL   UNL     1      -3.403   3.515   3.254  0.00  0.00    -0.041 Cl
ATOM     16  N   UNL     1       0.639   5.377   5.511  0.00  0.00    -0.341 N 
ATOM     17  H   UNL     1       0.181   6.251   5.674  0.00  0.00    +0.144 HD
ATOM     18  H   UNL     1       1.583   5.599   5.540  0.00  0.00    +0.144 HD
ENDBRANCH   1  14
BRANCH   3  19
ATOM     19  O   UNL     1       3.291   0.532  -0.949  0.00  0.00    -0.386 OA
ATOM     20  H   UNL     1       3.815   0.263  -1.716  0.00  0.00    +0.210 HD
ENDBRANCH   3  19
BRANCH   2  21
ATOM     21  O   UNL     1      -0.011   0.963   0.007  0.00  0.00    -0.385 OA
ATOM     22  H   UNL     1       0.002  -0.004   0.002  0.00  0.00    +0.210 HD
ENDBRANCH   2  21
BRANCH   4  23
ATOM     23  S   UNL     1       3.948   2.507  -2.784  0.00  0.00    -0.127 S 
BRANCH  23  24
ATOM     24  C   UNL     1       4.008   4.082  -3.681  0.00  0.00    +0.070 C 
BRANCH  24  25
ATOM     25  C   UNL     1       5.352   4.207  -4.403  0.00  0.00    -0.009 C 
BRANCH  25  26
ATOM     26  C   UNL     1       5.403   5.535  -5.160  0.00  0.00    -0.086 C 
BRANCH  26  29
ATOM     27  H   UNL     1       6.849   4.868  -6.465  0.00  0.00    -0.090 HD
ATOM     28  H   UNL     1       6.751   6.525  -6.361  0.00  0.00    -0.090 HD
ATOM     29  N   UNL     1       6.708   5.655  -5.833  0.00  0.00    +0.378 N 
ATOM     30  H   UNL     1       7.453   5.654  -5.127  0.00  0.00    -0.090 HD
ENDBRANCH  26  29
ENDBRANCH  25  26
ENDBRANCH  24  25
ENDBRANCH  23  24
ENDBRANCH   4  23
TORSDOF 8
