REMARK  Name = ZINC06660584
REMARK  2 active torsions:
REMARK  status: ('A' for Active; 'I' for Inactive)
REMARK    1  A    between atoms: C_9  and  N_17
REMARK    2  A    between atoms: C_18  and  C_20
REMARK                            x       y       z     vdW  Elec       q    Type
REMARK                         _______ _______ _______ _____ _____    ______ ____
ROOT
ATOM      1  C   UNL     1      -6.260  -9.106   0.684  0.00  0.00    +0.002 A 
ATOM      2  C   UNL     1      -6.491  -7.750   0.599  0.00  0.00    +0.015 A 
ATOM      3  C   UNL     1      -5.413  -6.872   0.496  0.00  0.00    +0.066 A 
ATOM      4  C   UNL     1      -5.633  -5.413   0.403  0.00  0.00    +0.200 A 
ATOM      5  O   UNL     1      -6.752  -4.934   0.413  0.00  0.00    -0.286 OA
ATOM      6  C   UNL     1      -4.430  -4.567   0.297  0.00  0.00    +0.065 A 
ATOM      7  C   UNL     1      -4.540  -3.177   0.206  0.00  0.00    +0.017 A 
ATOM      8  C   UNL     1      -3.414  -2.411   0.113  0.00  0.00    +0.024 A 
ATOM      9  C   UNL     1      -2.156  -3.012   0.100  0.00  0.00    +0.037 A 
ATOM     10  C   UNL     1      -2.031  -4.390   0.191  0.00  0.00    +0.070 A 
ATOM     11  C   UNL     1      -3.167  -5.183   0.290  0.00  0.00    +0.141 A 
ATOM     12  O   UNL     1      -3.046  -6.523   0.378  0.00  0.00    -0.453 OA
ATOM     13  C   UNL     1      -4.099  -7.361   0.478  0.00  0.00    +0.157 A 
ATOM     14  C   UNL     1      -3.888  -8.734   0.566  0.00  0.00    +0.084 A 
ATOM     15  C   UNL     1      -4.962  -9.594   0.667  0.00  0.00    +0.024 A 
ATOM     16 CL   UNL     1      -2.271  -9.366   0.546  0.00  0.00    -0.080 Cl
ENDROOT
BRANCH   9  17
ATOM     17  N   UNL     1      -1.014  -2.220   0.001  0.00  0.00    -0.279 N 
ATOM     18  C   UNL     1      -1.041  -1.085  -0.726  0.00  0.00    +0.284 C 
ATOM     19  O   UNL     1      -2.033  -0.800  -1.372  0.00  0.00    -0.266 OA
ATOM     20  H   UNL     1      -0.198  -2.486   0.454  0.00  0.00    +0.155 HD
BRANCH  18  21
ATOM     21  C   UNL     1       0.122  -0.193  -0.737  0.00  0.00    +0.189 A 
ATOM     22  C   UNL     1       0.226   0.982  -1.426  0.00  0.00    +0.054 A 
ATOM     23  C   UNL     1       1.501   1.500  -1.149  0.00  0.00    +0.042 A 
ATOM     24  C   UNL     1       2.111   0.630  -0.314  0.00  0.00    +0.196 A 
ATOM     25  O   UNL     1       1.277  -0.389  -0.068  0.00  0.00    -0.458 OA
ENDBRANCH  18  21
ENDBRANCH   9  17
TORSDOF 2
