REMARK  Name = ZINC09350854
REMARK  3 active torsions:
REMARK  status: ('A' for Active; 'I' for Inactive)
REMARK    1  A    between atoms: C_6  and  N_7
REMARK    2  A    between atoms: C_11  and  C_12
REMARK    3  A    between atoms: C_25  and  O_29
REMARK                            x       y       z     vdW  Elec       q    Type
REMARK                         _______ _______ _______ _____ _____    ______ ____
ROOT
ATOM      1  N   UNL     1      -1.817  -1.577  -2.931  0.00  0.00    -0.188 N 
ATOM      2  C   UNL     1      -1.280  -1.794  -1.711  0.00  0.00    +0.263 C 
ATOM      3  O   UNL     1      -0.612  -2.786  -1.485  0.00  0.00    -0.269 OA
ATOM      4  C   UNL     1      -1.532  -0.789  -0.660  0.00  0.00    +0.097 C 
ATOM      5  C   UNL     1      -1.019  -0.934   0.620  0.00  0.00    +0.026 C 
ATOM      6  C   UNL     1      -2.358   0.371  -1.030  0.00  0.00    +0.218 C 
ATOM      7  N   UNL     1      -2.811   0.452  -2.269  0.00  0.00    -0.127 NA
ATOM      8  C   UNL     1      -2.553  -0.484  -3.179  0.00  0.00    +0.340 C 
ATOM      9  O   UNL     1      -3.012  -0.341  -4.298  0.00  0.00    -0.250 OA
ENDROOT
BRANCH   5  10
ATOM     10  C   UNL     1      -0.420  -2.158   1.008  0.00  0.00    -0.024 A 
ATOM     11  C   UNL     1       0.799  -2.163   1.699  0.00  0.00    +0.013 A 
ATOM     12  C   UNL     1       1.393  -3.348   2.048  0.00  0.00    -0.025 A 
ATOM     13  C   UNL     1       0.799  -4.561   1.693  0.00  0.00    +0.036 A 
ATOM     14  C   UNL     1      -0.436  -4.562   1.041  0.00  0.00    -0.025 A 
ATOM     15  C   UNL     1      -1.036  -3.378   0.701  0.00  0.00    +0.013 A 
ATOM     16  C   UNL     1      -1.180  -5.822   0.693  0.00  0.00    +0.038 C 
ATOM     17  C   UNL     1      -0.440  -7.071   1.146  0.00  0.00    +0.024 C 
ATOM     18  C   UNL     1       1.065  -6.827   1.055  0.00  0.00    +0.105 C 
ATOM     19  N   UNL     1       1.429  -5.758   1.994  0.00  0.00    -0.329 N 
ATOM     20  C   UNL     1       2.890  -5.617   2.044  0.00  0.00    +0.105 C 
ATOM     21  C   UNL     1       3.250  -4.628   3.152  0.00  0.00    +0.024 C 
ATOM     22  C   UNL     1       2.689  -3.257   2.805  0.00  0.00    +0.038 C 
ENDBRANCH   5  10
BRANCH   1  28
ATOM     23  C   UNL     1      -0.547  -2.334  -4.843  0.00  0.00    +0.027 A 
ATOM     24  C   UNL     1      -0.331  -3.257  -5.848  0.00  0.00    +0.040 A 
ATOM     25  C   UNL     1      -1.172  -4.350  -5.977  0.00  0.00    +0.124 A 
ATOM     26  C   UNL     1      -2.226  -4.523  -5.096  0.00  0.00    +0.040 A 
ATOM     27  C   UNL     1      -2.441  -3.606  -4.087  0.00  0.00    +0.027 A 
ATOM     28  C   UNL     1      -1.600  -2.509  -3.955  0.00  0.00    +0.046 A 
ATOM     29  F   UNL     1      -0.963  -5.248  -6.965  0.00  0.00    -0.205 F 
ENDBRANCH   1  28
BRANCH   6  30
ATOM     30  O   UNL     1      -2.641   1.333  -0.127  0.00  0.00    -0.493 OA
ATOM     31  H   UNL     1      -3.190   2.050  -0.474  0.00  0.00    +0.294 HD
ENDBRANCH   6  30
TORSDOF 3
