REMARK  Name = ZINC38769484
REMARK  5 active torsions:
REMARK  status: ('A' for Active; 'I' for Inactive)
REMARK    1  A    between atoms: C_1  and  C_2
REMARK    2  A    between atoms: C_2  and  C_4
REMARK    3  A    between atoms: C_2  and  N_11
REMARK    4  A    between atoms: N_11  and  S_12
REMARK    5  A    between atoms: S_12  and  C_15
REMARK                            x       y       z     vdW  Elec       q    Type
REMARK                         _______ _______ _______ _____ _____    ______ ____
ROOT
ATOM      1  S   UNL     1      -0.188  -0.875  -2.551  0.00  0.00    +0.059 S 
ATOM      2  O   UNL     1       0.751  -1.265  -3.545  0.00  0.00    -0.153 OA
ATOM      3  O   UNL     1      -1.236  -1.730  -2.117  0.00  0.00    -0.153 OA
ENDROOT
BRANCH   1   4
ATOM      4  C   UNL     1      -0.951   0.603  -3.133  0.00  0.00    +0.107 A 
ATOM      5  C   UNL     1      -2.272   0.961  -2.631  0.00  0.00    +0.030 A 
ATOM      6  C   UNL     1      -2.912   2.080  -3.034  0.00  0.00    +0.027 A 
ATOM      7  C   UNL     1      -2.272   2.967  -4.004  0.00  0.00    +0.056 A 
ATOM      8  N   UNL     1      -2.604   4.091  -4.587  0.00  0.00    -0.268 N 
ATOM      9  C   UNL     1      -1.579   4.466  -5.423  0.00  0.00    +0.308 C 
ATOM     10  O   UNL     1      -1.570   5.464  -6.112  0.00  0.00    -0.252 OA
ATOM     11  N   UNL     1      -0.565   3.539  -5.362  0.00  0.00    -0.267 N 
ATOM     12  C   UNL     1      -0.915   2.599  -4.520  0.00  0.00    +0.058 A 
ATOM     13  C   UNL     1      -0.291   1.373  -4.026  0.00  0.00    +0.053 A 
ATOM     14  H   UNL     1       0.268   3.575  -5.858  0.00  0.00    +0.156 HD
ATOM     15  H   UNL     1      -3.432   4.578  -4.452  0.00  0.00    +0.156 HD
ENDBRANCH   1   4
BRANCH   1  16
ATOM     16  N   UNL     1       0.688  -0.476  -1.203  0.00  0.00    -0.183 NA
ATOM     17  H   UNL     1       1.655  -0.556  -1.212  0.00  0.00    +0.149 HD
BRANCH  16  19
ATOM     18  C   UNL     1      -0.019   1.526   0.010  0.00  0.00    +0.031 C 
ATOM     19  C   UNL     1       0.002  -0.004   0.002  0.00  0.00    +0.103 C 
BRANCH  19  20
ATOM     20  C   UNL     1       0.731  -0.503   1.223  0.00  0.00    -0.029 A 
ATOM     21  C   UNL     1       2.113  -0.513   1.246  0.00  0.00    +0.008 A 
ATOM     22  C   UNL     1       2.783  -0.971   2.365  0.00  0.00    +0.038 A 
ATOM     23  C   UNL     1       2.068  -1.419   3.464  0.00  0.00    +0.123 A 
ATOM     24  C   UNL     1       0.684  -1.408   3.439  0.00  0.00    +0.038 A 
ATOM     25  C   UNL     1       0.017  -0.945   2.321  0.00  0.00    +0.008 A 
ATOM     26  F   UNL     1       2.722  -1.866   4.558  0.00  0.00    -0.205 F 
ENDBRANCH  19  20
ENDBRANCH  16  19
ENDBRANCH   1  16
TORSDOF 4
