REMARK  Name = ZINC09007087
REMARK  10 active torsions:
REMARK  status: ('A' for Active; 'I' for Inactive)
REMARK    1  A    between atoms: C_1  and  C_2
REMARK    2  A    between atoms: C_5  and  S_9
REMARK    3  A    between atoms: C_7  and  C_8
REMARK    4  A    between atoms: S_9  and  C_12
REMARK    5  A    between atoms: C_12  and  C_14
REMARK    6  A    between atoms: C_12  and  C_27
REMARK    7  A    between atoms: C_14  and  N_15
REMARK    8  A    between atoms: N_15  and  S_16
REMARK    9  A    between atoms: S_16  and  C_19
REMARK   10  A    between atoms: C_19  and  C_20
REMARK                            x       y       z     vdW  Elec       q    Type
REMARK                         _______ _______ _______ _____ _____    ______ ____
ROOT
ATOM      1  C   UNL     1       3.103   0.705  -1.777  0.00  0.00    +0.183 C 
ENDROOT
BRANCH   1   2
ATOM      2  C   UNL     1       1.953   0.014  -2.465  0.00  0.00    -0.004 A 
ATOM      3  C   UNL     1       1.288   0.633  -3.512  0.00  0.00    +0.008 A 
ATOM      4  C   UNL     1       0.236  -0.040  -4.115  0.00  0.00    +0.020 A 
ATOM      5  C   UNL     1      -0.112  -1.296  -3.655  0.00  0.00    +0.111 A 
ATOM      6  N   UNL     1       0.544  -1.854  -2.656  0.00  0.00    -0.263 NA
ATOM      7  C   UNL     1       1.553  -1.246  -2.063  0.00  0.00    +0.116 A 
ENDBRANCH   1   2
BRANCH   1   8
ATOM      8  S   UNL     1       2.712   0.923  -0.019  0.00  0.00    +0.005 S 
ATOM      9  O   UNL     1       3.637   1.820   0.580  0.00  0.00    -0.169 OA
ATOM     10  O   UNL     1       2.432  -0.335   0.580  0.00  0.00    -0.169 OA
BRANCH   8  15
ATOM     11  C   UNL     1      -2.553   3.868   0.046  0.00  0.00    +0.044 C 
ATOM     12  C   UNL     1      -1.238   3.133   0.030  0.00  0.00    -0.047 A 
ATOM     13  C   UNL     1      -0.050   3.840   0.023  0.00  0.00    +0.005 A 
ATOM     14  C   UNL     1       1.156   3.166   0.008  0.00  0.00    +0.027 A 
ATOM     15  C   UNL     1       1.175   1.783   0.000  0.00  0.00    +0.089 A 
ATOM     16  C   UNL     1      -0.013   1.076   0.008  0.00  0.00    +0.030 A 
ATOM     17  C   UNL     1      -1.219   1.751   0.017  0.00  0.00    -0.046 A 
ATOM     18  C   UNL     1      -2.514   0.980   0.019  0.00  0.00    +0.044 C 
ENDBRANCH   8  15
ENDBRANCH   1   8
BRANCH   1  19
ATOM     19  C   UNL     1       4.366  -0.146  -1.917  0.00  0.00    +0.137 C 
BRANCH  19  20
ATOM     20  N   UNL     1       5.484   0.525  -1.249  0.00  0.00    -0.192 NA
ATOM     21  H   UNL     1       5.410   1.461  -1.003  0.00  0.00    +0.148 HD
BRANCH  20  22
ATOM     22  S   UNL     1       6.872  -0.313  -0.913  0.00  0.00    +0.034 S 
ATOM     23  O   UNL     1       7.712   0.625  -0.255  0.00  0.00    -0.158 OA
ATOM     24  O   UNL     1       6.434  -1.487  -0.244  0.00  0.00    -0.158 OA
BRANCH  22  25
ATOM     25  C   UNL     1       7.563  -0.739  -2.535  0.00  0.00    +0.220 C 
BRANCH  25  26
ATOM     26  C   UNL     1       8.843  -1.513  -2.349  0.00  0.00    -0.025 A 
ATOM     27  C   UNL     1      10.050  -0.843  -2.274  0.00  0.00    +0.007 A 
ATOM     28  C   UNL     1      11.224  -1.551  -2.097  0.00  0.00    +0.020 A 
ATOM     29  C   UNL     1      11.191  -2.932  -2.006  0.00  0.00    +0.041 A 
ATOM     30  C   UNL     1       9.983  -3.601  -2.087  0.00  0.00    +0.020 A 
ATOM     31  C   UNL     1       8.810  -2.892  -2.258  0.00  0.00    +0.007 A 
ATOM     32 CL   UNL     1      12.666  -3.822  -1.791  0.00  0.00    -0.084 Cl
ENDBRANCH  25  26
ENDBRANCH  22  25
ENDBRANCH  20  22
ENDBRANCH  19  20
ENDBRANCH   1  19
TORSDOF 8
