REMARK  Name = ZINC63182847
REMARK  4 active torsions:
REMARK  status: ('A' for Active; 'I' for Inactive)
REMARK    1  A    between atoms: C_6  and  S_7
REMARK    2  A    between atoms: S_7  and  N_10
REMARK    3  A    between atoms: N_10  and  C_11
REMARK    4  A    between atoms: C_16  and  C_17
REMARK                            x       y       z     vdW  Elec       q    Type
REMARK                         _______ _______ _______ _____ _____    ______ ____
ROOT
ATOM      1  N   UNL     1      -1.947  -1.149  -1.567  0.00  0.00    -0.097 NA
ENDROOT
BRANCH   1   2
ATOM      2  C   UNL     1      -3.114  -1.841  -1.867  0.00  0.00    +0.086 A 
ATOM      3  C   UNL     1      -3.920  -2.327  -0.845  0.00  0.00    +0.029 A 
ATOM      4  C   UNL     1      -5.078  -3.014  -1.144  0.00  0.00    +0.022 A 
ATOM      5  C   UNL     1      -5.447  -3.226  -2.465  0.00  0.00    +0.042 A 
ATOM      6  C   UNL     1      -4.660  -2.751  -3.492  0.00  0.00    +0.035 A 
ATOM      7  C   UNL     1      -3.487  -2.049  -3.204  0.00  0.00    +0.062 A 
ATOM      8 CL   UNL     1      -6.907  -4.094  -2.825  0.00  0.00    -0.084 Cl
BRANCH   7   9
ATOM      9  C   UNL     1      -2.644  -1.533  -4.297  0.00  0.00    +0.243 C 
ATOM     10  O   UNL     1      -1.621  -0.925  -4.042  0.00  0.00    -0.270 OA
ATOM     11  N   UNL     1      -3.006  -1.734  -5.580  0.00  0.00    -0.325 N 
ATOM     12  H   UNL     1      -3.821  -2.218  -5.783  0.00  0.00    +0.145 HD
ATOM     13  H   UNL     1      -2.451  -1.395  -6.300  0.00  0.00    +0.145 HD
ENDBRANCH   7   9
ENDBRANCH   1   2
BRANCH   1  14
ATOM     14  S   UNL     1      -1.511  -0.907   0.012  0.00  0.00    +0.092 S 
ATOM     15  O   UNL     1      -1.217  -2.187   0.553  0.00  0.00    -0.148 OA
ATOM     16  O   UNL     1      -2.492  -0.048   0.578  0.00  0.00    -0.148 OA
BRANCH  14  22
ATOM     17  C   UNL     1      -0.017   1.378   0.010  0.00  0.00    +0.029 A 
ATOM     18  C   UNL     1       1.171   2.083   0.002  0.00  0.00    +0.006 A 
ATOM     19  C   UNL     1       2.381   1.411  -0.014  0.00  0.00    -0.044 A 
ATOM     20  C   UNL     1       2.400   0.028  -0.021  0.00  0.00    -0.042 A 
ATOM     21  C   UNL     1       1.208  -0.677  -0.014  0.00  0.00    +0.032 A 
ATOM     22  C   UNL     1       0.002  -0.004   0.002  0.00  0.00    +0.111 A 
ATOM     23  C   UNL     1       3.831  -0.464  -0.038  0.00  0.00    +0.036 C 
ATOM     24  C   UNL     1       4.671   0.753  -0.480  0.00  0.00    +0.009 C 
ATOM     25  C   UNL     1       3.799   1.942  -0.025  0.00  0.00    +0.036 C 
ENDBRANCH  14  22
ENDBRANCH   1  14
TORSDOF 4
