REMARK  Name = ZINC00783632
REMARK  2 active torsions:
REMARK  status: ('A' for Active; 'I' for Inactive)
REMARK    1  A    between atoms: C_3  and  N_8
REMARK    2  A    between atoms: C_12  and  C_13
REMARK                            x       y       z     vdW  Elec       q    Type
REMARK                         _______ _______ _______ _____ _____    ______ ____
ROOT
ATOM      1  N   UNL     1       6.582  -3.885   3.550  0.00  0.00    -0.184 N 
ATOM      2  C   UNL     1       5.320  -4.234   3.235  0.00  0.00    +0.272 C 
ATOM      3  O   UNL     1       4.822  -5.338   3.354  0.00  0.00    -0.268 OA
ATOM      4  C   UNL     1       4.657  -3.022   2.716  0.00  0.00    +0.102 C 
ATOM      5  C   UNL     1       3.359  -2.903   2.268  0.00  0.00    +0.026 C 
ATOM      6  C   UNL     1       5.684  -1.964   2.786  0.00  0.00    +0.266 C 
ATOM      7  O   UNL     1       5.550  -0.801   2.454  0.00  0.00    -0.268 OA
ATOM      8  N   UNL     1       6.798  -2.533   3.285  0.00  0.00    -0.223 N 
ATOM      9  H   UNL     1       7.634  -2.067   3.440  0.00  0.00    +0.174 HD
ENDROOT
BRANCH   5  10
ATOM     10  C   UNL     1       2.918  -1.665   1.622  0.00  0.00    -0.020 A 
ATOM     11  C   UNL     1       3.783  -0.974   0.762  0.00  0.00    +0.012 A 
ATOM     12  C   UNL     1       3.365   0.189   0.156  0.00  0.00    +0.050 A 
ATOM     13  C   UNL     1       2.087   0.682   0.394  0.00  0.00    +0.166 A 
ATOM     14  C   UNL     1       1.220  -0.000   1.250  0.00  0.00    +0.167 A 
ATOM     15  C   UNL     1       1.629  -1.167   1.861  0.00  0.00    +0.057 A 
ATOM     16  O   UNL     1       0.041   0.686   1.312  0.00  0.00    -0.453 OA
ATOM     17  C   UNL     1       0.338   2.004   0.813  0.00  0.00    +0.466 C 
ATOM     18  O   UNL     1       1.450   1.792  -0.077  0.00  0.00    -0.453 OA
ENDBRANCH   5  10
BRANCH   1  21
ATOM     19  C   UNL     1       8.171  -6.948   4.821  0.00  0.00    +0.003 A 
ATOM     20  C   UNL     1       7.220  -6.088   4.306  0.00  0.00    +0.025 A 
ATOM     21  C   UNL     1       7.541  -4.757   4.075  0.00  0.00    +0.057 A 
ATOM     22  C   UNL     1       8.816  -4.291   4.372  0.00  0.00    +0.040 A 
ATOM     23  C   UNL     1       9.761  -5.155   4.891  0.00  0.00    +0.020 A 
ATOM     24  C   UNL     1       9.439  -6.482   5.115  0.00  0.00    +0.015 A 
ATOM     25 BR   UNL     1      11.497  -4.523   5.295  0.00  0.00    -0.050 Br
ENDBRANCH   1  21
TORSDOF 2
