REMARK  Name = ZINC11669287
REMARK  7 active torsions:
REMARK  status: ('A' for Active; 'I' for Inactive)
REMARK    1  A    between atoms: C_1  and  C_2
REMARK    2  A    between atoms: C_2  and  C_4
REMARK    3  A    between atoms: C_2  and  S_16
REMARK    4  A    between atoms: N_6  and  C_7
REMARK    5  A    between atoms: S_16  and  C_17
REMARK    6  A    between atoms: C_20  and  C_23
REMARK    7  A    between atoms: N_21  and  N_22
REMARK                            x       y       z     vdW  Elec       q    Type
REMARK                         _______ _______ _______ _____ _____    ______ ____
ROOT
ATOM      1  C   UNL     1      -0.479  -1.213   3.103  0.00  0.00    +0.029 C 
ATOM      2  C   UNL     1      -1.391  -2.334   3.605  0.00  0.00    +0.137 C 
ENDROOT
BRANCH   2   3
ATOM      3  C   UNL     1      -1.451  -2.297   5.110  0.00  0.00    +0.230 C 
ATOM      4  O   UNL     1      -2.400  -1.786   5.667  0.00  0.00    -0.274 OA
ATOM      5  N   UNL     1      -0.450  -2.832   5.838  0.00  0.00    -0.282 N 
ATOM      6  H   UNL     1       0.272  -3.304   5.395  0.00  0.00    +0.155 HD
BRANCH   5   7
ATOM      7  C   UNL     1      -0.454  -2.706   7.233  0.00  0.00    +0.071 A 
ATOM      8  C   UNL     1       0.150  -1.609   7.834  0.00  0.00    +0.065 A 
ATOM      9  C   UNL     1       0.141  -1.486   9.211  0.00  0.00    +0.042 A 
ATOM     10  C   UNL     1      -0.460  -2.459   9.991  0.00  0.00    +0.044 A 
ATOM     11  C   UNL     1      -1.058  -3.555   9.394  0.00  0.00    +0.042 A 
ATOM     12  C   UNL     1      -1.057  -3.681   8.018  0.00  0.00    +0.065 A 
ATOM     13 CL   UNL     1      -1.808  -5.057   7.271  0.00  0.00    -0.082 Cl
ATOM     14 CL   UNL     1      -0.463  -2.304  11.720  0.00  0.00    -0.083 Cl
ATOM     15 CL   UNL     1       0.910  -0.392   6.858  0.00  0.00    -0.082 Cl
ENDBRANCH   5   7
ENDBRANCH   2   3
BRANCH   2  16
ATOM     16  S   UNL     1      -3.055  -2.105   2.929  0.00  0.00    -0.072 S 
BRANCH  16  17
ATOM     17  C   UNL     1      -2.723  -2.338   1.214  0.00  0.00    +0.209 A 
ATOM     18  N   UNL     1      -1.554  -2.601   0.676  0.00  0.00    -0.120 NA
ATOM     19  N   UNL     1      -1.668  -2.709  -0.600  0.00  0.00    -0.123 NA
ATOM     20  C   UNL     1      -2.922  -2.527  -0.955  0.00  0.00    +0.217 A 
ATOM     21  N   UNL     1      -3.635  -2.278   0.198  0.00  0.00    -0.221 N 
BRANCH  20  22
ATOM     22  C   UNL     1      -3.459  -2.577  -2.323  0.00  0.00    +0.173 A 
ATOM     23  C   UNL     1      -2.729  -2.531  -3.472  0.00  0.00    +0.053 A 
ATOM     24  C   UNL     1      -3.645  -2.610  -4.539  0.00  0.00    +0.042 A 
ATOM     25  C   UNL     1      -4.877  -2.690  -3.997  0.00  0.00    +0.196 A 
ATOM     26  O   UNL     1      -4.761  -2.670  -2.659  0.00  0.00    -0.460 OA
ENDBRANCH  20  22
BRANCH  21  27
ATOM     27  N   UNL     1      -4.974  -2.030   0.302  0.00  0.00    -0.294 N 
ATOM     28  H   UNL     1      -5.164  -1.041   0.237  0.00  0.00    +0.163 HD
ATOM     29  H   UNL     1      -5.493  -2.545  -0.393  0.00  0.00    +0.163 HD
ENDBRANCH  21  27
ENDBRANCH  16  17
ENDBRANCH   2  16
TORSDOF 6
