REMARK  Name = ZINC03448920
REMARK  11 active torsions:
REMARK  status: ('A' for Active; 'I' for Inactive)
REMARK    1  A    between atoms: C_1  and  C_2
REMARK    2  A    between atoms: C_2  and  C_3
REMARK    3  A    between atoms: C_2  and  C_4
REMARK    4  A    between atoms: C_4  and  C_6
REMARK    5  A    between atoms: C_4  and  N_21
REMARK    6  A    between atoms: N_8  and  N_9
REMARK    7  A    between atoms: C_10  and  C_12
REMARK    8  A    between atoms: C_17  and  O_18
REMARK    9  A    between atoms: O_18  and  C_19
REMARK   10  A    between atoms: N_21  and  S_22
REMARK   11  A    between atoms: S_22  and  C_25
REMARK                            x       y       z     vdW  Elec       q    Type
REMARK                         _______ _______ _______ _____ _____    ______ ____
ROOT
ATOM      1  C   UNL     1       3.392   3.355  -2.467  0.00  0.00    +0.166 C 
ENDROOT
BRANCH   1   2
ATOM      2  C   UNL     1       3.251   2.784  -3.855  0.00  0.00    +0.248 C 
ATOM      3  O   UNL     1       3.940   1.847  -4.198  0.00  0.00    -0.273 OA
ATOM      4  N   UNL     1       2.357   3.314  -4.714  0.00  0.00    -0.233 N 
ATOM      5  H   UNL     1       1.857   4.107  -4.465  0.00  0.00    +0.173 HD
BRANCH   4   6
ATOM      6  N   UNL     1       2.152   2.719  -5.965  0.00  0.00    -0.230 N 
ATOM      7  C   UNL     1       1.259   3.249  -6.825  0.00  0.00    +0.264 C 
ATOM      8  O   UNL     1       0.632   4.243  -6.513  0.00  0.00    -0.269 OA
ATOM      9  H   UNL     1       2.652   1.926  -6.214  0.00  0.00    +0.173 HD
BRANCH   7  10
ATOM     10  C   UNL     1       1.042   2.623  -8.143  0.00  0.00    +0.081 A 
ATOM     11  C   UNL     1       1.760   1.481  -8.505  0.00  0.00    +0.036 A 
ATOM     12  C   UNL     1       1.552   0.900  -9.738  0.00  0.00    +0.042 A 
ATOM     13  C   UNL     1       0.633   1.445 -10.621  0.00  0.00    +0.023 A 
ATOM     14  C   UNL     1      -0.083   2.574 -10.275  0.00  0.00    +0.048 A 
ATOM     15  C   UNL     1       0.110   3.167  -9.037  0.00  0.00    +0.132 A 
ATOM     16 CL   UNL     1       2.446  -0.519 -10.186  0.00  0.00    -0.084 Cl
BRANCH  15  17
ATOM     17  O   UNL     1      -0.597   4.274  -8.694  0.00  0.00    -0.494 OA
ATOM     18  C   UNL     1      -1.528   4.772  -9.656  0.00  0.00    +0.277 C 
ENDBRANCH  15  17
ENDBRANCH   7  10
ENDBRANCH   4   6
ENDBRANCH   1   2
BRANCH   1  20
ATOM     19  C   UNL     1       4.297   5.261  -1.129  0.00  0.00    +0.009 C 
ATOM     20  C   UNL     1       4.174   4.669  -2.534  0.00  0.00    +0.010 C 
ATOM     21  C   UNL     1       5.570   4.404  -3.100  0.00  0.00    +0.009 C 
ENDBRANCH   1  20
BRANCH   1  22
ATOM     22  N   UNL     1       4.111   2.402  -1.618  0.00  0.00    -0.178 NA
ATOM     23  H   UNL     1       5.038   2.189  -1.806  0.00  0.00    +0.149 HD
BRANCH  22  24
ATOM     24  S   UNL     1       3.340   1.690  -0.337  0.00  0.00    +0.059 S 
ATOM     25  O   UNL     1       2.673   2.731   0.365  0.00  0.00    -0.153 OA
ATOM     26  O   UNL     1       4.291   0.839   0.287  0.00  0.00    -0.153 OA
BRANCH  24  27
ATOM     27  C   UNL     1       2.086   0.644  -0.999  0.00  0.00    +0.107 A 
ATOM     28  C   UNL     1       0.816   1.144  -1.221  0.00  0.00    +0.030 A 
ATOM     29  C   UNL     1      -0.168   0.324  -1.741  0.00  0.00    +0.023 A 
ATOM     30  C   UNL     1       0.117  -0.996  -2.038  0.00  0.00    +0.059 A 
ATOM     31  C   UNL     1       1.389  -1.496  -1.815  0.00  0.00    +0.061 A 
ATOM     32  C   UNL     1       2.373  -0.675  -1.296  0.00  0.00    +0.050 A 
ATOM     33 CL   UNL     1       1.748  -3.153  -2.188  0.00  0.00    -0.082 Cl
ATOM     34 CL   UNL     1      -1.119  -2.026  -2.691  0.00  0.00    -0.082 Cl
ENDBRANCH  24  27
ENDBRANCH  22  24
ENDBRANCH   1  22
TORSDOF 8
