REMARK  Name = ZINC49045705
REMARK  7 active torsions:
REMARK  status: ('A' for Active; 'I' for Inactive)
REMARK    1  A    between atoms: C_1  and  C_2
REMARK    2  A    between atoms: C_5  and  N_12
REMARK    3  A    between atoms: C_7  and  S_8
REMARK    4  A    between atoms: S_8  and  N_11
REMARK    5  A    between atoms: C_13  and  C_15
REMARK    6  A    between atoms: C_15  and  C_16
REMARK    7  A    between atoms: C_16  and  N_17
REMARK                            x       y       z     vdW  Elec       q    Type
REMARK                         _______ _______ _______ _____ _____    ______ ____
ROOT
ATOM      1  C   UNL     1      -0.040   1.502   0.001  0.00  0.00    +0.046 C 
ATOM      2  C   UNL     1      -0.014  -0.004  -0.005  0.00  0.00    -0.024 A 
ATOM      3  C   UNL     1      -0.183  -0.693  -1.192  0.00  0.00    +0.007 A 
ATOM      4  C   UNL     1      -0.159  -2.074  -1.201  0.00  0.00    +0.023 A 
ATOM      5  C   UNL     1       0.035  -2.771  -0.016  0.00  0.00    +0.035 A 
ATOM      6  C   UNL     1       0.205  -2.076   1.175  0.00  0.00    +0.052 A 
ATOM      7  C   UNL     1       0.185  -0.695   1.176  0.00  0.00    +0.110 A 
ENDROOT
BRANCH   5   8
ATOM      8  N   UNL     1       0.059  -4.170  -0.021  0.00  0.00    -0.285 N 
ATOM      9  C   UNL     1       0.555  -4.831  -1.085  0.00  0.00    +0.219 C 
ATOM     10  O   UNL     1       1.068  -4.216  -1.996  0.00  0.00    -0.275 OA
ATOM     11  H   UNL     1      -0.282  -4.663   0.741  0.00  0.00    +0.155 HD
BRANCH   9  12
ATOM     12  C   UNL     1       0.473  -6.335  -1.143  0.00  0.00    +0.115 C 
BRANCH  12  13
ATOM     13  C   UNL     1       1.104  -6.830  -2.446  0.00  0.00    +0.115 C 
BRANCH  13  14
ATOM     14  N   UNL     1       1.024  -8.292  -2.502  0.00  0.00    -0.299 N 
ATOM     15  C   UNL     1       1.520  -8.954  -3.566  0.00  0.00    +0.297 C 
ATOM     16  O   UNL     1       2.035  -8.337  -4.479  0.00  0.00    -0.253 OA
ATOM     17  N   UNL     1       1.447 -10.298  -3.618  0.00  0.00    -0.313 N 
ATOM     18  H   UNL     1       0.614  -8.784  -1.774  0.00  0.00    +0.150 HD
ATOM     19  H   UNL     1       1.036 -10.790  -2.890  0.00  0.00    +0.146 HD
ATOM     20  H   UNL     1       1.804 -10.774  -4.384  0.00  0.00    +0.146 HD
ENDBRANCH  13  14
ENDBRANCH  12  13
ENDBRANCH   9  12
ENDBRANCH   5   8
BRANCH   7  21
ATOM     21  S   UNL     1       0.407   0.187   2.685  0.00  0.00    +0.056 S 
ATOM     22  O   UNL     1      -0.638   1.147   2.752  0.00  0.00    -0.153 OA
ATOM     23  O   UNL     1       0.612  -0.788   3.699  0.00  0.00    -0.153 OA
BRANCH  21  24
ATOM     24  N   UNL     1       1.823   1.036   2.552  0.00  0.00    -0.204 NA
ATOM     25  H   UNL     1       1.930   1.877   3.023  0.00  0.00    +0.144 HD
ATOM     26  H   UNL     1       2.545   0.693   2.002  0.00  0.00    +0.144 HD
ENDBRANCH  21  24
ENDBRANCH   7  21
TORSDOF 6
