REMARK  Name = ZINC35785842
REMARK  5 active torsions:
REMARK  status: ('A' for Active; 'I' for Inactive)
REMARK    1  A    between atoms: C_3  and  C_8
REMARK    2  A    between atoms: C_11  and  C_14
REMARK    3  A    between atoms: C_23  and  C_25
REMARK    4  A    between atoms: C_25  and  N_26
REMARK    5  A    between atoms: C_29  and  C_32
REMARK                            x       y       z     vdW  Elec       q    Type
REMARK                         _______ _______ _______ _____ _____    ______ ____
ROOT
ATOM      1  C   UNL     1       3.654   2.162  -0.022  0.00  0.00    +0.069 C 
ATOM      2  N   UNL     1       3.756   3.446  -0.011  0.00  0.00    -0.181 NA
ATOM      3  N   UNL     1       5.069   3.913  -0.022  0.00  0.00    -0.187 N 
ATOM      4  C   UNL     1       5.984   2.761  -0.043  0.00  0.00    +0.137 C 
ATOM      5  C   UNL     1       5.035   1.546  -0.038  0.00  0.00    +0.087 C 
ATOM      6  C   UNL     1       5.439   5.209  -0.014  0.00  0.00    +0.219 C 
ATOM      7  O   UNL     1       6.616   5.503  -0.026  0.00  0.00    -0.276 OA
ENDROOT
BRANCH   4   8
ATOM      8  C   UNL     1       6.829   2.778  -1.291  0.00  0.00    -0.021 A 
ATOM      9  C   UNL     1       6.275   3.176  -2.494  0.00  0.00    +0.009 A 
ATOM     10  C   UNL     1       7.046   3.194  -3.641  0.00  0.00    +0.050 A 
ATOM     11  C   UNL     1       8.377   2.813  -3.587  0.00  0.00    +0.166 A 
ATOM     12  C   UNL     1       8.935   2.412  -2.376  0.00  0.00    +0.167 A 
ATOM     13  C   UNL     1       8.158   2.402  -1.229  0.00  0.00    +0.055 A 
ATOM     14  O   UNL     1      10.245   2.090  -2.584  0.00  0.00    -0.453 OA
ATOM     15  C   UNL     1      10.374   1.906  -4.006  0.00  0.00    +0.466 C 
ATOM     16  O   UNL     1       9.338   2.741  -4.555  0.00  0.00    -0.453 OA
ENDBRANCH   4   8
BRANCH   1  19
ATOM     17  C   UNL     1      -0.017   1.379   0.010  0.00  0.00    +0.003 A 
ATOM     18  C   UNL     1       1.166   2.089   0.002  0.00  0.00    +0.010 A 
ATOM     19  C   UNL     1       2.386   1.409  -0.013  0.00  0.00    +0.001 A 
ATOM     20  C   UNL     1       2.400   0.012  -0.021  0.00  0.00    +0.048 A 
ATOM     21  C   UNL     1       1.208  -0.687  -0.013  0.00  0.00    +0.124 A 
ATOM     22  C   UNL     1       0.002  -0.004   0.002  0.00  0.00    +0.038 A 
ATOM     23  F   UNL     1       1.218  -2.038  -0.021  0.00  0.00    -0.205 F 
ENDBRANCH   1  19
BRANCH   6  24
ATOM     24  C   UNL     1       4.392   6.292   0.009  0.00  0.00    +0.021 C 
BRANCH  24  25
ATOM     25  N   UNL     1       5.048   7.607   0.013  0.00  0.00    +0.385 N 
ATOM     26  C   UNL     1       5.812   7.767   1.256  0.00  0.00    -0.077 C 
ATOM     27  C   UNL     1       6.562   9.100   1.230  0.00  0.00    -0.006 C 
ATOM     28  C   UNL     1       5.553  10.245   1.098  0.00  0.00    +0.071 C 
ATOM     29  C   UNL     1       4.712  10.028  -0.163  0.00  0.00    -0.006 C 
ATOM     30  C   UNL     1       4.030   8.660  -0.086  0.00  0.00    -0.077 C 
ATOM     31  H   UNL     1       5.675   7.671  -0.775  0.00  0.00    -0.081 HD
BRANCH  28  32
ATOM     32  C   UNL     1       6.289  11.556   0.993  0.00  0.00    +0.213 C 
ATOM     33  O   UNL     1       7.501  11.575   1.021  0.00  0.00    -0.276 OA
ATOM     34  N   UNL     1       5.600  12.707   0.868  0.00  0.00    -0.329 N 
ATOM     35  H   UNL     1       4.630  12.692   0.846  0.00  0.00    +0.145 HD
ATOM     36  H   UNL     1       6.074  13.551   0.801  0.00  0.00    +0.145 HD
ENDBRANCH  28  32
ENDBRANCH  24  25
ENDBRANCH   6  24
TORSDOF 5
