REMARK  Name = ZINC13013686
REMARK  11 active torsions:
REMARK  status: ('A' for Active; 'I' for Inactive)
REMARK    1  A    between atoms: C_1  and  C_2
REMARK    2  A    between atoms: C_5  and  C_7
REMARK    3  A    between atoms: C_7  and  C_8
REMARK    4  A    between atoms: N_10  and  N_11
REMARK    5  A    between atoms: C_12  and  C_13
REMARK    6  A    between atoms: C_12  and  C_14
REMARK    7  A    between atoms: C_17  and  S_20
REMARK    8  A    between atoms: S_20  and  N_23
REMARK    9  A    between atoms: N_23  and  C_24
REMARK   10  A    between atoms: C_24  and  C_25
REMARK   11  A    between atoms: C_28  and  C_31
REMARK                            x       y       z     vdW  Elec       q    Type
REMARK                         _______ _______ _______ _____ _____    ______ ____
ROOT
ATOM      1  C   UNL     1      -8.764  -1.095   4.322  0.00  0.00    -0.002 A 
ATOM      2  C   UNL     1     -10.138  -1.074   4.571  0.00  0.00    +0.011 A 
ATOM      3  C   UNL     1     -10.777  -2.221   4.992  0.00  0.00    +0.029 A 
ATOM      4  C   UNL     1     -10.057  -3.389   5.179  0.00  0.00    +0.105 A 
ATOM      5  C   UNL     1      -8.695  -3.415   4.940  0.00  0.00    +0.029 A 
ATOM      6  C   UNL     1      -8.044  -2.276   4.513  0.00  0.00    +0.011 A 
ENDROOT
BRANCH   1   8
ATOM      7  N   UNL     1      -6.798   0.106   3.640  0.00  0.00    -0.185 NA
ATOM      8  C   UNL     1      -8.075   0.127   3.865  0.00  0.00    +0.063 C 
ATOM      9  C   UNL     1      -8.855   1.400   3.661  0.00  0.00    +0.068 C 
BRANCH   7  12
ATOM     10  C   UNL     1      -4.816   1.244   2.973  0.00  0.00    +0.239 C 
ATOM     11  O   UNL     1      -4.188   0.220   3.138  0.00  0.00    -0.274 OA
ATOM     12  N   UNL     1      -6.143   1.266   3.207  0.00  0.00    -0.206 N 
ATOM     13  H   UNL     1      -6.646   2.086   3.075  0.00  0.00    +0.177 HD
BRANCH  10  14
ATOM     14  C   UNL     1      -4.112   2.493   2.506  0.00  0.00    +0.160 C 
BRANCH  14  19
ATOM     15  C   UNL     1      -0.013   1.086   0.008  0.00  0.00    +0.066 C 
ATOM     16  C   UNL     1      -0.718   1.572   1.248  0.00  0.00    +0.046 A 
ATOM     17  C   UNL     1      -0.028   1.807   2.393  0.00  0.00    +0.070 A 
ATOM     18  S   UNL     1      -1.351   2.342   3.469  0.00  0.00    -0.080 S 
ATOM     19  C   UNL     1      -2.646   2.202   2.320  0.00  0.00    +0.087 A 
ATOM     20  N   UNL     1      -2.017   1.784   1.245  0.00  0.00    -0.249 NA
ENDBRANCH  14  19
ENDBRANCH  10  14
ENDBRANCH   7  12
ENDBRANCH   1   8
BRANCH   4  21
ATOM     21  S   UNL     1     -10.880  -4.848   5.724  0.00  0.00    +0.059 S 
ATOM     22  O   UNL     1     -12.245  -4.707   5.353  0.00  0.00    -0.153 OA
ATOM     23  O   UNL     1     -10.085  -5.946   5.299  0.00  0.00    -0.153 OA
BRANCH  21  24
ATOM     24  N   UNL     1     -10.837  -4.846   7.380  0.00  0.00    -0.186 NA
ATOM     25  H   UNL     1     -10.341  -5.531   7.853  0.00  0.00    +0.148 HD
BRANCH  24  26
ATOM     26  C   UNL     1     -11.549  -3.808   8.129  0.00  0.00    +0.141 C 
BRANCH  26  27
ATOM     27  C   UNL     1     -11.667  -4.223   9.573  0.00  0.00    -0.032 A 
ATOM     28  C   UNL     1     -12.768  -4.949   9.993  0.00  0.00    +0.006 A 
ATOM     29  C   UNL     1     -12.880  -5.336  11.313  0.00  0.00    +0.015 A 
ATOM     30  C   UNL     1     -11.885  -4.984  12.227  0.00  0.00    +0.063 A 
ATOM     31  C   UNL     1     -10.780  -4.247  11.797  0.00  0.00    +0.015 A 
ATOM     32  C   UNL     1     -10.678  -3.871  10.474  0.00  0.00    +0.006 A 
BRANCH  30  33
ATOM     33  C   UNL     1     -12.001  -5.391  13.642  0.00  0.00    +0.387 C 
ATOM     34  O   UNL     1     -11.133  -5.084  14.435  0.00  0.00    -0.241 OA
ATOM     35  O   UNL     1     -13.068  -6.103  14.054  0.00  0.00    -0.241 OA
ENDBRANCH  30  33
ENDBRANCH  26  27
ENDBRANCH  24  26
ENDBRANCH  21  24
ENDBRANCH   4  21
TORSDOF 9
