REMARK  Name = ZINC39948162
REMARK  4 active torsions:
REMARK  status: ('A' for Active; 'I' for Inactive)
REMARK    1  A    between atoms: C_8  and  C_13
REMARK    2  A    between atoms: N_14  and  N_15
REMARK    3  A    between atoms: C_16  and  C_18
REMARK    4  A    between atoms: N_20  and  C_21
REMARK                            x       y       z     vdW  Elec       q    Type
REMARK                         _______ _______ _______ _____ _____    ______ ____
ROOT
ATOM      1  N   UNL     1       3.038  -5.668   2.154  0.00  0.00    -0.199 N 
ATOM      2  C   UNL     1       3.117  -7.005   2.003  0.00  0.00    +0.318 C 
ATOM      3  O   UNL     1       3.087  -7.494   0.891  0.00  0.00    -0.263 OA
ATOM      4  H   UNL     1       3.063  -5.278   3.041  0.00  0.00    +0.178 HD
ENDROOT
BRANCH   2   5
ATOM      5  C   UNL     1       3.241  -7.885   3.201  0.00  0.00    +0.305 C 
ATOM      6  O   UNL     1       3.272  -7.397   4.312  0.00  0.00    -0.265 OA
ATOM      7  N   UNL     1       3.320  -9.222   3.050  0.00  0.00    -0.278 N 
ATOM      8  H   UNL     1       3.229  -9.617   2.169  0.00  0.00    +0.155 HD
BRANCH   7   9
ATOM      9  C   UNL     1       3.534 -10.040   4.163  0.00  0.00    +0.035 A 
ATOM     10  C   UNL     1       4.307 -11.188   4.046  0.00  0.00    +0.025 A 
ATOM     11  C   UNL     1       4.517 -11.994   5.147  0.00  0.00    +0.023 A 
ATOM     12  C   UNL     1       3.957 -11.660   6.368  0.00  0.00    +0.059 A 
ATOM     13  C   UNL     1       3.185 -10.517   6.489  0.00  0.00    +0.061 A 
ATOM     14  C   UNL     1       2.977  -9.703   5.391  0.00  0.00    +0.044 A 
ATOM     15 CL   UNL     1       2.483 -10.101   8.021  0.00  0.00    -0.082 Cl
ATOM     16 CL   UNL     1       4.221 -12.677   7.750  0.00  0.00    -0.082 Cl
ENDBRANCH   7   9
ENDBRANCH   2   5
BRANCH   1  18
ATOM     17  C   UNL     1       2.847  -3.572   1.172  0.00  0.00    +0.120 C 
ATOM     18  N   UNL     1       2.922  -4.842   1.028  0.00  0.00    -0.191 NA
BRANCH  17  26
ATOM     19  C   UNL     1      -0.033   1.354   0.028  0.00  0.00    +0.001 A 
ATOM     20  C   UNL     1       1.149   2.096   0.011  0.00  0.00    +0.002 A 
ATOM     21  C   UNL     1       2.377   1.517  -0.013  0.00  0.00    +0.024 A 
ATOM     22  C   UNL     1       2.507   0.116  -0.021  0.00  0.00    +0.040 A 
ATOM     23  N   UNL     1       3.718  -0.441  -0.044  0.00  0.00    -0.284 N 
ATOM     24  C   UNL     1       3.910  -1.749  -0.054  0.00  0.00    +0.229 C 
ATOM     25  O   UNL     1       5.040  -2.200  -0.075  0.00  0.00    -0.274 OA
ATOM     26  C   UNL     1       2.721  -2.683  -0.039  0.00  0.00    +0.141 C 
ATOM     27  C   UNL     1       1.342  -2.054  -0.012  0.00  0.00    +0.001 C 
ATOM     28  C   UNL     1       1.276  -0.693  -0.004  0.00  0.00    -0.007 A 
ATOM     29  C   UNL     1      -0.015  -0.004   0.021  0.00  0.00    +0.009 A 
ATOM     30  H   UNL     1       4.494   0.141  -0.054  0.00  0.00    +0.155 HD
ENDBRANCH  17  26
ENDBRANCH   1  18
TORSDOF 4
