REMARK  Name = ZINC48330862
REMARK  3 active torsions:
REMARK  status: ('A' for Active; 'I' for Inactive)
REMARK    1  A    between atoms: C_5  and  N_7
REMARK    2  A    between atoms: N_10  and  C_11
REMARK    3  A    between atoms: C_14  and  C_17
REMARK                            x       y       z     vdW  Elec       q    Type
REMARK                         _______ _______ _______ _____ _____    ______ ____
ROOT
ATOM      1  N   UNL     1       1.229  -2.066   0.148  0.00  0.00    -0.268 N 
ATOM      2  C   UNL     1       0.087  -2.772   0.263  0.00  0.00    +0.308 C 
ATOM      3  O   UNL     1      -0.969  -2.196   0.440  0.00  0.00    -0.252 OA
ATOM      4  N   UNL     1       0.115  -4.117   0.180  0.00  0.00    -0.269 N 
ATOM      5  H   UNL     1       2.059  -2.518  -0.072  0.00  0.00    +0.156 HD
ATOM      6  H   UNL     1       0.965  -4.581   0.116  0.00  0.00    +0.156 HD
ENDROOT
BRANCH   1  11
ATOM      7  C   UNL     1       0.193   1.276   1.280  0.00  0.00    +0.002 A 
ATOM      8  C   UNL     1       1.195   2.059   0.738  0.00  0.00    +0.001 A 
ATOM      9  C   UNL     1       2.209   1.476  -0.000  0.00  0.00    +0.016 A 
ATOM     10  C   UNL     1       2.223   0.109  -0.198  0.00  0.00    +0.035 A 
ATOM     11  C   UNL     1       1.218  -0.680   0.346  0.00  0.00    +0.048 A 
ATOM     12  C   UNL     1       0.202  -0.092   1.087  0.00  0.00    +0.024 A 
ATOM     13  I   UNL     1       3.759  -0.773  -1.318  0.00  0.00    -0.042 I 
ENDBRANCH   1  11
BRANCH   4  14
ATOM     14  C   UNL     1      -1.077  -4.842   0.189  0.00  0.00    +0.035 A 
ATOM     15  C   UNL     1      -2.217  -4.309  -0.404  0.00  0.00    +0.024 A 
ATOM     16  C   UNL     1      -3.395  -5.021  -0.398  0.00  0.00    +0.020 A 
ATOM     17  C   UNL     1      -3.445  -6.282   0.204  0.00  0.00    +0.052 A 
ATOM     18  C   UNL     1      -2.297  -6.814   0.798  0.00  0.00    +0.020 A 
ATOM     19  C   UNL     1      -1.121  -6.098   0.784  0.00  0.00    +0.024 A 
BRANCH  17  20
ATOM     20  C   UNL     1      -4.669  -7.025   0.213  0.00  0.00    +0.099 C 
ATOM     21  N   UNL     1      -5.639  -7.615   0.220  0.00  0.00    -0.191 NA
ENDBRANCH  17  20
ENDBRANCH   4  14
TORSDOF 3
