REMARK  Name = ZINC36912253
REMARK  3 active torsions:
REMARK  status: ('A' for Active; 'I' for Inactive)
REMARK    1  A    between atoms: C_3  and  N_20
REMARK    2  A    between atoms: C_6  and  C_7
REMARK    3  A    between atoms: C_9  and  C_12
REMARK                            x       y       z     vdW  Elec       q    Type
REMARK                         _______ _______ _______ _____ _____    ______ ____
ROOT
ATOM      1  C   UNL     1      -1.267  -0.762   0.011  0.00  0.00    +0.109 A 
ATOM      2  N   UNL     1      -1.460  -2.071   0.011  0.00  0.00    -0.239 NA
ATOM      3  C   UNL     1      -2.677  -2.584   0.020  0.00  0.00    +0.080 A 
ATOM      4  C   UNL     1      -3.761  -1.746   0.029  0.00  0.00    +0.075 A 
ATOM      5  S   UNL     1      -2.947  -0.154   0.031  0.00  0.00    -0.075 S 
ENDROOT
BRANCH   3   6
ATOM      6  C   UNL     1      -2.869  -4.056   0.019  0.00  0.00    +0.019 A 
ATOM      7  C   UNL     1      -4.154  -4.593   0.022  0.00  0.00    +0.013 A 
ATOM      8  C   UNL     1      -4.328  -5.962   0.022  0.00  0.00    +0.021 A 
ATOM      9  C   UNL     1      -3.227  -6.802   0.019  0.00  0.00    +0.042 A 
ATOM     10  C   UNL     1      -1.948  -6.274   0.016  0.00  0.00    +0.040 A 
ATOM     11  C   UNL     1      -1.763  -4.905   0.010  0.00  0.00    +0.052 A 
ATOM     12 CL   UNL     1      -0.158  -4.244  -0.001  0.00  0.00    -0.083 Cl
ATOM     13 CL   UNL     1      -3.453  -8.523   0.019  0.00  0.00    -0.083 Cl
ENDBRANCH   3   6
BRANCH   1  19
ATOM     14  C   UNL     1      -0.017   1.392   0.010  0.00  0.00    +0.012 A 
ATOM     15  C   UNL     1       1.168   2.096   0.002  0.00  0.00    +0.023 A 
ATOM     16  C   UNL     1       2.381   1.417  -0.013  0.00  0.00    +0.025 A 
ATOM     17  C   UNL     1       2.403   0.026  -0.021  0.00  0.00    +0.023 A 
ATOM     18  C   UNL     1       1.222  -0.683  -0.013  0.00  0.00    +0.012 A 
ATOM     19  C   UNL     1       0.002  -0.004   0.002  0.00  0.00    +0.007 A 
BRANCH  16  20
ATOM     20  N   UNL     1       3.579   2.132  -0.021  0.00  0.00    -0.358 N 
ATOM     21  H   UNL     1       3.564   3.102  -0.016  0.00  0.00    +0.142 HD
ATOM     22  H   UNL     1       4.426   1.659  -0.032  0.00  0.00    +0.142 HD
ENDBRANCH  16  20
ENDBRANCH   1  19
TORSDOF 3
