REMARK  Name = ZINC02779064
REMARK  6 active torsions:
REMARK  status: ('A' for Active; 'I' for Inactive)
REMARK    1  A    between atoms: C_1  and  C_2
REMARK    2  A    between atoms: C_10  and  C_14
REMARK    3  A    between atoms: N_17  and  N_18
REMARK    4  A    between atoms: C_19  and  C_21
REMARK    5  A    between atoms: C_23  and  C_27
REMARK    6  A    between atoms: N_25  and  C_26
REMARK                            x       y       z     vdW  Elec       q    Type
REMARK                         _______ _______ _______ _____ _____    ______ ____
ROOT
ATOM      1  C   UNL     1      -5.610   3.791   5.070  0.00  0.00    +0.088 C 
ATOM      2  C   UNL     1      -4.829   4.859   5.792  0.00  0.00    +0.129 A 
ATOM      3  N   UNL     1      -5.467   5.760   6.489  0.00  0.00    -0.225 NA
ATOM      4  C   UNL     1      -4.808   6.716   7.137  0.00  0.00    +0.116 A 
ATOM      5  C   UNL     1      -3.407   6.806   7.107  0.00  0.00    +0.077 A 
ATOM      6  C   UNL     1      -2.820   7.910   7.866  0.00  0.00    -0.023 A 
ATOM      7  C   UNL     1      -3.675   8.728   8.517  0.00  0.00    -0.004 A 
ATOM      8  S   UNL     1      -5.287   8.083   8.162  0.00  0.00    -0.073 S 
ATOM      9  C   UNL     1      -3.328   9.920   9.356  0.00  0.00    +0.046 C 
ATOM     10  C   UNL     1      -1.870  10.306   9.071  0.00  0.00    -0.009 C 
ATOM     11  C   UNL     1      -1.007   9.042   9.132  0.00  0.00    +0.008 C 
ATOM     12  C   UNL     1      -1.314   8.145   7.933  0.00  0.00    +0.037 C 
ATOM     13  C   UNL     1      -1.389  11.307  10.123  0.00  0.00    +0.008 C 
ATOM     14  C   UNL     1      -2.737   5.799   6.338  0.00  0.00    +0.280 A 
ATOM     15  O   UNL     1      -1.521   5.790   6.255  0.00  0.00    -0.265 OA
ATOM     16  N   UNL     1      -3.474   4.867   5.705  0.00  0.00    -0.209 N 
ENDROOT
BRANCH  16  17
ATOM     17  N   UNL     1      -2.828   3.881   4.948  0.00  0.00    -0.213 N 
ATOM     18  C   UNL     1      -2.312   4.189   3.741  0.00  0.00    +0.280 C 
ATOM     19  O   UNL     1      -2.328   5.340   3.349  0.00  0.00    -0.267 OA
ATOM     20  H   UNL     1      -2.753   2.977   5.291  0.00  0.00    +0.176 HD
BRANCH  18  21
ATOM     21  C   UNL     1      -1.729   3.132   2.899  0.00  0.00    +0.125 A 
ATOM     22  C   UNL     1      -1.733   1.771   3.152  0.00  0.00    +0.066 A 
ATOM     23  C   UNL     1      -1.062   1.192   2.073  0.00  0.00    +0.166 A 
ATOM     24  N   UNL     1      -0.707   2.153   1.259  0.00  0.00    -0.167 NA
ATOM     25  N   UNL     1      -1.079   3.297   1.709  0.00  0.00    -0.262 N 
ATOM     26  C   UNL     1      -0.844   4.582   1.046  0.00  0.00    +0.173 C 
BRANCH  23  27
ATOM     27  C   UNL     1      -0.798  -0.279   1.878  0.00  0.00    +0.436 C 
ATOM     28  F   UNL     1      -0.008  -0.464   0.738  0.00  0.00    -0.164 F 
ATOM     29  F   UNL     1      -2.013  -0.953   1.717  0.00  0.00    -0.164 F 
ATOM     30  F   UNL     1      -0.128  -0.785   2.997  0.00  0.00    -0.164 F 
ENDBRANCH  23  27
ENDBRANCH  18  21
ENDBRANCH  16  17
TORSDOF 3
