REMARK  Name = ZINC36643129
REMARK  11 active torsions:
REMARK  status: ('A' for Active; 'I' for Inactive)
REMARK    1  A    between atoms: C_1  and  C_2
REMARK    2  A    between atoms: C_2  and  N_3
REMARK    3  A    between atoms: N_3  and  C_4
REMARK    4  A    between atoms: N_3  and  C_6
REMARK    5  A    between atoms: C_4  and  C_5
REMARK    6  A    between atoms: C_6  and  C_7
REMARK    7  A    between atoms: C_7  and  N_8
REMARK    8  A    between atoms: C_12  and  O_19
REMARK    9  A    between atoms: O_19  and  C_20
REMARK   10  A    between atoms: C_21  and  C_23
REMARK   11  A    between atoms: C_25  and  C_35
REMARK                            x       y       z     vdW  Elec       q    Type
REMARK                         _______ _______ _______ _____ _____    ______ ____
ROOT
ATOM      1  N   UNL     1      -1.337  -3.974  -1.563  0.00  0.00    -0.249 N 
ATOM      2  C   UNL     1      -1.506  -4.771  -0.442  0.00  0.00    +0.168 A 
ATOM      3  N   UNL     1      -1.650  -6.074  -0.372  0.00  0.00    -0.221 NA
ATOM      4  C   UNL     1      -1.806  -6.725   0.802  0.00  0.00    +0.123 A 
ATOM      5  C   UNL     1      -1.971  -8.118   1.015  0.00  0.00    +0.147 A 
ATOM      6  C   UNL     1      -2.120  -8.620   2.286  0.00  0.00    +0.049 A 
ATOM      7  C   UNL     1      -2.115  -7.789   3.397  0.00  0.00    +0.025 A 
ATOM      8  C   UNL     1      -1.956  -6.426   3.224  0.00  0.00    +0.057 A 
ATOM      9  C   UNL     1      -1.806  -5.914   1.957  0.00  0.00    +0.063 A 
ATOM     10  S   UNL     1      -1.574  -4.289   1.278  0.00  0.00    -0.050 S 
ATOM     11 CL   UNL     1      -1.946  -5.367   4.600  0.00  0.00    -0.082 Cl
ATOM     12  C   UNL     1      -1.312  -4.532  -2.789  0.00  0.00    +0.266 C 
ATOM     13  O   UNL     1      -1.530  -5.718  -2.920  0.00  0.00    -0.271 OA
ENDROOT
BRANCH  12  14
ATOM     14  C   UNL     1      -1.011  -3.683  -3.998  0.00  0.00    +0.299 C 
ATOM     15  C   UNL     1       0.202  -4.255  -4.743  0.00  0.00    +0.220 C 
ATOM     16  O   UNL     1      -0.111  -5.592  -5.150  0.00  0.00    -0.481 OA
ATOM     17  C   UNL     1      -1.326  -5.785  -5.730  0.00  0.00    +0.163 A 
ATOM     18  C   UNL     1      -1.554  -6.940  -6.464  0.00  0.00    +0.049 A 
ATOM     19  C   UNL     1      -2.784  -7.153  -7.056  0.00  0.00    +0.004 A 
ATOM     20  C   UNL     1      -3.791  -6.216  -6.919  0.00  0.00    +0.004 A 
ATOM     21  C   UNL     1      -3.571  -5.062  -6.191  0.00  0.00    +0.049 A 
ATOM     22  C   UNL     1      -2.337  -4.842  -5.595  0.00  0.00    +0.163 A 
ATOM     23  O   UNL     1      -2.133  -3.696  -4.888  0.00  0.00    -0.472 OA
ATOM     24  C   UNL     1       1.419  -4.269  -3.815  0.00  0.00    +0.056 C 
ENDBRANCH  12  14
BRANCH   5  25
ATOM     25  O   UNL     1      -1.982  -8.965  -0.049  0.00  0.00    -0.493 OA
ATOM     26  C   UNL     1      -2.152 -10.356   0.231  0.00  0.00    +0.277 C 
ENDBRANCH   5  25
BRANCH   1  27
ATOM     27  C   UNL     1      -1.187  -2.524  -1.415  0.00  0.00    +0.097 C 
BRANCH  27  28
ATOM     28  C   UNL     1       0.300  -2.169  -1.357  0.00  0.00    -0.059 C 
BRANCH  28  29
ATOM     29  N   UNL     1       0.451  -0.732  -1.093  0.00  0.00    +0.380 N 
ATOM     30  H   UNL     1      -0.055  -0.207  -1.792  0.00  0.00    -0.082 HD
BRANCH  29  32
ATOM     31  C   UNL     1      -0.035   1.093   0.467  0.00  0.00    -0.017 C 
ATOM     32  C   UNL     1      -0.086  -0.419   0.238  0.00  0.00    -0.082 C 
ENDBRANCH  29  32
BRANCH  29  33
ATOM     33  C   UNL     1       1.874  -0.371  -1.144  0.00  0.00    -0.082 C 
ATOM     34  C   UNL     1       2.399  -0.569  -2.568  0.00  0.00    -0.017 C 
ENDBRANCH  29  33
ENDBRANCH  28  29
ENDBRANCH  27  28
ENDBRANCH   1  27
TORSDOF 7
