REMARK  Name = ZINC67525847
REMARK  4 active torsions:
REMARK  status: ('A' for Active; 'I' for Inactive)
REMARK    1  A    between atoms: C_1  and  C_2
REMARK    2  A    between atoms: C_7  and  C_10
REMARK    3  A    between atoms: C_11  and  C_13
REMARK    4  A    between atoms: N_15  and  C_16
REMARK                            x       y       z     vdW  Elec       q    Type
REMARK                         _______ _______ _______ _____ _____    ______ ____
ROOT
ATOM      1  C   UNL     1      -3.003  -2.246  -1.647  0.00  0.00    +0.303 C 
ATOM      2  O   UNL     1      -3.064  -1.045  -1.812  0.00  0.00    -0.265 OA
ATOM      3  N   UNL     1      -3.728  -3.071  -2.428  0.00  0.00    -0.276 N 
ATOM      4  H   UNL     1      -3.718  -4.027  -2.264  0.00  0.00    +0.155 HD
ENDROOT
BRANCH   1  13
ATOM      5  C   UNL     1       0.607   1.193  -0.585  0.00  0.00    +0.039 C 
ATOM      6  C   UNL     1       0.383  -0.305  -0.371  0.00  0.00    +0.133 C 
ATOM      7  C   UNL     1      -1.120  -0.590  -0.276  0.00  0.00    +0.139 C 
ATOM      8  N   UNL     1      -1.302  -1.997   0.115  0.00  0.00    -0.289 N 
ATOM      9  C   UNL     1      -0.558  -2.492   1.284  0.00  0.00    +0.139 C 
ATOM     10  C   UNL     1       0.918  -2.114   1.113  0.00  0.00    +0.133 C 
ATOM     11  O   UNL     1       1.018  -0.714   0.843  0.00  0.00    -0.371 OA
ATOM     12  C   UNL     1       1.682  -2.444   2.397  0.00  0.00    +0.039 C 
ATOM     13  C   UNL     1      -2.125  -2.809  -0.578  0.00  0.00    +0.302 C 
ATOM     14  O   UNL     1      -2.153  -3.997  -0.333  0.00  0.00    -0.265 OA
ENDBRANCH   1  13
BRANCH   3  15
ATOM     15  C   UNL     1      -4.494  -2.550  -3.474  0.00  0.00    +0.053 A 
ATOM     16  C   UNL     1      -5.079  -1.296  -3.351  0.00  0.00    +0.040 A 
ATOM     17  C   UNL     1      -5.836  -0.783  -4.387  0.00  0.00    +0.020 A 
ATOM     18  C   UNL     1      -6.011  -1.518  -5.547  0.00  0.00    +0.017 A 
ATOM     19  C   UNL     1      -5.431  -2.766  -5.673  0.00  0.00    +0.023 A 
ATOM     20  C   UNL     1      -4.667  -3.282  -4.643  0.00  0.00    +0.062 A 
ATOM     21 CL   UNL     1      -3.932  -4.846  -4.805  0.00  0.00    -0.082 Cl
ATOM     22 BR   UNL     1      -6.632   0.923  -4.220  0.00  0.00    -0.050 Br
ENDBRANCH   3  15
TORSDOF 2
