REMARK  Name = ZINC47781333
REMARK  3 active torsions:
REMARK  status: ('A' for Active; 'I' for Inactive)
REMARK    1  A    between atoms: C_6  and  C_7
REMARK    2  A    between atoms: C_7  and  O_8
REMARK    3  A    between atoms: C_15  and  C_17
REMARK                            x       y       z     vdW  Elec       q    Type
REMARK                         _______ _______ _______ _____ _____    ______ ____
ROOT
ATOM      1  C   UNL     1      -0.016   1.530   0.016  0.00  0.00    +0.025 C 
ATOM      2  C   UNL     1       1.424   2.052   0.002  0.00  0.00    +0.109 C 
ATOM      3  N   UNL     1       2.130   1.465  -1.145  0.00  0.00    -0.285 N 
ATOM      4  C   UNL     1       2.131   0.004  -1.301  0.00  0.00    +0.109 C 
ATOM      5  C   UNL     1       0.683  -0.496  -1.273  0.00  0.00    +0.025 C 
ATOM      6  C   UNL     1       0.001  -0.001   0.004  0.00  0.00    +0.017 C 
ATOM      7  C   UNL     1       2.764   2.251  -2.037  0.00  0.00    +0.308 C 
ATOM      8  O   UNL     1       2.677   3.461  -1.951  0.00  0.00    -0.252 OA
ATOM      9  N   UNL     1       3.495   1.697  -3.024  0.00  0.00    -0.247 N 
ATOM     10  C   UNL     1       4.233   2.506  -3.881  0.00  0.00    +0.189 A 
ATOM     11  N   UNL     1       4.352   3.819  -3.889  0.00  0.00    -0.126 NA
ATOM     12  N   UNL     1       5.068   4.420  -4.739  0.00  0.00    -0.144 NA
ATOM     13  C   UNL     1       5.715   3.715  -5.645  0.00  0.00    +0.110 A 
ATOM     14  S   UNL     1       5.216   2.064  -5.178  0.00  0.00    -0.035 S 
ATOM     15  H   UNL     1       3.506   0.734  -3.137  0.00  0.00    +0.158 HD
ENDROOT
BRANCH  13  16
ATOM     16  C   UNL     1       6.623   4.172  -6.758  0.00  0.00    +0.022 C 
ATOM     17  C   UNL     1       7.126   2.955  -7.537  0.00  0.00    +0.017 C 
ATOM     18  C   UNL     1       8.048   3.419  -8.667  0.00  0.00    -0.010 C 
ATOM     19  C   UNL     1       9.239   4.175  -8.076  0.00  0.00    +0.007 C 
ATOM     20  C   UNL     1       8.736   5.392  -7.296  0.00  0.00    -0.010 C 
ATOM     21  C   UNL     1       7.814   4.928  -6.167  0.00  0.00    +0.017 C 
ATOM     22  C   UNL     1       7.962   6.316  -8.239  0.00  0.00    +0.007 C 
ATOM     23  C   UNL     1       6.770   5.560  -8.830  0.00  0.00    -0.010 C 
ATOM     24  C   UNL     1       7.274   4.344  -9.609  0.00  0.00    +0.007 C 
ATOM     25  C   UNL     1       5.849   5.096  -7.700  0.00  0.00    +0.017 C 
ENDBRANCH  13  16
BRANCH   6  26
ATOM     26  C   UNL     1      -1.435  -0.527   0.053  0.00  0.00    +0.159 C 
BRANCH  26  27
ATOM     27  O   UNL     1      -1.417  -1.951   0.160  0.00  0.00    -0.395 OA
ATOM     28  H   UNL     1      -2.295  -2.354   0.195  0.00  0.00    +0.209 HD
ENDBRANCH  26  27
ENDBRANCH   6  26
TORSDOF 3
