REMARK  Name = ZINC45754631
REMARK  9 active torsions:
REMARK  status: ('A' for Active; 'I' for Inactive)
REMARK    1  A    between atoms: C_1  and  C_2
REMARK    2  A    between atoms: C_5  and  C_36
REMARK    3  A    between atoms: N_8  and  C_10
REMARK    4  A    between atoms: C_10  and  C_11
REMARK    5  A    between atoms: C_17  and  C_19
REMARK    6  A    between atoms: C_19  and  N_20
REMARK    7  A    between atoms: C_25  and  C_32
REMARK    8  A    between atoms: C_28  and  C_30
REMARK    9  A    between atoms: C_28  and  C_31
REMARK                            x       y       z     vdW  Elec       q    Type
REMARK                         _______ _______ _______ _____ _____    ______ ____
ROOT
ATOM      1  C   UNL     1       1.127  -0.833   4.201  0.00  0.00    +0.034 A 
ATOM      2  C   UNL     1       0.165  -1.325   5.019  0.00  0.00    +0.070 A 
ATOM      3  S   UNL     1      -0.046   0.044   6.146  0.00  0.00    -0.060 S 
ATOM      4  C   UNL     1       1.093   1.081   5.468  0.00  0.00    +0.165 A 
ATOM      5  N   UNL     1       1.573   0.382   4.462  0.00  0.00    -0.231 NA
ATOM      6  N   UNL     1       1.445   2.363   5.874  0.00  0.00    -0.263 N 
ATOM      7  C   UNL     1       0.841   2.920   6.943  0.00  0.00    +0.237 C 
ATOM      8  O   UNL     1      -0.008   2.303   7.550  0.00  0.00    -0.274 OA
ATOM      9  H   UNL     1       2.124   2.857   5.389  0.00  0.00    +0.157 HD
ENDROOT
BRANCH   1  10
ATOM     10  C   UNL     1       1.667  -1.638   3.047  0.00  0.00    -0.022 C 
BRANCH  10  16
ATOM     11  C   UNL     1      -1.132   0.304   0.558  0.00  0.00    +0.005 C 
ATOM     12  C   UNL     1      -1.232  -1.216   0.701  0.00  0.00    -0.031 C 
ATOM     13  C   UNL     1      -0.627  -1.887  -0.535  0.00  0.00    +0.003 C 
ATOM     14  C   UNL     1       0.862  -1.537  -0.617  0.00  0.00    -0.031 C 
ATOM     15  C   UNL     1       1.554  -1.972   0.676  0.00  0.00    -0.075 C 
ATOM     16  N   UNL     1       0.949  -1.277   1.818  0.00  0.00    +0.384 N 
ATOM     17  C   UNL     1      -0.463  -1.663   1.946  0.00  0.00    -0.075 C 
ATOM     18  C   UNL     1       1.493  -2.265  -1.805  0.00  0.00    +0.005 C 
ATOM     19  H   UNL     1       1.012  -0.280   1.675  0.00  0.00    -0.081 HD
ENDBRANCH  10  16
ENDBRANCH   1  10
BRANCH   7  20
ATOM     20  C   UNL     1       1.222   4.310   7.384  0.00  0.00    +0.214 C 
BRANCH  20  21
ATOM     21  N   UNL     1       0.430   4.684   8.559  0.00  0.00    -0.215 N 
ATOM     22  C   UNL     1      -0.768   5.300   8.500  0.00  0.00    +0.247 C 
ATOM     23  O   UNL     1      -1.372   5.637   7.504  0.00  0.00    -0.273 OA
ATOM     24  C   UNL     1      -1.200   5.481   9.937  0.00  0.00    +0.113 C 
ATOM     25  C   UNL     1      -2.500   4.731  10.200  0.00  0.00    +0.038 C 
ATOM     26  C   UNL     1      -2.903   4.902  11.667  0.00  0.00    -0.011 C 
ATOM     27  C   UNL     1      -3.082   6.390  11.975  0.00  0.00    +0.009 C 
ATOM     28  C   UNL     1      -1.763   7.126  11.729  0.00  0.00    -0.032 C 
ATOM     29  C   UNL     1      -1.356   6.963  10.262  0.00  0.00    +0.041 C 
ATOM     30  C   UNL     1      -0.675   6.537  12.629  0.00  0.00    +0.011 C 
ATOM     31  C   UNL     1      -1.940   8.612  12.047  0.00  0.00    +0.011 C 
ATOM     32  C   UNL     1      -4.219   4.166  11.925  0.00  0.00    +0.007 C 
ATOM     33  N   UNL     1      -0.101   4.897  10.716  0.00  0.00    -0.285 N 
ATOM     34  C   UNL     1       0.804   4.452   9.823  0.00  0.00    +0.310 C 
ATOM     35  O   UNL     1       1.844   3.904  10.131  0.00  0.00    -0.252 OA
ATOM     36  H   UNL     1      -0.040   4.839  11.682  0.00  0.00    +0.151 HD
ENDBRANCH  20  21
ENDBRANCH   7  20
TORSDOF 4
