REMARK  Name = ZINC07684585
REMARK  11 active torsions:
REMARK  status: ('A' for Active; 'I' for Inactive)
REMARK    1  A    between atoms: C_1  and  C_2
REMARK    2  A    between atoms: C_2  and  N_46
REMARK    3  A    between atoms: C_3  and  C_4
REMARK    4  A    between atoms: C_3  and  N_46
REMARK    5  A    between atoms: N_6  and  C_7
REMARK    6  A    between atoms: C_15  and  C_16
REMARK    7  A    between atoms: C_15  and  N_46
REMARK    8  A    between atoms: N_18  and  C_19
REMARK    9  A    between atoms: C_19  and  C_20
REMARK   10  A    between atoms: C_19  and  C_21
REMARK   11  A    between atoms: C_19  and  C_22
REMARK                            x       y       z     vdW  Elec       q    Type
REMARK                         _______ _______ _______ _____ _____    ______ ____
ROOT
ATOM      1  C   UNL     1       0.934   2.464   0.194  0.00  0.00    +0.020 C 
ENDROOT
BRANCH   1   2
ATOM      2  C   UNL     1       0.712   2.617  -1.289  0.00  0.00    +0.201 C 
ATOM      3  O   UNL     1       0.930   1.685  -2.034  0.00  0.00    -0.278 OA
ATOM      4  N   UNL     1       0.275   3.791  -1.787  0.00  0.00    -0.285 N 
ATOM      5  H   UNL     1       0.176   4.559  -1.203  0.00  0.00    +0.155 HD
BRANCH   4   6
ATOM      6  C   UNL     1      -0.037   3.901  -3.149  0.00  0.00    +0.069 A 
ATOM      7  C   UNL     1      -0.301   2.762  -3.896  0.00  0.00    +0.027 A 
ATOM      8  C   UNL     1      -0.608   2.873  -5.238  0.00  0.00    +0.017 A 
ATOM      9  C   UNL     1      -0.654   4.119  -5.839  0.00  0.00    +0.021 A 
ATOM     10  C   UNL     1      -0.392   5.257  -5.098  0.00  0.00    +0.055 A 
ATOM     11  C   UNL     1      -0.088   5.152  -3.752  0.00  0.00    +0.146 A 
ATOM     12  F   UNL     1       0.163   6.264  -3.027  0.00  0.00    -0.204 F 
ATOM     13 BR   UNL     1      -1.076   4.266  -7.676  0.00  0.00    -0.050 Br
ENDBRANCH   4   6
ENDBRANCH   1   2
BRANCH   1  14
ATOM     14  N   UNL     1       1.531   1.136   0.448  0.00  0.00    +0.391 N 
ATOM     15  H   UNL     1       1.078   0.444  -0.161  0.00  0.00    -0.080 HD
BRANCH  14  17
ATOM     16  C   UNL     1      -0.130   0.281   2.024  0.00  0.00    -0.017 C 
ATOM     17  C   UNL     1       1.318   0.748   1.858  0.00  0.00    -0.081 C 
ENDBRANCH  14  17
BRANCH  14  18
ATOM     18  C   UNL     1       2.978   1.166   0.145  0.00  0.00    +0.019 C 
BRANCH  18  19
ATOM     19  C   UNL     1       3.515  -0.241   0.199  0.00  0.00    +0.197 C 
ATOM     20  O   UNL     1       2.776  -1.162   0.476  0.00  0.00    -0.278 OA
ATOM     21  N   UNL     1       4.816  -0.475  -0.061  0.00  0.00    -0.312 N 
ATOM     22  H   UNL     1       5.407   0.261  -0.282  0.00  0.00    +0.149 HD
BRANCH  21  23
ATOM     23  C   UNL     1       5.339  -1.843  -0.009  0.00  0.00    +0.026 C 
ATOM     24  C   UNL     1       4.596  -2.712  -1.026  0.00  0.00    +0.031 C 
ATOM     25  C   UNL     1       6.832  -1.832  -0.341  0.00  0.00    +0.031 C 
ATOM     26  C   UNL     1       5.133  -2.414   1.396  0.00  0.00    +0.031 C 
ENDBRANCH  21  23
ENDBRANCH  18  19
ENDBRANCH  14  18
ENDBRANCH   1  14
TORSDOF 7
