REMARK  Name = ZINC65315031
REMARK  3 active torsions:
REMARK  status: ('A' for Active; 'I' for Inactive)
REMARK    1  A    between atoms: C_1  and  C_2
REMARK    2  A    between atoms: C_7  and  C_8
REMARK    3  A    between atoms: N_10  and  C_11
REMARK                            x       y       z     vdW  Elec       q    Type
REMARK                         _______ _______ _______ _____ _____    ______ ____
ROOT
ATOM      1  C   UNL     1       0.058   1.546   0.030  0.00  0.00    +0.044 C 
ATOM      2  C   UNL     1       0.128   0.041  -0.002  0.00  0.00    -0.035 A 
ATOM      3  C   UNL     1       0.022  -0.628  -1.203  0.00  0.00    +0.053 A 
ATOM      4  C   UNL     1       0.087  -2.013  -1.232  0.00  0.00    +0.162 A 
ATOM      5  C   UNL     1       0.259  -2.732  -0.053  0.00  0.00    +0.163 A 
ATOM      6  C   UNL     1       0.365  -2.071   1.154  0.00  0.00    +0.062 A 
ATOM      7  C   UNL     1       0.305  -0.674   1.184  0.00  0.00    +0.044 A 
ATOM      8  O   UNL     1       0.322  -4.095  -0.098  0.00  0.00    -0.488 OA
ATOM      9  C   UNL     1      -0.888  -4.765  -0.455  0.00  0.00    +0.232 C 
ATOM     10  C   UNL     1      -1.042  -4.834  -1.966  0.00  0.00    +0.082 C 
ATOM     11  C   UNL     1      -1.200  -3.458  -2.595  0.00  0.00    +0.232 C 
ATOM     12  O   UNL     1      -0.015  -2.680  -2.416  0.00  0.00    -0.488 OA
ENDROOT
BRANCH   7  13
ATOM     13  C   UNL     1       0.423   0.043   2.469  0.00  0.00    +0.249 C 
ATOM     14  O   UNL     1       0.489   1.257   2.484  0.00  0.00    -0.270 OA
ATOM     15  N   UNL     1       0.459  -0.649   3.626  0.00  0.00    -0.281 N 
ATOM     16  H   UNL     1       0.483  -1.618   3.611  0.00  0.00    +0.155 HD
BRANCH  15  17
ATOM     17  C   UNL     1       0.462   0.032   4.848  0.00  0.00    +0.034 A 
ATOM     18  C   UNL     1       1.169  -0.480   5.928  0.00  0.00    +0.024 A 
ATOM     19  C   UNL     1       1.170   0.195   7.133  0.00  0.00    +0.017 A 
ATOM     20  C   UNL     1       0.468   1.380   7.264  0.00  0.00    +0.018 A 
ATOM     21  C   UNL     1      -0.237   1.892   6.190  0.00  0.00    +0.017 A 
ATOM     22  C   UNL     1      -0.238   1.225   4.981  0.00  0.00    +0.024 A 
ATOM     23 BR   UNL     1       0.473   2.301   8.916  0.00  0.00    -0.050 Br
ENDBRANCH  15  17
ENDBRANCH   7  13
TORSDOF 2
