REMARK  Name = ZINC63141971
REMARK  4 active torsions:
REMARK  status: ('A' for Active; 'I' for Inactive)
REMARK    1  A    between atoms: C_1  and  O_2
REMARK    2  A    between atoms: O_2  and  C_3
REMARK    3  A    between atoms: C_8  and  C_9
REMARK    4  A    between atoms: N_28  and  C_31
REMARK                            x       y       z     vdW  Elec       q    Type
REMARK                         _______ _______ _______ _____ _____    ______ ____
ROOT
ATOM      1  C   UNL     1       0.052  -2.828   0.005  0.00  0.00    +0.137 C 
ATOM      2  C   UNL     1       1.037  -2.950  -1.157  0.00  0.00    +0.131 C 
ATOM      3  C   UNL     1       2.089  -3.961  -0.709  0.00  0.00    -0.034 C 
ATOM      4  C   UNL     1       3.253  -3.325  -0.705  0.00  0.00    -0.001 A 
ATOM      5  C   UNL     1       4.617  -3.781  -0.391  0.00  0.00    +0.010 A 
ATOM      6  C   UNL     1       5.599  -2.846  -0.486  0.00  0.00    +0.001 A 
ATOM      7  C   UNL     1       5.363  -1.518  -0.858  0.00  0.00    +0.002 A 
ATOM      8  C   UNL     1       4.141  -1.013  -1.163  0.00  0.00    +0.026 A 
ATOM      9  C   UNL     1       3.029  -1.902  -1.101  0.00  0.00    +0.043 A 
ATOM     10  N   UNL     1       1.754  -1.684  -1.358  0.00  0.00    -0.375 N 
ATOM     11  C   UNL     1       1.711  -5.370  -0.345  0.00  0.00    +0.065 C 
ATOM     12  C   UNL     1       0.431  -5.367   0.451  0.00  0.00    +0.167 C 
ATOM     13  N   UNL     1      -0.312  -4.130   0.546  0.00  0.00    -0.279 N 
ATOM     14  C   UNL     1      -1.474  -4.199   1.276  0.00  0.00    +0.234 C 
ATOM     15  O   UNL     1      -2.220  -3.247   1.373  0.00  0.00    -0.274 OA
ATOM     16  C   UNL     1      -1.780  -5.518   1.953  0.00  0.00    +0.204 C 
ATOM     17  N   UNL     1      -0.543  -6.019   2.580  0.00  0.00    -0.288 N 
ATOM     18  C   UNL     1       0.588  -5.970   1.823  0.00  0.00    +0.237 C 
ATOM     19  O   UNL     1       1.652  -6.387   2.228  0.00  0.00    -0.274 OA
ATOM     20  H   UNL     1       1.353  -0.843  -1.627  0.00  0.00    +0.160 HD
ENDROOT
BRANCH  17  21
ATOM     21  C   UNL     1      -0.532  -6.543   3.948  0.00  0.00    +0.077 C 
ATOM     22  C   UNL     1      -1.478  -7.741   4.043  0.00  0.00    +0.022 C 
ATOM     23  C   UNL     1      -1.181  -8.525   5.323  0.00  0.00    +0.002 C 
ATOM     24  C   UNL     1       0.332  -8.676   5.489  0.00  0.00    +0.000 C 
ATOM     25  C   UNL     1       0.793  -7.876   6.710  0.00  0.00    +0.000 C 
ATOM     26  C   UNL     1       0.818  -6.386   6.362  0.00  0.00    +0.000 C 
ATOM     27  C   UNL     1      -0.612  -5.843   6.345  0.00  0.00    +0.002 C 
ATOM     28  C   UNL     1      -0.993  -5.451   4.916  0.00  0.00    +0.022 C 
ENDBRANCH  17  21
BRANCH   1  34
ATOM     29  C   UNL     1       0.626  -0.618   1.042  0.00  0.00    +0.125 A 
ATOM     30  C   UNL     1       1.202   0.139   2.051  0.00  0.00    +0.046 A 
ATOM     31  C   UNL     1       1.835  -0.488   3.107  0.00  0.00    +0.004 A 
ATOM     32  C   UNL     1       1.895  -1.869   3.158  0.00  0.00    +0.001 A 
ATOM     33  C   UNL     1       1.321  -2.625   2.153  0.00  0.00    +0.009 A 
ATOM     34  C   UNL     1       0.682  -2.003   1.097  0.00  0.00    +0.017 A 
BRANCH  29  36
ATOM     35  C   UNL     1      -0.017   1.425   0.010  0.00  0.00    +0.277 C 
ATOM     36  O   UNL     1       0.002  -0.004   0.002  0.00  0.00    -0.495 OA
ENDBRANCH  29  36
ENDBRANCH   1  34
TORSDOF 3
