REMARK  Name = ZINC20179234
REMARK  6 active torsions:
REMARK  status: ('A' for Active; 'I' for Inactive)
REMARK    1  A    between atoms: C_5  and  C_7
REMARK    2  A    between atoms: C_7  and  N_8
REMARK    3  A    between atoms: C_17  and  C_18
REMARK    4  A    between atoms: C_21  and  C_24
REMARK    5  A    between atoms: N_26  and  C_27
REMARK    6  A    between atoms: C_27  and  C_28
REMARK                            x       y       z     vdW  Elec       q    Type
REMARK                         _______ _______ _______ _____ _____    ______ ____
ROOT
ATOM      1  N   UNL     1       4.800   5.505  -0.837  0.00  0.00    -0.257 N 
ATOM      2  C   UNL     1       3.560   5.943  -1.318  0.00  0.00    +0.079 A 
ATOM      3  C   UNL     1       3.493   7.035  -2.171  0.00  0.00    +0.027 A 
ATOM      4  C   UNL     1       2.268   7.464  -2.647  0.00  0.00    +0.002 A 
ATOM      5  C   UNL     1       1.108   6.809  -2.275  0.00  0.00    +0.004 A 
ATOM      6  C   UNL     1       1.167   5.720  -1.425  0.00  0.00    +0.048 A 
ATOM      7  C   UNL     1       2.390   5.284  -0.944  0.00  0.00    +0.150 A 
ATOM      8  O   UNL     1       2.452   4.212  -0.105  0.00  0.00    -0.449 OA
ATOM      9  C   UNL     1       3.625   3.510  -0.117  0.00  0.00    +0.191 C 
ATOM     10  C   UNL     1       3.641   2.162  -0.021  0.00  0.00    +0.059 C 
ATOM     11  C   UNL     1       4.877   4.293  -0.232  0.00  0.00    +0.287 C 
ATOM     12  O   UNL     1       5.931   3.863   0.196  0.00  0.00    -0.266 OA
ENDROOT
BRANCH  10  13
ATOM     13  C   UNL     1       2.400   1.430   0.272  0.00  0.00    -0.021 A 
ATOM     14  C   UNL     1       1.239   2.131   0.617  0.00  0.00    +0.009 A 
ATOM     15  C   UNL     1       0.086   1.451   0.889  0.00  0.00    +0.013 A 
ATOM     16  C   UNL     1       0.066   0.055   0.824  0.00  0.00    +0.037 A 
ATOM     17  C   UNL     1       1.226  -0.647   0.481  0.00  0.00    +0.013 A 
ATOM     18  C   UNL     1       2.379   0.032   0.208  0.00  0.00    +0.009 A 
BRANCH  16  19
ATOM     19  C   UNL     1      -1.181  -0.680   1.119  0.00  0.00    +0.244 C 
ATOM     20  O   UNL     1      -2.189  -0.070   1.418  0.00  0.00    -0.270 OA
ATOM     21  N   UNL     1      -1.200  -2.026   1.056  0.00  0.00    -0.307 N 
ATOM     22  H   UNL     1      -0.288  -2.578   0.785  0.00  0.00    +0.149 HD
BRANCH  21  23
ATOM     23  C   UNL     1      -2.437  -2.755   1.348  0.00  0.00    +0.140 C 
BRANCH  23  24
ATOM     24  C   UNL     1      -2.193  -4.235   1.209  0.00  0.00    -0.027 A 
ATOM     25  C   UNL     1      -2.394  -4.856  -0.010  0.00  0.00    +0.009 A 
ATOM     26  C   UNL     1      -2.166  -6.213  -0.145  0.00  0.00    +0.050 A 
ATOM     27  C   UNL     1      -1.746  -6.957   0.946  0.00  0.00    +0.166 A 
ATOM     28  C   UNL     1      -1.548  -6.332   2.175  0.00  0.00    +0.167 A 
ATOM     29  C   UNL     1      -1.773  -4.971   2.301  0.00  0.00    +0.054 A 
ATOM     30  O   UNL     1      -1.140  -7.270   3.079  0.00  0.00    -0.453 OA
ATOM     31  C   UNL     1      -1.482  -8.541   2.497  0.00  0.00    +0.466 C 
ATOM     32  O   UNL     1      -1.461  -8.285   1.080  0.00  0.00    -0.453 OA
ENDBRANCH  23  24
ENDBRANCH  21  23
ENDBRANCH  16  19
ENDBRANCH  10  13
BRANCH   1  33
ATOM     33  C   UNL     1       5.994   6.342  -0.981  0.00  0.00    +0.152 C 
BRANCH  33  38
ATOM     34  C   UNL     1       5.844   9.371   1.268  0.00  0.00    +0.000 A 
ATOM     35  C   UNL     1       6.378   8.872   2.442  0.00  0.00    +0.003 A 
ATOM     36  C   UNL     1       6.788   7.554   2.510  0.00  0.00    +0.038 A 
ATOM     37  C   UNL     1       6.664   6.733   1.401  0.00  0.00    +0.128 A 
ATOM     38  C   UNL     1       6.129   7.234   0.227  0.00  0.00    +0.005 A 
ATOM     39  C   UNL     1       5.725   8.554   0.160  0.00  0.00    +0.008 A 
ATOM     40  F   UNL     1       7.065   5.445   1.466  0.00  0.00    -0.205 F 
ENDBRANCH  33  38
ENDBRANCH   1  33
TORSDOF 6
