REMARK  Name = ZINC12996034
REMARK  9 active torsions:
REMARK  status: ('A' for Active; 'I' for Inactive)
REMARK    1  A    between atoms: C_1  and  C_2
REMARK    2  A    between atoms: C_3  and  S_8
REMARK    3  A    between atoms: C_4  and  C_7
REMARK    4  A    between atoms: S_8  and  N_11
REMARK    5  A    between atoms: C_17  and  C_18
REMARK    6  A    between atoms: C_17  and  N_59
REMARK    7  A    between atoms: N_20  and  C_21
REMARK    8  A    between atoms: C_23  and  C_30
REMARK    9  A    between atoms: C_25  and  C_27
REMARK                            x       y       z     vdW  Elec       q    Type
REMARK                         _______ _______ _______ _____ _____    ______ ____
ROOT
ATOM      1  C   UNL     1      -6.106   2.868   0.150  0.00  0.00    +0.201 C 
ATOM      2  O   UNL     1      -5.065   3.490   0.148  0.00  0.00    -0.278 OA
ATOM      3  N   UNL     1      -6.089   1.524   0.041  0.00  0.00    -0.287 N 
ATOM      4  H   UNL     1      -6.922   1.033  -0.035  0.00  0.00    +0.155 HD
ENDROOT
BRANCH   3   5
ATOM      5  C   UNL     1      -4.869   0.838   0.036  0.00  0.00    +0.035 A 
ATOM      6  C   UNL     1      -4.728  -0.319  -0.716  0.00  0.00    +0.036 A 
ATOM      7  C   UNL     1      -3.513  -1.006  -0.722  0.00  0.00    +0.039 A 
ATOM      8  C   UNL     1      -2.441  -0.527   0.028  0.00  0.00    +0.026 A 
ATOM      9  C   UNL     1      -2.585   0.635   0.782  0.00  0.00    +0.039 A 
ATOM     10  C   UNL     1      -3.805   1.314   0.788  0.00  0.00    +0.036 A 
BRANCH   9  11
ATOM     11  C   UNL     1      -1.450   1.146   1.580  0.00  0.00    +0.242 C 
ATOM     12  O   UNL     1      -1.577   2.160   2.238  0.00  0.00    -0.270 OA
ATOM     13  N   UNL     1      -0.274   0.487   1.578  0.00  0.00    -0.325 N 
ATOM     14  H   UNL     1      -0.173  -0.323   1.053  0.00  0.00    +0.145 HD
ATOM     15  H   UNL     1       0.472   0.824   2.098  0.00  0.00    +0.145 HD
ENDBRANCH   9  11
BRANCH   7  16
ATOM     16  C   UNL     1      -3.364  -2.239  -1.524  0.00  0.00    +0.242 C 
ATOM     17  O   UNL     1      -4.300  -2.656  -2.178  0.00  0.00    -0.270 OA
ATOM     18  N   UNL     1      -2.191  -2.902  -1.529  0.00  0.00    -0.325 N 
ATOM     19  H   UNL     1      -1.444  -2.570  -1.007  0.00  0.00    +0.145 HD
ATOM     20  H   UNL     1      -2.093  -3.711  -2.055  0.00  0.00    +0.145 HD
ENDBRANCH   7  16
ENDBRANCH   3   5
BRANCH   1  21
ATOM     21  C   UNL     1      -7.419   3.597   0.274  0.00  0.00    +0.019 C 
BRANCH  21  28
ATOM     22  N   UNL     1      -7.173   7.657   1.176  0.00  0.00    -0.178 NA
ATOM     23  C   UNL     1      -6.434   7.894  -0.045  0.00  0.00    +0.107 C 
ATOM     24  C   UNL     1      -6.967   6.961  -1.161  0.00  0.00    -0.001 C 
ATOM     25  C   UNL     1      -6.597   5.564  -0.862  0.00  0.00    -0.077 C 
ATOM     26  C   UNL     1      -6.309   5.339   1.503  0.00  0.00    -0.061 C 
ATOM     27  C   UNL     1      -6.769   6.646   2.175  0.00  0.00    +0.091 C 
ATOM     28  N   UNL     1      -7.192   5.054   0.382  0.00  0.00    +0.386 N 
ATOM     29  H   UNL     1      -8.093   5.521   0.538  0.00  0.00    -0.081 HD
BRANCH  22  30
ATOM     30  S   UNL     1      -8.530   8.560   1.468  0.00  0.00    +0.066 S 
ATOM     31  O   UNL     1      -8.724   8.558   2.876  0.00  0.00    -0.153 OA
ATOM     32  O   UNL     1      -8.388   9.760   0.720  0.00  0.00    -0.153 OA
BRANCH  30  35
ATOM     33  C   UNL     1     -10.608   6.215   2.804  0.00  0.00    +0.071 C 
ATOM     34  C   UNL     1     -10.718   6.723   1.389  0.00  0.00    +0.107 A 
ATOM     35  C   UNL     1      -9.894   7.690   0.770  0.00  0.00    +0.170 A 
ATOM     36  C   UNL     1     -10.399   7.798  -0.482  0.00  0.00    +0.161 A 
ATOM     37  O   UNL     1     -11.428   6.941  -0.551  0.00  0.00    -0.358 OA
ATOM     38  N   UNL     1     -11.591   6.357   0.495  0.00  0.00    -0.081 NA
ATOM     39  C   UNL     1      -9.902   8.701  -1.581  0.00  0.00    +0.091 C 
ENDBRANCH  30  35
ENDBRANCH  22  30
ENDBRANCH  21  28
ENDBRANCH   1  21
TORSDOF 7
