REMARK  Name = ZINC36563264
REMARK  17 active torsions:
REMARK  status: ('A' for Active; 'I' for Inactive)
REMARK    1  A    between atoms: C_1  and  C_2
REMARK    2  A    between atoms: C_2  and  C_3
REMARK    3  A    between atoms: C_3  and  C_4
REMARK    4  A    between atoms: C_4  and  C_5
REMARK    5  A    between atoms: C_5  and  C_6
REMARK    6  A    between atoms: C_7  and  C_8
REMARK    7  A    between atoms: N_10  and  C_11
REMARK    8  A    between atoms: N_10  and  C_14
REMARK    9  A    between atoms: C_11  and  C_12
REMARK   10  A    between atoms: C_12  and  C_13
REMARK   11  A    between atoms: C_14  and  C_16
REMARK   12  A    between atoms: C_14  and  C_26
REMARK   13  A    between atoms: C_19  and  C_22
REMARK   14  A    between atoms: N_28  and  C_29
REMARK   15  A    between atoms: C_29  and  C_30
REMARK   16  A    between atoms: C_30  and  C_31
REMARK   17  A    between atoms: C_31  and  C_32
REMARK                            x       y       z     vdW  Elec       q    Type
REMARK                         _______ _______ _______ _____ _____    ______ ____
ROOT
ATOM      1  C   UNL     1      -0.810  -4.124  -7.087  0.00  0.00    +0.192 C 
ENDROOT
BRANCH   1   2
ATOM      2  C   UNL     1      -2.010  -4.824  -6.503  0.00  0.00    -0.018 A 
ATOM      3  C   UNL     1      -1.837  -5.882  -5.630  0.00  0.00    +0.006 A 
ATOM      4  C   UNL     1      -2.939  -6.523  -5.095  0.00  0.00    +0.013 A 
ATOM      5  C   UNL     1      -4.213  -6.106  -5.432  0.00  0.00    +0.055 A 
ATOM      6  C   UNL     1      -4.386  -5.047  -6.303  0.00  0.00    +0.013 A 
ATOM      7  C   UNL     1      -3.284  -4.403  -6.835  0.00  0.00    +0.006 A 
BRANCH   5   8
ATOM      8  C   UNL     1      -5.413  -6.806  -4.849  0.00  0.00    +0.417 C 
ATOM      9  F   UNL     1      -5.779  -6.184  -3.650  0.00  0.00    -0.166 F 
ATOM     10  F   UNL     1      -6.478  -6.737  -5.754  0.00  0.00    -0.166 F 
ATOM     11  F   UNL     1      -5.097  -8.146  -4.601  0.00  0.00    -0.166 F 
ENDBRANCH   5   8
ENDBRANCH   1   2
BRANCH   1  12
ATOM     12  C   UNL     1      -0.261  -4.938  -8.230  0.00  0.00    +0.238 C 
ATOM     13  O   UNL     1       0.385  -5.940  -8.007  0.00  0.00    -0.273 OA
ATOM     14  N   UNL     1      -0.489  -4.553  -9.502  0.00  0.00    -0.313 N 
ATOM     15  H   UNL     1      -1.006  -3.752  -9.681  0.00  0.00    +0.149 HD
BRANCH  14  16
ATOM     16  C   UNL     1       0.044  -5.344 -10.613  0.00  0.00    +0.104 C 
BRANCH  16  17
ATOM     17  C   UNL     1      -0.355  -4.694 -11.940  0.00  0.00    +0.018 C 
BRANCH  17  18
ATOM     18  C   UNL     1       0.202  -5.520 -13.101  0.00  0.00    -0.002 C 
ATOM     19  C   UNL     1      -0.197  -4.870 -14.427  0.00  0.00    +0.004 C 
ENDBRANCH  17  18
ENDBRANCH  16  17
ENDBRANCH  14  16
ENDBRANCH   1  12
BRANCH   1  22
ATOM     20  C   UNL     1      -0.035  -3.250  -4.948  0.00  0.00    +0.240 C 
ATOM     21  O   UNL     1      -1.118  -2.716  -4.807  0.00  0.00    -0.271 OA
ATOM     22  N   UNL     1       0.219  -3.977  -6.054  0.00  0.00    -0.282 N 
BRANCH  20  24
ATOM     23  C   UNL     1       0.703  -2.510  -2.758  0.00  0.00    -0.022 C 
ATOM     24  C   UNL     1       0.999  -3.102  -3.912  0.00  0.00    +0.063 C 
BRANCH  23  25
ATOM     25  C   UNL     1      -0.737  -2.328  -2.352  0.00  0.00    +0.027 C 
BRANCH  25  26
ATOM     26  C   UNL     1      -0.909  -2.735  -0.887  0.00  0.00    +0.004 C 
BRANCH  26  27
ATOM     27  C   UNL     1      -2.370  -2.550  -0.474  0.00  0.00    +0.000 C 
BRANCH  27  29
ATOM     28  C   UNL     1      -4.004  -2.772   1.403  0.00  0.00    +0.004 C 
ATOM     29  C   UNL     1      -2.542  -2.957   0.991  0.00  0.00    -0.003 C 
ENDBRANCH  27  29
ENDBRANCH  26  27
ENDBRANCH  25  26
ENDBRANCH  23  25
ENDBRANCH  20  24
BRANCH  22  30
ATOM     30  C   UNL     1       1.525  -4.620  -6.224  0.00  0.00    +0.109 C 
BRANCH  30  31
ATOM     31  C   UNL     1       1.527  -5.969  -5.502  0.00  0.00    +0.016 C 
ATOM     32  C   UNL     1       2.879  -6.655  -5.706  0.00  0.00    +0.005 C 
ENDBRANCH  30  31
ENDBRANCH  22  30
ENDBRANCH   1  22
TORSDOF 14
