REMARK  Name = ZINC05121289
REMARK  8 active torsions:
REMARK  status: ('A' for Active; 'I' for Inactive)
REMARK    1  A    between atoms: C_4  and  C_7
REMARK    2  A    between atoms: C_10  and  C_12
REMARK    3  A    between atoms: N_14  and  C1*_22
REMARK    4  A    between atoms: C_17  and  N_21
REMARK    5  A    between atoms: C2*_24  and  O2*_34
REMARK    6  A    between atoms: C3*_26  and  O3*_33
REMARK    7  A    between atoms: C4*_28  and  C5*_31
REMARK    8  A    between atoms: C5*_31  and  O5*_32
REMARK                            x       y       z     vdW  Elec       q    Type
REMARK                         _______ _______ _______ _____ _____    ______ ____
ROOT
ATOM      1  C   UNL     1      -1.395   3.457  -2.356  0.00  0.00    +0.037 A 
ATOM      2  C   UNL     1      -0.689   3.304  -1.205  0.00  0.00    +0.101 A 
ATOM      3  N   UNL     1      -0.067   2.087  -1.208  0.00  0.00    -0.302 N 
ATOM      4  C   UNL     1      -0.357   1.406  -2.360  0.00  0.00    +0.148 A 
ATOM      5  C   UNL     1      -1.198   2.225  -3.132  0.00  0.00    +0.068 A 
ATOM      6  C   UNL     1      -1.644   1.753  -4.373  0.00  0.00    +0.129 A 
ATOM      7  N   UNL     1      -1.250   0.545  -4.768  0.00  0.00    -0.220 NA
ATOM      8  C   UNL     1      -0.459  -0.193  -4.012  0.00  0.00    +0.225 A 
ATOM      9  N   UNL     1      -0.017   0.211  -2.840  0.00  0.00    -0.218 NA
ENDROOT
BRANCH   1  13
ATOM     10  C   UNL     1      -3.097   6.751  -2.644  0.00  0.00    +0.079 A 
ATOM     11  C   UNL     1      -3.798   6.512  -3.795  0.00  0.00    +0.075 A 
ATOM     12  S   UNL     1      -3.281   4.839  -4.158  0.00  0.00    -0.075 S 
ATOM     13  C   UNL     1      -2.203   4.629  -2.747  0.00  0.00    +0.111 A 
ATOM     14  N   UNL     1      -2.318   5.805  -2.150  0.00  0.00    -0.239 NA
BRANCH  10  18
ATOM     15  C   UNL     1      -3.421  10.507  -0.677  0.00  0.00    +0.000 A 
ATOM     16  C   UNL     1      -2.603   9.523  -0.152  0.00  0.00    +0.001 A 
ATOM     17  C   UNL     1      -2.494   8.302  -0.786  0.00  0.00    +0.010 A 
ATOM     18  C   UNL     1      -3.210   8.062  -1.958  0.00  0.00    +0.001 A 
ATOM     19  C   UNL     1      -4.027   9.059  -2.486  0.00  0.00    +0.010 A 
ATOM     20  C   UNL     1      -4.133  10.275  -1.840  0.00  0.00    +0.001 A 
ENDBRANCH  10  18
ENDBRANCH   1  13
BRANCH   3  21
ATOM     21  C1* UNL     1       0.786   1.581  -0.129  0.00  0.00    +0.252 C 
ATOM     22  C2* UNL     1       2.276   1.746  -0.499  0.00  0.00    +0.195 C 
ATOM     23  C3* UNL     1       2.679   3.087   0.154  0.00  0.00    +0.178 C 
ATOM     24  C4* UNL     1       1.385   3.574   0.842  0.00  0.00    +0.177 C 
ATOM     25  O4* UNL     1       0.612   2.374   1.065  0.00  0.00    -0.346 OA
BRANCH  23  26
ATOM     26  O3* UNL     1       3.713   2.883   1.120  0.00  0.00    -0.386 OA
ATOM     27  H3* UNL     1       4.004   3.692   1.561  0.00  0.00    +0.210 HD
ENDBRANCH  23  26
BRANCH  22  28
ATOM     28  O2* UNL     1       2.436   1.812  -1.918  0.00  0.00    -0.385 OA
ATOM     29  H2* UNL     1       3.353   1.915  -2.206  0.00  0.00    +0.210 HD
ENDBRANCH  22  28
BRANCH  24  30
ATOM     30  C5* UNL     1       1.711   4.253   2.173  0.00  0.00    +0.190 C 
BRANCH  30  31
ATOM     31  O5* UNL     1       0.516   4.798   2.736  0.00  0.00    -0.392 OA
ATOM     32  H5* UNL     1       0.648   5.245   3.583  0.00  0.00    +0.210 HD
ENDBRANCH  30  31
ENDBRANCH  24  30
ENDBRANCH   3  21
BRANCH   6  33
ATOM     33  N   UNL     1      -2.473   2.523  -5.169  0.00  0.00    -0.343 N 
ATOM     34  H   UNL     1      -3.248   2.123  -5.593  0.00  0.00    +0.144 HD
ATOM     35  H   UNL     1      -2.280   3.465  -5.302  0.00  0.00    +0.144 HD
ENDBRANCH   6  33
TORSDOF 8
