REMARK  Name = ZINC59924585
REMARK  6 active torsions:
REMARK  status: ('A' for Active; 'I' for Inactive)
REMARK    1  A    between atoms: C_3  and  N_8
REMARK    2  A    between atoms: C_9  and  C_27
REMARK    3  A    between atoms: C_11  and  C_13
REMARK    4  A    between atoms: N_15  and  C_16
REMARK    5  A    between atoms: C_20  and  S_22
REMARK    6  A    between atoms: S_22  and  N_25
REMARK                            x       y       z     vdW  Elec       q    Type
REMARK                         _______ _______ _______ _____ _____    ______ ____
ROOT
ATOM      1  N   UNL     1       3.580   2.135  -0.008  0.00  0.00    -0.211 N 
ATOM      2  C   UNL     1       4.749   1.782   0.607  0.00  0.00    +0.171 A 
ATOM      3  N   UNL     1       5.636   2.722   0.354  0.00  0.00    -0.202 NA
ATOM      4  C   UNL     1       5.082   3.675  -0.407  0.00  0.00    +0.238 A 
ATOM      5  N   UNL     1       3.829   3.355  -0.657  0.00  0.00    -0.139 NA
ENDROOT
BRANCH   1   8
ATOM      6  C   UNL     1      -0.021   1.389   0.019  0.00  0.00    +0.005 A 
ATOM      7  C   UNL     1       1.165   2.097   0.010  0.00  0.00    +0.028 A 
ATOM      8  C   UNL     1       2.377   1.419   0.002  0.00  0.00    +0.071 A 
ATOM      9  C   UNL     1       2.394   0.030   0.005  0.00  0.00    +0.066 A 
ATOM     10  C   UNL     1       1.203  -0.673   0.015  0.00  0.00    +0.125 A 
ATOM     11  C   UNL     1      -0.004   0.007   0.022  0.00  0.00    +0.038 A 
ATOM     12  F   UNL     1       1.217  -2.024   0.017  0.00  0.00    -0.205 F 
ENDBRANCH   1   8
BRANCH   2  13
ATOM     13  C   UNL     1       4.975   0.570   1.409  0.00  0.00    +0.056 A 
ATOM     14  C   UNL     1       6.160   0.015   1.823  0.00  0.00    +0.019 A 
ATOM     15  C   UNL     1       6.123  -1.136   2.575  0.00  0.00    +0.008 A 
ATOM     16  C   UNL     1       4.920  -1.687   2.885  0.00  0.00    +0.046 A 
ATOM     17  S   UNL     1       3.778  -0.558   2.106  0.00  0.00    -0.094 S 
ENDBRANCH   2  13
BRANCH   4  18
ATOM     18  C   UNL     1       5.769   4.890  -0.894  0.00  0.00    +0.287 C 
ATOM     19  O   UNL     1       5.169   5.694  -1.581  0.00  0.00    -0.266 OA
ATOM     20  N   UNL     1       7.061   5.107  -0.576  0.00  0.00    -0.279 N 
ATOM     21  H   UNL     1       7.520   4.502   0.027  0.00  0.00    +0.155 HD
BRANCH  20  22
ATOM     22  C   UNL     1       7.739   6.206  -1.114  0.00  0.00    +0.038 A 
ATOM     23  C   UNL     1       9.085   6.101  -1.439  0.00  0.00    +0.061 A 
ATOM     24  C   UNL     1       9.752   7.190  -1.971  0.00  0.00    +0.127 A 
ATOM     25  C   UNL     1       9.078   8.382  -2.179  0.00  0.00    +0.067 A 
ATOM     26  C   UNL     1       7.738   8.487  -1.856  0.00  0.00    +0.109 A 
ATOM     27  C   UNL     1       7.065   7.401  -1.330  0.00  0.00    +0.052 A 
ATOM     28  F   UNL     1      11.062   7.091  -2.287  0.00  0.00    -0.205 F 
BRANCH  26  29
ATOM     29  S   UNL     1       6.885  10.005  -2.123  0.00  0.00    +0.056 S 
ATOM     30  O   UNL     1       5.778  10.011  -1.232  0.00  0.00    -0.153 OA
ATOM     31  O   UNL     1       7.869  11.030  -2.121  0.00  0.00    -0.153 OA
BRANCH  29  32
ATOM     32  N   UNL     1       6.259   9.953  -3.655  0.00  0.00    -0.204 NA
ATOM     33  H   UNL     1       5.439  10.429  -3.861  0.00  0.00    +0.144 HD
ATOM     34  H   UNL     1       6.712   9.446  -4.347  0.00  0.00    +0.144 HD
ENDBRANCH  29  32
ENDBRANCH  26  29
ENDBRANCH  20  22
ENDBRANCH   4  18
TORSDOF 6
