REMARK  Name = ZINC35684966
REMARK  5 active torsions:
REMARK  status: ('A' for Active; 'I' for Inactive)
REMARK    1  A    between atoms: C_1  and  C_2
REMARK    2  A    between atoms: C_5  and  C_8
REMARK    3  A    between atoms: C_9  and  C_31
REMARK    4  A    between atoms: C_13  and  C_19
REMARK    5  A    between atoms: N_21  and  C_22
REMARK                            x       y       z     vdW  Elec       q    Type
REMARK                         _______ _______ _______ _____ _____    ______ ____
ROOT
ATOM      1  C   UNL     1       0.075  -4.267  -0.010  0.00  0.00    +0.098 A 
ATOM      2  C   UNL     1       0.731  -5.092   0.927  0.00  0.00    +0.017 A 
ATOM      3  C   UNL     1       0.502  -6.373   0.576  0.00  0.00    +0.128 A 
ATOM      4  N   UNL     1      -0.275  -6.367  -0.550  0.00  0.00    -0.237 N 
ATOM      5  N   UNL     1      -0.531  -5.042  -0.890  0.00  0.00    -0.169 NA
ATOM      6  C   UNL     1      -0.714  -7.598  -1.211  0.00  0.00    +0.204 C 
ATOM      7  C   UNL     1       0.336  -8.686  -0.972  0.00  0.00    +0.132 C 
ATOM      8  C   UNL     1       0.793  -8.701   0.460  0.00  0.00    +0.221 C 
ATOM      9  O   UNL     1       1.050  -9.763   0.988  0.00  0.00    -0.275 OA
ATOM     10  N   UNL     1       0.925  -7.561   1.174  0.00  0.00    -0.270 N 
ATOM     11  C   UNL     1       1.543  -4.626   2.108  0.00  0.00    +0.049 C 
ATOM     12  H   UNL     1       1.301  -7.568   2.068  0.00  0.00    +0.156 HD
ENDROOT
BRANCH   1  17
ATOM     13  C   UNL     1       0.023   1.492   0.013  0.00  0.00    +0.044 C 
ATOM     14  C   UNL     1       0.037  -0.015   0.007  0.00  0.00    -0.050 A 
ATOM     15  C   UNL     1       0.045  -0.699  -1.195  0.00  0.00    +0.004 A 
ATOM     16  C   UNL     1       0.058  -2.079  -1.207  0.00  0.00    +0.010 A 
ATOM     17  C   UNL     1       0.062  -2.783  -0.004  0.00  0.00    +0.002 A 
ATOM     18  C   UNL     1       0.053  -2.089   1.204  0.00  0.00    +0.010 A 
ATOM     19  C   UNL     1       0.046  -0.709   1.203  0.00  0.00    +0.004 A 
ENDBRANCH   1  17
BRANCH   6  20
ATOM     20  C   UNL     1      -2.038  -8.035  -0.638  0.00  0.00    +0.242 C 
ATOM     21  O   UNL     1      -2.565  -7.382   0.237  0.00  0.00    -0.273 OA
ATOM     22  N   UNL     1      -2.636  -9.151  -1.099  0.00  0.00    -0.281 N 
ATOM     23  H   UNL     1      -2.256  -9.629  -1.853  0.00  0.00    +0.155 HD
BRANCH  22  24
ATOM     24  C   UNL     1      -3.807  -9.621  -0.489  0.00  0.00    +0.072 A 
ATOM     25  C   UNL     1      -4.078  -9.301   0.835  0.00  0.00    +0.029 A 
ATOM     26  C   UNL     1      -5.232  -9.766   1.435  0.00  0.00    +0.043 A 
ATOM     27  C   UNL     1      -6.120 -10.550   0.720  0.00  0.00    +0.161 A 
ATOM     28  C   UNL     1      -5.854 -10.872  -0.602  0.00  0.00    +0.195 A 
ATOM     29  C   UNL     1      -4.701 -10.404  -1.210  0.00  0.00    +0.182 A 
ATOM     30  F   UNL     1      -4.443 -10.712  -2.499  0.00  0.00    -0.200 F 
ATOM     31  F   UNL     1      -6.722 -11.638  -1.299  0.00  0.00    -0.199 F 
ATOM     32  F   UNL     1      -7.248 -11.002   1.310  0.00  0.00    -0.202 F 
ENDBRANCH  22  24
ENDBRANCH   6  20
TORSDOF 3
