REMARK  Name = ZINC23393272
REMARK  9 active torsions:
REMARK  status: ('A' for Active; 'I' for Inactive)
REMARK    1  A    between atoms: C_1  and  C_2
REMARK    2  A    between atoms: C_5  and  C_29
REMARK    3  A    between atoms: C_6  and  S_8
REMARK    4  A    between atoms: S_8  and  C_9
REMARK    5  A    between atoms: C_12  and  N_15
REMARK    6  A    between atoms: N_15  and  S_16
REMARK    7  A    between atoms: S_16  and  C_19
REMARK    8  A    between atoms: C_23  and  S_25
REMARK    9  A    between atoms: S_25  and  N_28
REMARK                            x       y       z     vdW  Elec       q    Type
REMARK                         _______ _______ _______ _____ _____    ______ ____
ROOT
ATOM      1  N   UNL     1      -1.234   2.083   0.052  0.00  0.00    -0.098 NA
ENDROOT
BRANCH   1   5
ATOM      2  C   UNL     1       2.378   0.037  -0.342  0.00  0.00    +0.013 A 
ATOM      3  C   UNL     1       1.175  -0.653  -0.434  0.00  0.00    +0.017 A 
ATOM      4  C   UNL     1      -0.020   0.025  -0.301  0.00  0.00    +0.028 A 
ATOM      5  C   UNL     1      -0.021   1.395  -0.076  0.00  0.00    +0.074 A 
ATOM      6  C   UNL     1       1.181   2.085   0.016  0.00  0.00    +0.028 A 
ATOM      7  C   UNL     1       2.377   1.408  -0.117  0.00  0.00    +0.017 A 
BRANCH   2   8
ATOM      8  S   UNL     1       3.904  -0.828  -0.510  0.00  0.00    -0.089 S 
BRANCH   8  14
ATOM      9  C   UNL     1       2.977   1.126  -5.274  0.00  0.00    +0.044 C 
ATOM     10  C   UNL     1       3.833   0.269  -4.379  0.00  0.00    -0.049 A 
ATOM     11  C   UNL     1       4.936  -0.385  -4.897  0.00  0.00    +0.004 A 
ATOM     12  C   UNL     1       5.725  -1.173  -4.079  0.00  0.00    +0.005 A 
ATOM     13  C   UNL     1       5.413  -1.310  -2.741  0.00  0.00    -0.037 A 
ATOM     14  C   UNL     1       4.306  -0.655  -2.217  0.00  0.00    +0.016 A 
ATOM     15  C   UNL     1       3.512   0.132  -3.043  0.00  0.00    +0.018 A 
ATOM     16  C   UNL     1       6.273  -2.170  -1.851  0.00  0.00    +0.045 C 
ENDBRANCH   8  14
ENDBRANCH   2   8
ENDBRANCH   1   5
BRANCH   1  17
ATOM     17  S   UNL     1      -2.122   1.942   1.442  0.00  0.00    +0.092 S 
ATOM     18  O   UNL     1      -3.254   2.787   1.288  0.00  0.00    -0.148 OA
ATOM     19  O   UNL     1      -2.240   0.552   1.710  0.00  0.00    -0.148 OA
BRANCH  17  20
ATOM     20  C   UNL     1      -1.157   2.626   2.748  0.00  0.00    +0.112 A 
ATOM     21  C   UNL     1      -0.228   1.841   3.406  0.00  0.00    +0.029 A 
ATOM     22  C   UNL     1       0.532   2.379   4.427  0.00  0.00    +0.004 A 
ATOM     23  C   UNL     1       0.356   3.699   4.798  0.00  0.00    +0.028 A 
ATOM     24  C   UNL     1      -0.576   4.483   4.144  0.00  0.00    +0.107 A 
ATOM     25  C   UNL     1      -1.333   3.946   3.119  0.00  0.00    +0.057 A 
BRANCH  24  26
ATOM     26  S   UNL     1      -0.800   6.165   4.617  0.00  0.00    +0.056 S 
ATOM     27  O   UNL     1       0.411   6.578   5.236  0.00  0.00    -0.153 OA
ATOM     28  O   UNL     1      -1.347   6.835   3.489  0.00  0.00    -0.153 OA
BRANCH  26  29
ATOM     29  N   UNL     1      -1.965   6.191   5.794  0.00  0.00    -0.204 NA
ATOM     30  H   UNL     1      -2.136   7.229   6.118  0.00  0.00    +0.144 HD
ATOM     31  H   UNL     1      -1.633   5.589   6.652  0.00  0.00    +0.144 HD
ENDBRANCH  26  29
ENDBRANCH  24  26
ENDBRANCH  17  20
ENDBRANCH   1  17
TORSDOF 7
