REMARK  Name = ZINC15162355
REMARK  6 active torsions:
REMARK  status: ('A' for Active; 'I' for Inactive)
REMARK    1  A    between atoms: C_3  and  N_19
REMARK    2  A    between atoms: C_6  and  N_7
REMARK    3  A    between atoms: C_8  and  C_10
REMARK    4  A    between atoms: C_10  and  C_11
REMARK    5  A    between atoms: C_20  and  C_22
REMARK    6  A    between atoms: C_22  and  C_23
REMARK                            x       y       z     vdW  Elec       q    Type
REMARK                         _______ _______ _______ _____ _____    ______ ____
ROOT
ATOM      1  C   UNL     1      -0.061   1.428   0.356  0.00  0.00    +0.025 A 
ATOM      2  C   UNL     1      -0.080   0.048   0.375  0.00  0.00    +0.025 A 
ATOM      3  C   UNL     1       1.077  -0.667   0.094  0.00  0.00    +0.033 A 
ATOM      4  C   UNL     1       2.253   0.008  -0.207  0.00  0.00    +0.025 A 
ATOM      5  C   UNL     1       2.272   1.388  -0.227  0.00  0.00    +0.025 A 
ATOM      6  C   UNL     1       1.115   2.102   0.055  0.00  0.00    +0.033 A 
ENDROOT
BRANCH   6   7
ATOM      7  N   UNL     1       1.134   3.502   0.035  0.00  0.00    -0.285 N 
ATOM      8  C   UNL     1       0.349   4.199   0.881  0.00  0.00    +0.219 C 
ATOM      9  O   UNL     1      -0.302   3.617   1.723  0.00  0.00    -0.275 OA
ATOM     10  H   UNL     1       1.789   4.034  -0.670  0.00  0.00    +0.155 HD
BRANCH   8  11
ATOM     11  C   UNL     1       0.281   5.701   0.782  0.00  0.00    +0.120 C 
BRANCH  11  12
ATOM     12  C   UNL     1      -0.674   6.240   1.849  0.00  0.00    +0.150 C 
ATOM     13  C   UNL     1      -0.872   7.745   1.710  0.00  0.00    +0.252 C 
ATOM     14  O   UNL     1      -1.365   8.259   0.726  0.00  0.00    -0.272 OA
ATOM     15  N   UNL     1      -0.464   8.433   2.743  0.00  0.00    -0.159 NA
ATOM     16  C   UNL     1       0.077   7.900   3.827  0.00  0.00    +0.145 C 
ATOM     17  S   UNL     1       0.089   6.191   3.519  0.00  0.00    -0.080 S 
ATOM     18  N   UNL     1       0.524   8.549   4.940  0.00  0.00    -0.340 N 
ATOM     19  H   UNL     1       0.955   7.976   5.775  0.00  0.00    +0.144 HD
ATOM     20  H   UNL     1       0.455   9.645   5.003  0.00  0.00    +0.144 HD
ENDBRANCH  11  12
ENDBRANCH   8  11
ENDBRANCH   6   7
BRANCH   3  21
ATOM     21  N   UNL     1       1.058  -2.067   0.114  0.00  0.00    -0.285 N 
ATOM     22  C   UNL     1      -0.033  -2.732  -0.315  0.00  0.00    +0.219 C 
ATOM     23  O   UNL     1      -1.028  -2.120  -0.639  0.00  0.00    -0.275 OA
ATOM     24  H   UNL     1       1.934  -2.624   0.479  0.00  0.00    +0.155 HD
BRANCH  22  25
ATOM     25  C   UNL     1      -0.015  -4.237  -0.392  0.00  0.00    +0.120 C 
BRANCH  25  26
ATOM     26  C   UNL     1      -1.367  -4.737  -0.906  0.00  0.00    +0.150 C 
ATOM     27  C   UNL     1      -1.429  -6.260  -0.918  0.00  0.00    +0.252 C 
ATOM     28  O   UNL     1      -0.693  -6.947  -1.601  0.00  0.00    -0.272 OA
ATOM     29  N   UNL     1      -2.344  -6.763  -0.132  0.00  0.00    -0.159 NA
ATOM     30  C   UNL     1      -3.158  -6.040   0.621  0.00  0.00    +0.145 C 
ATOM     31  S   UNL     1      -2.711  -4.393   0.298  0.00  0.00    -0.080 S 
ATOM     32  N   UNL     1      -4.133  -6.489   1.462  0.00  0.00    -0.340 N 
ATOM     33  H   UNL     1      -4.741  -5.771   2.032  0.00  0.00    +0.144 HD
ATOM     34  H   UNL     1      -4.311  -7.569   1.571  0.00  0.00    +0.144 HD
ENDBRANCH  25  26
ENDBRANCH  22  25
ENDBRANCH   3  21
TORSDOF 6
