REMARK  Name = ZINC13959766
REMARK  3 active torsions:
REMARK  status: ('A' for Active; 'I' for Inactive)
REMARK    1  A    between atoms: C_1  and  C_2
REMARK    2  A    between atoms: C_13  and  C_18
REMARK    3  A    between atoms: C_20  and  C_24
REMARK                            x       y       z     vdW  Elec       q    Type
REMARK                         _______ _______ _______ _____ _____    ______ ____
ROOT
ATOM      1  C   UNL     1       8.819   7.028   0.039  0.00  0.00    +0.008 C 
ATOM      2  C   UNL     1       8.058   5.734   0.332  0.00  0.00    -0.009 C 
ATOM      3  C   UNL     1       6.769   5.698  -0.494  0.00  0.00    +0.008 C 
ATOM      4  C   UNL     1       5.885   4.540  -0.029  0.00  0.00    +0.037 C 
ATOM      5  C   UNL     1       6.710   3.256  -0.043  0.00  0.00    -0.024 A 
ATOM      6  C   UNL     1       8.061   3.304  -0.055  0.00  0.00    -0.004 A 
ATOM      7  S   UNL     1       8.579   1.609  -0.069  0.00  0.00    -0.073 S 
ATOM      8  C   UNL     1       6.979   0.841  -0.058  0.00  0.00    +0.114 A 
ATOM      9  C   UNL     1       6.095   1.932  -0.044  0.00  0.00    +0.055 A 
ATOM     10  C   UNL     1       4.662   1.576  -0.032  0.00  0.00    +0.168 A 
ATOM     11  N   UNL     1       3.554   2.288  -0.024  0.00  0.00    -0.205 NA
ATOM     12  C   UNL     1       2.497   1.467  -0.013  0.00  0.00    +0.200 A 
ATOM     13  N   UNL     1       2.917   0.216  -0.024  0.00  0.00    -0.142 NA
ATOM     14  N   UNL     1       4.319   0.253  -0.036  0.00  0.00    -0.201 N 
ATOM     15  C   UNL     1       5.278  -0.712  -0.050  0.00  0.00    +0.226 A 
ATOM     16  N   UNL     1       6.548  -0.415  -0.061  0.00  0.00    -0.228 NA
ATOM     17  C   UNL     1       8.925   4.527  -0.055  0.00  0.00    +0.046 C 
ENDROOT
BRANCH  12  18
ATOM     18  C   UNL     1       1.081   1.895   0.002  0.00  0.00    +0.105 A 
ATOM     19  C   UNL     1      -0.013   1.076   0.008  0.00  0.00    +0.065 A 
ATOM     20  C   UNL     1      -1.151   1.882   0.017  0.00  0.00    +0.166 A 
ATOM     21  N   UNL     1      -0.775   3.135   0.025  0.00  0.00    -0.169 NA
ATOM     22  N   UNL     1       0.625   3.180   0.012  0.00  0.00    -0.273 N 
ATOM     23  H   UNL     1       1.189   4.006   0.011  0.00  0.00    +0.189 HD
BRANCH  20  24
ATOM     24  C   UNL     1      -2.576   1.391   0.021  0.00  0.00    +0.436 C 
ATOM     25  F   UNL     1      -3.011   1.232   1.341  0.00  0.00    -0.164 F 
ATOM     26  F   UNL     1      -3.392   2.322  -0.631  0.00  0.00    -0.164 F 
ATOM     27  F   UNL     1      -2.648   0.163  -0.645  0.00  0.00    -0.164 F 
ENDBRANCH  20  24
ENDBRANCH  12  18
TORSDOF 2
