REMARK  Name = ZINC04026334
REMARK  4 active torsions:
REMARK  status: ('A' for Active; 'I' for Inactive)
REMARK    1  A    between atoms: C_1  and  C_2
REMARK    2  A    between atoms: C_13  and  O_15
REMARK    3  A    between atoms: C_19  and  C_26
REMARK    4  A    between atoms: C_22  and  O_25
REMARK                            x       y       z     vdW  Elec       q    Type
REMARK                         _______ _______ _______ _____ _____    ______ ____
ROOT
ATOM      1  C   UNL     1       1.851   2.439   1.411  0.00  0.00    +0.014 C 
ATOM      2  C   UNL     1       1.393   2.068  -0.000  0.00  0.00    -0.003 C 
ATOM      3  C   UNL     1      -0.095   1.818  -0.039  0.00  0.00    +0.010 C 
ATOM      4  C   UNL     1      -0.374   0.306   0.042  0.00  0.00    +0.005 C 
ATOM      5  C   UNL     1       0.663  -0.358   0.940  0.00  0.00    +0.003 C 
ATOM      6  C   UNL     1       2.029  -0.382   0.272  0.00  0.00    +0.000 C 
ATOM      7  C   UNL     1       2.179   0.875  -0.573  0.00  0.00    +0.001 C 
ATOM      8  C   UNL     1       3.606   1.444  -0.640  0.00  0.00    +0.007 C 
ATOM      9  C   UNL     1       3.383   2.905  -1.118  0.00  0.00    +0.032 C 
ATOM     10  C   UNL     1       1.873   3.198  -0.935  0.00  0.00    +0.121 C 
ATOM     11  C   UNL     1       2.151  -1.575  -0.683  0.00  0.00    +0.031 C 
ATOM     12  C   UNL     1       1.628  -2.840  -0.088  0.00  0.00    -0.027 C 
ATOM     13  C   UNL     1       0.759  -2.886   0.874  0.00  0.00    -0.065 C 
ATOM     14  C   UNL     1       0.213  -1.664   1.543  0.00  0.00    -0.008 C 
ATOM     15  C   UNL     1      -1.311  -1.745   1.614  0.00  0.00    +0.014 C 
ATOM     16  C   UNL     1      -1.758  -3.075   2.215  0.00  0.00    +0.032 C 
ATOM     17  C   UNL     1      -1.248  -4.241   1.368  0.00  0.00    +0.119 C 
ATOM     18  C   UNL     1       0.283  -4.244   1.361  0.00  0.00    +0.062 C 
ATOM     19  C   UNL     1       0.741  -1.666   2.989  0.00  0.00    +0.016 C 
ENDROOT
BRANCH  10  20
ATOM     20  O   UNL     1       1.678   4.461  -0.304  0.00  0.00    -0.391 OA
ATOM     21  H   UNL     1       1.959   5.216  -0.838  0.00  0.00    +0.210 HD
ENDBRANCH  10  20
BRANCH  17  22
ATOM     22  O   UNL     1      -1.725  -5.472   1.916  0.00  0.00    -0.391 OA
ATOM     23  H   UNL     1      -1.444  -6.256   1.425  0.00  0.00    +0.210 HD
ENDBRANCH  17  22
TORSDOF 2
