REMARK  Name = ZINC39325067
REMARK  8 active torsions:
REMARK  status: ('A' for Active; 'I' for Inactive)
REMARK    1  A    between atoms: C_1  and  C_2
REMARK    2  A    between atoms: C_4  and  C_36
REMARK    3  A    between atoms: C_7  and  C_14
REMARK    4  A    between atoms: C_14  and  N_15
REMARK    5  A    between atoms: N_15  and  C_16
REMARK    6  A    between atoms: N_15  and  S_26
REMARK    7  A    between atoms: C_16  and  C_17
REMARK    8  A    between atoms: S_26  and  C_29
REMARK                            x       y       z     vdW  Elec       q    Type
REMARK                         _______ _______ _______ _____ _____    ______ ____
ROOT
ATOM      1  N   UNL     1       1.324  -6.482   2.602  0.00  0.00    -0.171 NA
ENDROOT
BRANCH   1   2
ATOM      2  S   UNL     1       2.077  -5.776   3.898  0.00  0.00    +0.061 S 
ATOM      3  O   UNL     1       2.653  -6.830   4.656  0.00  0.00    -0.153 OA
ATOM      4  O   UNL     1       2.847  -4.699   3.383  0.00  0.00    -0.153 OA
BRANCH   2   5
ATOM      5  C   UNL     1       0.820  -5.061   4.904  0.00  0.00    +0.106 A 
ATOM      6  C   UNL     1       0.503  -3.722   4.767  0.00  0.00    +0.030 A 
ATOM      7  C   UNL     1      -0.483  -3.160   5.556  0.00  0.00    +0.022 A 
ATOM      8  C   UNL     1      -1.153  -3.938   6.483  0.00  0.00    +0.041 A 
ATOM      9  C   UNL     1      -0.835  -5.278   6.620  0.00  0.00    +0.022 A 
ATOM     10  C   UNL     1       0.147  -5.840   5.827  0.00  0.00    +0.030 A 
ATOM     11 CL   UNL     1      -2.391  -3.233   7.475  0.00  0.00    -0.084 Cl
ENDBRANCH   2   5
ENDBRANCH   1   2
BRANCH   1  12
ATOM     12  C   UNL     1       1.218  -5.758   1.333  0.00  0.00    +0.126 C 
BRANCH  12  19
ATOM     13  C   UNL     1      -3.087   0.161  -0.293  0.00  0.00    +0.044 C 
ATOM     14  C   UNL     1      -2.355  -1.157  -0.286  0.00  0.00    -0.048 A 
ATOM     15  C   UNL     1      -1.775  -1.607  -1.472  0.00  0.00    +0.007 A 
ATOM     16  C   UNL     1      -1.102  -2.786  -1.527  0.00  0.00    -0.042 A 
ATOM     17  C   UNL     1      -0.990  -3.592  -0.311  0.00  0.00    -0.004 A 
ATOM     18  C   UNL     1      -0.324  -4.782  -0.319  0.00  0.00    -0.003 C 
ATOM     19  C   UNL     1      -0.257  -5.550   0.986  0.00  0.00    +0.114 C 
ATOM     20  C   UNL     1      -0.934  -4.934   2.190  0.00  0.00    +0.225 C 
ATOM     21  O   UNL     1      -0.910  -5.507   3.263  0.00  0.00    -0.275 OA
ATOM     22  N   UNL     1      -1.550  -3.770   2.073  0.00  0.00    -0.284 N 
ATOM     23  C   UNL     1      -1.612  -3.091   0.927  0.00  0.00    +0.041 A 
ATOM     24  C   UNL     1      -2.281  -1.855   0.877  0.00  0.00    +0.027 A 
ATOM     25  C   UNL     1      -0.484  -3.256  -2.819  0.00  0.00    +0.044 C 
ATOM     26  H   UNL     1      -1.978  -3.392   2.857  0.00  0.00    +0.155 HD
ENDBRANCH  12  19
ENDBRANCH   1  12
BRANCH   1  27
ATOM     27  C   UNL     1       0.765  -7.830   2.725  0.00  0.00    +0.144 C 
BRANCH  27  28
ATOM     28  C   UNL     1       1.770  -8.838   2.232  0.00  0.00    -0.028 A 
ATOM     29  C   UNL     1       1.780  -9.208   0.900  0.00  0.00    +0.009 A 
ATOM     30  C   UNL     1       2.701 -10.132   0.443  0.00  0.00    +0.050 A 
ATOM     31  C   UNL     1       3.616 -10.691   1.320  0.00  0.00    +0.166 A 
ATOM     32  C   UNL     1       3.606 -10.319   2.662  0.00  0.00    +0.167 A 
ATOM     33  C   UNL     1       2.684  -9.387   3.112  0.00  0.00    +0.054 A 
ATOM     34  O   UNL     1       4.594 -11.002   3.311  0.00  0.00    -0.453 OA
ATOM     35  C   UNL     1       4.940 -12.096   2.442  0.00  0.00    +0.466 C 
ATOM     36  O   UNL     1       4.610 -11.607   1.129  0.00  0.00    -0.453 OA
ENDBRANCH  27  28
ENDBRANCH   1  27
TORSDOF 6
