REMARK  Name = ZINC13733916
REMARK  18 active torsions:
REMARK  status: ('A' for Active; 'I' for Inactive)
REMARK    1  A    between atoms: C_1  and  C_2
REMARK    2  A    between atoms: C_2  and  C_3
REMARK    3  A    between atoms: C_3  and  C_4
REMARK    4  A    between atoms: C_4  and  N_5
REMARK    5  A    between atoms: N_5  and  C_6
REMARK    6  A    between atoms: N_5  and  C_10
REMARK    7  A    between atoms: C_6  and  C_7
REMARK    8  A    between atoms: C_7  and  C_8
REMARK    9  A    between atoms: C_8  and  C_9
REMARK   10  A    between atoms: C_10  and  C_11
REMARK   11  A    between atoms: C_11  and  C_12
REMARK   12  A    between atoms: C_12  and  N_13
REMARK   13  A    between atoms: N_13  and  C_14
REMARK   14  A    between atoms: C_14  and  C_15
REMARK   15  A    between atoms: C_19  and  O_21
REMARK   16  A    between atoms: O_21  and  C_22
REMARK   17  A    between atoms: C_22  and  C_23
REMARK   18  A    between atoms: C_26  and  C_29
REMARK                            x       y       z     vdW  Elec       q    Type
REMARK                         _______ _______ _______ _____ _____    ______ ____
ROOT
ATOM      1  C   UNL     1      -2.292  -7.427  -3.394  0.00  0.00    +0.116 C 
ENDROOT
BRANCH   1   2
ATOM      2  C   UNL     1      -3.776  -7.673  -3.489  0.00  0.00    -0.030 A 
ATOM      3  C   UNL     1      -4.505  -7.952  -2.348  0.00  0.00    +0.005 A 
ATOM      4  C   UNL     1      -5.866  -8.178  -2.432  0.00  0.00    +0.004 A 
ATOM      5  C   UNL     1      -6.502  -8.125  -3.657  0.00  0.00    +0.045 A 
ATOM      6  C   UNL     1      -5.774  -7.844  -4.803  0.00  0.00    +0.121 A 
ATOM      7  C   UNL     1      -4.408  -7.612  -4.716  0.00  0.00    +0.050 A 
BRANCH   6   8
ATOM      8  O   UNL     1      -6.397  -7.792  -6.010  0.00  0.00    -0.487 OA
BRANCH   8   9
ATOM      9  C   UNL     1      -7.805  -8.035  -6.024  0.00  0.00    +0.264 C 
BRANCH   9  10
ATOM     10  C   UNL     1      -8.318  -7.935  -7.438  0.00  0.00    -0.010 A 
ATOM     11  C   UNL     1      -8.752  -6.719  -7.931  0.00  0.00    +0.007 A 
ATOM     12  C   UNL     1      -9.222  -6.628  -9.228  0.00  0.00    +0.004 A 
ATOM     13  C   UNL     1      -9.259  -7.752 -10.031  0.00  0.00    -0.050 A 
ATOM     14  C   UNL     1      -8.824  -8.968  -9.537  0.00  0.00    +0.004 A 
ATOM     15  C   UNL     1      -8.350  -9.059  -8.242  0.00  0.00    +0.007 A 
ATOM     16  C   UNL     1      -9.773  -7.653 -11.444  0.00  0.00    +0.044 C 
ENDBRANCH   9  10
ENDBRANCH   8   9
ENDBRANCH   6   8
ENDBRANCH   1   2
BRANCH   1  17
ATOM     17  N   UNL     1      -2.046  -5.996  -3.176  0.00  0.00    -0.312 NA
ATOM     18  H   UNL     1      -2.534  -5.666  -2.357  0.00  0.00    +0.122 HD
BRANCH  17  19
ATOM     19  C   UNL     1      -0.606  -5.719  -3.078  0.00  0.00    +0.079 C 
BRANCH  19  20
ATOM     20  C   UNL     1      -0.390  -4.221  -2.851  0.00  0.00    -0.003 C 
BRANCH  20  21
ATOM     21  C   UNL     1       1.109  -3.932  -2.749  0.00  0.00    -0.078 C 
BRANCH  21  22
ATOM     22  N   UNL     1       1.317  -2.495  -2.531  0.00  0.00    +0.380 N 
ATOM     23  H   UNL     1       0.856  -1.974  -3.261  0.00  0.00    -0.082 HD
BRANCH  22  24
ATOM     24  C   UNL     1       0.758  -2.111  -1.228  0.00  0.00    -0.079 C 
BRANCH  24  25
ATOM     25  C   UNL     1       0.846  -0.593  -1.062  0.00  0.00    -0.019 C 
BRANCH  25  27
ATOM     26  C   UNL     1       0.232   1.339   0.399  0.00  0.00    +0.004 C 
ATOM     27  C   UNL     1       0.144  -0.179   0.234  0.00  0.00    -0.005 C 
ENDBRANCH  25  27
ENDBRANCH  24  25
ENDBRANCH  22  24
BRANCH  22  28
ATOM     28  C   UNL     1       2.756  -2.199  -2.552  0.00  0.00    -0.079 C 
BRANCH  28  29
ATOM     29  C   UNL     1       3.310  -2.463  -3.954  0.00  0.00    -0.019 C 
BRANCH  29  30
ATOM     30  C   UNL     1       4.776  -2.030  -4.013  0.00  0.00    -0.005 C 
ATOM     31  C   UNL     1       5.330  -2.294  -5.414  0.00  0.00    +0.004 C 
ENDBRANCH  29  30
ENDBRANCH  28  29
ENDBRANCH  22  28
ENDBRANCH  21  22
ENDBRANCH  20  21
ENDBRANCH  19  20
ENDBRANCH  17  19
ENDBRANCH   1  17
TORSDOF 15
