REMARK  Name = ZINC19362585
REMARK  4 active torsions:
REMARK  status: ('A' for Active; 'I' for Inactive)
REMARK    1  A    between atoms: C_6  and  C_7
REMARK    2  A    between atoms: C_7  and  N_8
REMARK    3  A    between atoms: N_11  and  C_14
REMARK    4  A    between atoms: N_19  and  C_22
REMARK                            x       y       z     vdW  Elec       q    Type
REMARK                         _______ _______ _______ _____ _____    ______ ____
ROOT
ATOM      1  N   UNL     1      -2.588  -1.169  -0.930  0.00  0.00    +0.384 N 
ATOM      2  C   UNL     1      -1.430  -1.874  -1.496  0.00  0.00    -0.063 C 
ATOM      3  C   UNL     1      -1.610  -2.019  -3.009  0.00  0.00    +0.066 C 
ATOM      4  N   UNL     1      -2.844  -2.770  -3.283  0.00  0.00    -0.295 NA
ATOM      5  C   UNL     1      -4.009  -2.089  -2.701  0.00  0.00    +0.066 C 
ATOM      6  C   UNL     1      -3.809  -1.943  -1.190  0.00  0.00    -0.063 C 
ATOM      7  H   UNL     1      -2.669  -0.259  -1.358  0.00  0.00    -0.081 HD
ENDROOT
BRANCH   4   8
ATOM      8  C   UNL     1      -3.023  -2.980  -4.725  0.00  0.00    +0.153 C 
ATOM      9  C   UNL     1      -4.281  -3.828  -4.998  0.00  0.00    +0.125 C 
ATOM     10  C   UNL     1      -5.158  -2.909  -5.819  0.00  0.00    +0.228 C 
ATOM     11  O   UNL     1      -6.257  -3.186  -6.251  0.00  0.00    -0.275 OA
ATOM     12  N   UNL     1      -4.529  -1.740  -5.994  0.00  0.00    -0.209 N 
ATOM     13  C   UNL     1      -3.317  -1.669  -5.422  0.00  0.00    +0.244 C 
ATOM     14  O   UNL     1      -2.576  -0.710  -5.455  0.00  0.00    -0.273 OA
BRANCH  12  15
ATOM     15  C   UNL     1      -5.089  -0.677  -6.717  0.00  0.00    +0.047 A 
ATOM     16  C   UNL     1      -4.528  -0.286  -7.925  0.00  0.00    +0.044 A 
ATOM     17  C   UNL     1      -5.082   0.762  -8.636  0.00  0.00    +0.044 A 
ATOM     18  C   UNL     1      -6.195   1.421  -8.145  0.00  0.00    +0.040 A 
ATOM     19  C   UNL     1      -6.756   1.034  -6.941  0.00  0.00    +0.044 A 
ATOM     20  C   UNL     1      -6.209  -0.018  -6.229  0.00  0.00    +0.044 A 
ATOM     21 CL   UNL     1      -8.152   1.863  -6.327  0.00  0.00    -0.083 Cl
ATOM     22 CL   UNL     1      -4.380   1.251 -10.147  0.00  0.00    -0.083 Cl
ENDBRANCH  12  15
ENDBRANCH   4   8
BRANCH   1  23
ATOM     23  C   UNL     1      -2.406  -1.014   0.519  0.00  0.00    -0.043 C 
BRANCH  23  29
ATOM     24  C   UNL     1      -1.404   1.248   0.893  0.00  0.00    +0.005 A 
ATOM     25  C   UNL     1      -0.322   2.074   1.136  0.00  0.00    +0.050 A 
ATOM     26  C   UNL     1       0.946   1.534   1.270  0.00  0.00    +0.166 A 
ATOM     27  C   UNL     1       1.128   0.157   1.160  0.00  0.00    +0.166 A 
ATOM     28  C   UNL     1       0.040  -0.664   0.917  0.00  0.00    +0.051 A 
ATOM     29  C   UNL     1      -1.224  -0.118   0.784  0.00  0.00    -0.060 A 
ATOM     30  O   UNL     1       2.453  -0.123   1.329  0.00  0.00    -0.453 OA
ATOM     31  C   UNL     1       3.138   1.129   1.136  0.00  0.00    +0.466 C 
ATOM     32  O   UNL     1       2.158   2.116   1.508  0.00  0.00    -0.453 OA
ENDBRANCH  23  29
ENDBRANCH   1  23
TORSDOF 4
