REMARK  Name = ZINC13723802
REMARK  9 active torsions:
REMARK  status: ('A' for Active; 'I' for Inactive)
REMARK    1  A    between atoms: C_1  and  C_2
REMARK    2  A    between atoms: C_9  and  C_32
REMARK    3  A    between atoms: C_10  and  C_16
REMARK    4  A    between atoms: C_16  and  C_17
REMARK    5  A    between atoms: C_17  and  C_18
REMARK    6  A    between atoms: N_20  and  C_21
REMARK    7  A    between atoms: C_21  and  C_22
REMARK    8  A    between atoms: C_25  and  S_28
REMARK    9  A    between atoms: S_28  and  N_31
REMARK                            x       y       z     vdW  Elec       q    Type
REMARK                         _______ _______ _______ _____ _____    ______ ____
ROOT
ATOM      1  C   UNL     1      -1.416   0.242   2.946  0.00  0.00    +0.100 C 
ENDROOT
BRANCH   1   2
ATOM      2  C   UNL     1      -1.413   0.966   4.267  0.00  0.00    +0.214 C 
ATOM      3  O   UNL     1      -0.362   1.271   4.789  0.00  0.00    -0.276 OA
ATOM      4  N   UNL     1      -2.579   1.274   4.870  0.00  0.00    -0.311 N 
ATOM      5  H   UNL     1      -3.420   1.029   4.452  0.00  0.00    +0.149 HD
BRANCH   4   6
ATOM      6  C   UNL     1      -2.577   1.977   6.154  0.00  0.00    +0.139 C 
BRANCH   6   7
ATOM      7  C   UNL     1      -3.996   2.199   6.609  0.00  0.00    -0.030 A 
ATOM      8  C   UNL     1      -4.665   3.353   6.247  0.00  0.00    +0.007 A 
ATOM      9  C   UNL     1      -5.969   3.555   6.660  0.00  0.00    +0.029 A 
ATOM     10  C   UNL     1      -6.601   2.606   7.442  0.00  0.00    +0.105 A 
ATOM     11  C   UNL     1      -5.930   1.455   7.808  0.00  0.00    +0.029 A 
ATOM     12  C   UNL     1      -4.628   1.251   7.392  0.00  0.00    +0.007 A 
BRANCH  10  13
ATOM     13  S   UNL     1      -8.261   2.865   7.972  0.00  0.00    +0.056 S 
ATOM     14  O   UNL     1      -8.848   3.766   7.043  0.00  0.00    -0.153 OA
ATOM     15  O   UNL     1      -8.808   1.581   8.237  0.00  0.00    -0.153 OA
BRANCH  13  16
ATOM     16  N   UNL     1      -8.194   3.660   9.423  0.00  0.00    -0.204 NA
ATOM     17  H   UNL     1      -7.335   3.888   9.812  0.00  0.00    +0.144 HD
ATOM     18  H   UNL     1      -9.013   3.897   9.885  0.00  0.00    +0.144 HD
ENDBRANCH  13  16
ENDBRANCH  10  13
ENDBRANCH   6   7
ENDBRANCH   4   6
ENDBRANCH   1   2
BRANCH   1  19
ATOM     19  C   UNL     1       0.025   0.017   2.485  0.00  0.00    +0.052 C 
BRANCH  19  29
ATOM     20  C   UNL     1      -0.068   0.922  -5.677  0.00  0.00    +0.047 C 
ATOM     21  C   UNL     1      -0.043  -0.465  -5.087  0.00  0.00    -0.005 A 
ATOM     22  C   UNL     1      -0.035  -1.624  -5.758  0.00  0.00    +0.199 A 
ATOM     23  O   UNL     1      -0.013  -2.659  -4.900  0.00  0.00    -0.463 OA
ATOM     24  C   UNL     1      -0.005  -2.227  -3.622  0.00  0.00    +0.139 A 
ATOM     25  C   UNL     1      -0.024  -0.818  -3.661  0.00  0.00    +0.024 A 
ATOM     26  C   UNL     1      -0.021  -0.081  -2.484  0.00  0.00    +0.023 A 
ATOM     27  C   UNL     1      -0.006  -0.750  -1.260  0.00  0.00    +0.022 A 
ATOM     28  C   UNL     1       0.002  -0.004   0.002  0.00  0.00    -0.030 A 
ATOM     29  C   UNL     1       0.023  -0.707   1.163  0.00  0.00    +0.041 A 
ATOM     30  C   UNL     1       0.041  -2.118   1.129  0.00  0.00    +0.341 A 
ATOM     31  O   UNL     1       0.059  -2.736   2.178  0.00  0.00    -0.245 OA
ATOM     32  O   UNL     1       0.038  -2.796  -0.029  0.00  0.00    -0.422 OA
ATOM     33  C   UNL     1       0.018  -2.160  -1.222  0.00  0.00    +0.143 A 
ATOM     34  C   UNL     1       0.016  -2.884  -2.401  0.00  0.00    +0.093 A 
ATOM     35  C   UNL     1      -0.018   1.503   0.010  0.00  0.00    +0.045 C 
ENDBRANCH  19  29
ENDBRANCH   1  19
TORSDOF 7
