REMARK  Name = ZINC39685771
REMARK  11 active torsions:
REMARK  status: ('A' for Active; 'I' for Inactive)
REMARK    1  A    between atoms: C_1  and  C_2
REMARK    2  A    between atoms: C_2  and  C_3
REMARK    3  A    between atoms: C_2  and  C_4
REMARK    4  A    between atoms: C_4  and  C_6
REMARK    5  A    between atoms: C_4  and  N_13
REMARK    6  A    between atoms: N_8  and  C_9
REMARK    7  A    between atoms: C_9  and  C_10
REMARK    8  A    between atoms: C_9  and  C_11
REMARK    9  A    between atoms: C_9  and  C_12
REMARK   10  A    between atoms: C_14  and  C_16
REMARK   11  A    between atoms: C_27  and  C_29
REMARK                            x       y       z     vdW  Elec       q    Type
REMARK                         _______ _______ _______ _____ _____    ______ ____
ROOT
ATOM      1  C   UNL     1       4.486   1.735   1.617  0.00  0.00    +0.100 C 
ATOM      2  C   UNL     1       4.688   1.751   0.085  0.00  0.00    +0.121 C 
ATOM      3  N   UNL     1       4.369   3.140  -0.320  0.00  0.00    -0.296 N 
ATOM      4  C   UNL     1       4.947   3.980   0.756  0.00  0.00    +0.115 C 
ATOM      5  C   UNL     1       4.661   3.199   2.053  0.00  0.00    -0.004 C 
ATOM      6  C   UNL     1       5.837   3.326   3.017  0.00  0.00    -0.010 C 
ATOM      7  C   UNL     1       5.954   4.780   3.483  0.00  0.00    -0.082 C 
ATOM      8  N   UNL     1       4.708   5.187   4.144  0.00  0.00    +0.379 N 
ATOM      9  C   UNL     1       3.598   5.151   3.184  0.00  0.00    -0.082 C 
ATOM     10  C   UNL     1       3.381   3.712   2.705  0.00  0.00    -0.010 C 
ATOM     11  C   UNL     1       3.703   3.548  -1.419  0.00  0.00    +0.247 C 
ATOM     12  O   UNL     1       3.177   2.731  -2.149  0.00  0.00    -0.270 OA
ATOM     13  H   UNL     1       4.512   4.556   4.906  0.00  0.00    -0.086 HD
ATOM     14  H   UNL     1       4.809   6.124   4.503  0.00  0.00    -0.086 HD
ENDROOT
BRANCH  11  15
ATOM     15  C   UNL     1       3.613   4.989  -1.736  0.00  0.00    +0.037 A 
ATOM     16  C   UNL     1       4.536   5.885  -1.194  0.00  0.00    +0.014 A 
ATOM     17  C   UNL     1       4.446   7.228  -1.493  0.00  0.00    +0.016 A 
ATOM     18  C   UNL     1       3.443   7.689  -2.330  0.00  0.00    +0.018 A 
ATOM     19  C   UNL     1       2.525   6.805  -2.871  0.00  0.00    +0.016 A 
ATOM     20  C   UNL     1       2.607   5.458  -2.583  0.00  0.00    +0.014 A 
ATOM     21 BR   UNL     1       3.327   9.532  -2.735  0.00  0.00    -0.050 Br
ENDBRANCH  11  15
BRANCH   1  23
ATOM     22  N   UNL     1       2.858   0.705   3.168  0.00  0.00    -0.303 N 
ATOM     23  C   UNL     1       3.102   1.247   1.958  0.00  0.00    +0.219 C 
ATOM     24  O   UNL     1       2.208   1.342   1.145  0.00  0.00    -0.275 OA
ATOM     25  H   UNL     1       3.573   0.629   3.818  0.00  0.00    +0.149 HD
BRANCH  22  26
ATOM     26  C   UNL     1       1.512   0.231   3.500  0.00  0.00    +0.161 C 
BRANCH  26  27
ATOM     27  C   UNL     1       1.326   0.254   4.995  0.00  0.00    +0.234 C 
ATOM     28  O   UNL     1       2.229   0.629   5.713  0.00  0.00    -0.274 OA
ATOM     29  N   UNL     1       0.157  -0.143   5.535  0.00  0.00    -0.309 N 
ATOM     30  H   UNL     1      -0.565  -0.444   4.961  0.00  0.00    +0.149 HD
BRANCH  29  31
ATOM     31  C   UNL     1      -0.024  -0.121   6.989  0.00  0.00    +0.026 C 
ATOM     32  C   UNL     1       0.154   1.309   7.503  0.00  0.00    +0.031 C 
ATOM     33  C   UNL     1      -1.429  -0.616   7.336  0.00  0.00    +0.031 C 
ATOM     34  C   UNL     1       1.015  -1.032   7.646  0.00  0.00    +0.031 C 
ENDBRANCH  29  31
ENDBRANCH  26  27
BRANCH  26  36
ATOM     35  C   UNL     1       1.523  -1.223   1.468  0.00  0.00    +0.009 C 
ATOM     36  C   UNL     1       1.334  -1.200   2.986  0.00  0.00    +0.012 C 
ATOM     37  C   UNL     1       2.373  -2.111   3.643  0.00  0.00    +0.009 C 
ENDBRANCH  26  36
ENDBRANCH  22  26
ENDBRANCH   1  23
TORSDOF 6
