REMARK  Name = ZINC35378009
REMARK  11 active torsions:
REMARK  status: ('A' for Active; 'I' for Inactive)
REMARK    1  A    between atoms: C_1  and  C_2
REMARK    2  A    between atoms: C_2  and  C_3
REMARK    3  A    between atoms: N_5  and  C_6
REMARK    4  A    between atoms: C_11  and  C_12
REMARK    5  A    between atoms: C_16  and  S_19
REMARK    6  A    between atoms: S_19  and  C_20
REMARK    7  A    between atoms: C_20  and  C_22
REMARK    8  A    between atoms: C_20  and  C_23
REMARK    9  A    between atoms: N_25  and  C_26
REMARK   10  A    between atoms: C_29  and  C_33
REMARK   11  A    between atoms: C_31  and  C_32
REMARK                            x       y       z     vdW  Elec       q    Type
REMARK                         _______ _______ _______ _____ _____    ______ ____
ROOT
ATOM      1  C   UNL     1       1.172  -4.580   1.573  0.00  0.00    +0.161 A 
ATOM      2  C   UNL     1       1.257  -5.971   1.763  0.00  0.00    +0.300 A 
ATOM      3  O   UNL     1       1.902  -6.485   2.838  0.00  0.00    -0.263 OA
ATOM      4  N   UNL     1       0.691  -6.770   0.867  0.00  0.00    -0.180 NA
ATOM      5  C   UNL     1       0.064  -6.239  -0.177  0.00  0.00    +0.213 A 
ATOM      6  N   UNL     1      -0.004  -4.923  -0.338  0.00  0.00    -0.122 NA
ATOM      7  N   UNL     1       0.526  -4.113   0.511  0.00  0.00    -0.141 NA
ENDROOT
BRANCH   1  13
ATOM      8  C   UNL     1       1.044  -2.585   3.071  0.00  0.00    +0.043 A 
ATOM      9  C   UNL     1       1.629  -1.722   3.987  0.00  0.00    +0.024 A 
ATOM     10  C   UNL     1       2.942  -1.910   4.374  0.00  0.00    +0.002 A 
ATOM     11  C   UNL     1       3.682  -2.958   3.853  0.00  0.00    +0.001 A 
ATOM     12  C   UNL     1       3.114  -3.824   2.941  0.00  0.00    +0.012 A 
ATOM     13  C   UNL     1       1.788  -3.649   2.547  0.00  0.00    +0.029 A 
BRANCH   8  16
ATOM     14  C   UNL     1      -0.782  -1.150   2.564  0.00  0.00    +0.217 C 
ATOM     15  O   UNL     1      -0.106  -0.195   2.884  0.00  0.00    -0.275 OA
ATOM     16  N   UNL     1      -0.283  -2.397   2.679  0.00  0.00    -0.285 N 
ATOM     17  H   UNL     1      -0.846  -3.164   2.489  0.00  0.00    +0.155 HD
BRANCH  14  19
ATOM     18  C   UNL     1      -2.496   0.554   2.010  0.00  0.00    +0.013 C 
ATOM     19  C   UNL     1      -2.179  -0.943   2.039  0.00  0.00    +0.093 C 
ENDBRANCH  14  19
ENDBRANCH   8  16
ENDBRANCH   1  13
BRANCH   5  20
ATOM     20  S   UNL     1      -0.688  -7.298  -1.368  0.00  0.00    -0.072 S 
BRANCH  20  21
ATOM     21  C   UNL     1      -1.404  -6.156  -2.581  0.00  0.00    +0.137 C 
ATOM     22  C   UNL     1      -2.512  -5.336  -1.918  0.00  0.00    +0.029 C 
BRANCH  21  23
ATOM     23  C   UNL     1      -1.980  -6.941  -3.732  0.00  0.00    +0.230 C 
ATOM     24  O   UNL     1      -2.332  -8.089  -3.566  0.00  0.00    -0.274 OA
ATOM     25  N   UNL     1      -2.103  -6.366  -4.945  0.00  0.00    -0.284 N 
ATOM     26  H   UNL     1      -1.899  -5.425  -5.059  0.00  0.00    +0.155 HD
BRANCH  25  27
ATOM     27  C   UNL     1      -2.528  -7.128  -6.039  0.00  0.00    +0.036 A 
ATOM     28  C   UNL     1      -2.334  -8.503  -6.047  0.00  0.00    +0.024 A 
ATOM     29  C   UNL     1      -2.754  -9.252  -7.129  0.00  0.00    +0.005 A 
ATOM     30  C   UNL     1      -3.366  -8.633  -8.204  0.00  0.00    -0.050 A 
ATOM     31  C   UNL     1      -3.560  -7.264  -8.200  0.00  0.00    +0.008 A 
ATOM     32  C   UNL     1      -3.148  -6.511  -7.117  0.00  0.00    -0.029 A 
ATOM     33  C   UNL     1      -3.366  -5.019  -7.110  0.00  0.00    +0.045 C 
ATOM     34  C   UNL     1      -3.822  -9.453  -9.383  0.00  0.00    +0.044 C 
ENDBRANCH  25  27
ENDBRANCH  21  23
ENDBRANCH  20  21
ENDBRANCH   5  20
TORSDOF 7
