REMARK  Name = ZINC45918942
REMARK  4 active torsions:
REMARK  status: ('A' for Active; 'I' for Inactive)
REMARK    1  A    between atoms: C_3  and  O_25
REMARK    2  A    between atoms: C_4  and  C_23
REMARK    3  A    between atoms: C_10  and  C_11
REMARK    4  A    between atoms: C_23  and  O_24
REMARK                            x       y       z     vdW  Elec       q    Type
REMARK                         _______ _______ _______ _____ _____    ______ ____
ROOT
ATOM      1  C   UNL     1      -0.172   1.357  -0.770  0.00  0.00    +0.019 A 
ATOM      2  C   UNL     1       0.970   2.061  -1.034  0.00  0.00    +0.047 A 
ATOM      3  C   UNL     1       2.192   1.400  -1.127  0.00  0.00    +0.126 A 
ATOM      4  C   UNL     1       2.266   0.027  -0.955  0.00  0.00    +0.062 A 
ATOM      5  C   UNL     1       1.115  -0.702  -0.687  0.00  0.00    +0.148 A 
ATOM      6  C   UNL     1      -0.112  -0.025  -0.595  0.00  0.00    +0.068 A 
ATOM      7  C   UNL     1      -1.132  -1.050  -0.307  0.00  0.00    +0.231 C 
ATOM      8  O   UNL     1      -2.330  -0.888  -0.151  0.00  0.00    -0.283 OA
ATOM      9  C   UNL     1      -0.380  -2.312  -0.251  0.00  0.00    +0.176 C 
ATOM     10  C   UNL     1      -0.898  -3.544  -0.010  0.00  0.00    +0.061 C 
ATOM     11  O   UNL     1       0.922  -2.023  -0.482  0.00  0.00    -0.451 OA
ENDROOT
BRANCH  10  12
ATOM     12  C   UNL     1      -0.049  -4.734  -0.136  0.00  0.00    +0.022 A 
ATOM     13  C   UNL     1       1.345  -4.607  -0.148  0.00  0.00    +0.027 A 
ATOM     14  C   UNL     1       2.135  -5.730  -0.268  0.00  0.00    +0.019 A 
ATOM     15  C   UNL     1       1.555  -6.984  -0.379  0.00  0.00    +0.024 A 
ATOM     16  C   UNL     1       0.179  -7.125  -0.368  0.00  0.00    +0.022 A 
ATOM     17  C   UNL     1      -0.631  -6.010  -0.238  0.00  0.00    +0.136 A 
ATOM     18  O   UNL     1      -1.982  -6.136  -0.211  0.00  0.00    -0.465 OA
ATOM     19  C   UNL     1      -2.526  -7.375  -0.674  0.00  0.00    +0.395 C 
ATOM     20  O   UNL     1      -1.798  -8.449  -0.068  0.00  0.00    -0.339 OA
ATOM     21  C   UNL     1      -0.429  -8.499  -0.493  0.00  0.00    +0.202 C 
ATOM     22 BR   UNL     1       4.018  -5.559  -0.282  0.00  0.00    -0.050 Br
ENDBRANCH  10  12
BRANCH   3  23
ATOM     23  O   UNL     1       3.320   2.107  -1.390  0.00  0.00    -0.506 OA
ATOM     24  H   UNL     1       3.776   2.428  -0.600  0.00  0.00    +0.292 HD
ENDBRANCH   3  23
BRANCH   4  25
ATOM     25  C   UNL     1       3.596  -0.674  -1.059  0.00  0.00    +0.198 C 
BRANCH  25  26
ATOM     26  O   UNL     1       4.213  -0.720   0.229  0.00  0.00    -0.390 OA
ATOM     27  H   UNL     1       5.074  -1.159   0.237  0.00  0.00    +0.210 HD
ENDBRANCH  25  26
ENDBRANCH   4  25
TORSDOF 4
