REMARK  Name = ZINC40781418
REMARK  5 active torsions:
REMARK  status: ('A' for Active; 'I' for Inactive)
REMARK    1  A    between atoms: C_5  and  N_7
REMARK    2  A    between atoms: C_9  and  N_25
REMARK    3  A    between atoms: C_10  and  N_14
REMARK    4  A    between atoms: N_14  and  N_15
REMARK    5  A    between atoms: C_16  and  C_18
REMARK                            x       y       z     vdW  Elec       q    Type
REMARK                         _______ _______ _______ _____ _____    ______ ____
ROOT
ATOM      1  N   UNL     1       1.238  -2.079  -0.021  0.00  0.00    -0.297 N 
ATOM      2  C   UNL     1       0.050  -2.793   0.091  0.00  0.00    +0.149 A 
ATOM      3  C   UNL     1       0.068  -4.186   0.194  0.00  0.00    +0.107 A 
ATOM      4  C   UNL     1      -1.152  -4.854   0.305  0.00  0.00    +0.161 A 
ATOM      5  N   UNL     1      -2.278  -4.144   0.308  0.00  0.00    -0.217 NA
ATOM      6  C   UNL     1      -2.251  -2.831   0.208  0.00  0.00    +0.225 A 
ATOM      7  N   UNL     1      -1.121  -2.161   0.107  0.00  0.00    -0.219 NA
ATOM      8  H   UNL     1       2.080  -2.549  -0.116  0.00  0.00    +0.154 HD
ENDROOT
BRANCH   1  13
ATOM      9  C   UNL     1       0.154   1.370   0.646  0.00  0.00    +0.002 A 
ATOM     10  C   UNL     1       1.175   2.086   0.047  0.00  0.00    +0.001 A 
ATOM     11  C   UNL     1       2.216   1.423  -0.575  0.00  0.00    +0.017 A 
ATOM     12  C   UNL     1       2.241   0.041  -0.600  0.00  0.00    +0.039 A 
ATOM     13  C   UNL     1       1.217  -0.681   0.002  0.00  0.00    +0.047 A 
ATOM     14  C   UNL     1       0.172  -0.011   0.625  0.00  0.00    +0.024 A 
ATOM     15 BR   UNL     1       3.665  -0.866  -1.451  0.00  0.00    -0.048 Br
ENDBRANCH   1  13
BRANCH   3  16
ATOM     16  N   UNL     1       1.281  -4.894   0.187  0.00  0.00    -0.353 N 
ATOM     17  H   UNL     1       2.121  -4.416   0.109  0.00  0.00    +0.143 HD
ATOM     18  H   UNL     1       1.278  -5.861   0.259  0.00  0.00    +0.143 HD
ENDBRANCH   3  16
BRANCH   4  19
ATOM     19  N   UNL     1      -1.191  -6.239   0.410  0.00  0.00    -0.247 N 
ATOM     20  H   UNL     1      -0.366  -6.749   0.407  0.00  0.00    +0.172 HD
BRANCH  19  21
ATOM     21  N   UNL     1      -2.422  -6.899   0.521  0.00  0.00    -0.231 N 
ATOM     22  C   UNL     1      -2.459  -8.243   0.623  0.00  0.00    +0.260 C 
ATOM     23  O   UNL     1      -1.425  -8.882   0.619  0.00  0.00    -0.269 OA
ATOM     24  H   UNL     1      -3.247  -6.389   0.524  0.00  0.00    +0.173 HD
BRANCH  22  25
ATOM     25  C   UNL     1      -3.758  -8.939   0.739  0.00  0.00    +0.038 A 
ATOM     26  C   UNL     1      -4.947  -8.208   0.738  0.00  0.00    +0.014 A 
ATOM     27  C   UNL     1      -6.156  -8.863   0.847  0.00  0.00    +0.021 A 
ATOM     28  C   UNL     1      -6.191 -10.244   0.958  0.00  0.00    +0.041 A 
ATOM     29  C   UNL     1      -5.014 -10.974   0.960  0.00  0.00    +0.021 A 
ATOM     30  C   UNL     1      -3.800 -10.331   0.845  0.00  0.00    +0.014 A 
ATOM     31 CL   UNL     1      -7.716 -11.061   1.095  0.00  0.00    -0.084 Cl
ENDBRANCH  22  25
ENDBRANCH  19  21
ENDBRANCH   4  19
TORSDOF 5
