REMARK  Name = ZINC13982500
REMARK  7 active torsions:
REMARK  status: ('A' for Active; 'I' for Inactive)
REMARK    1  A    between atoms: C_1  and  C_2
REMARK    2  A    between atoms: N_4  and  C_5
REMARK    3  A    between atoms: C_5  and  N_7
REMARK    4  A    between atoms: N_7  and  N_8
REMARK    5  A    between atoms: C_9  and  C_11
REMARK    6  A    between atoms: C_11  and  O_12
REMARK    7  A    between atoms: O_12  and  C_13
REMARK                            x       y       z     vdW  Elec       q    Type
REMARK                         _______ _______ _______ _____ _____    ______ ____
ROOT
ATOM      1  C   UNL     1      -0.083  -2.701  -0.011  0.00  0.00    +0.326 C 
ENDROOT
BRANCH   1   3
ATOM      2  N   UNL     1      -0.979  -5.007  -0.014  0.00  0.00    -0.232 N 
ATOM      3  C   UNL     1       0.099  -4.197  -0.020  0.00  0.00    +0.267 C 
ATOM      4  O   UNL     1       1.214  -4.672  -0.033  0.00  0.00    -0.271 OA
ATOM      5  H   UNL     1      -1.871  -4.627  -0.003  0.00  0.00    +0.173 HD
BRANCH   2   6
ATOM      6  N   UNL     1      -0.809  -6.398  -0.022  0.00  0.00    -0.245 N 
ATOM      7  H   UNL     1       0.083  -6.778  -0.033  0.00  0.00    +0.172 HD
BRANCH   6   8
ATOM      8  C   UNL     1      -1.887  -7.208  -0.016  0.00  0.00    +0.153 C 
ATOM      9  S   UNL     1      -1.680  -8.907  -0.027  0.00  0.00    -0.017 S 
BRANCH   8  13
ATOM     10  C   UNL     1      -5.590  -6.899   0.021  0.00  0.00    +0.109 C 
ATOM     11  C   UNL     1      -4.204  -7.490   0.005  0.00  0.00    +0.215 C 
ATOM     12  O   UNL     1      -4.058  -8.693  -0.002  0.00  0.00    -0.276 OA
ATOM     13  N   UNL     1      -3.127  -6.680  -0.001  0.00  0.00    -0.267 N 
ATOM     14  H   UNL     1      -3.244  -5.717   0.005  0.00  0.00    +0.157 HD
ENDBRANCH   8  13
ENDBRANCH   6   8
ENDBRANCH   2   6
ENDBRANCH   1   3
BRANCH   1  15
ATOM     15  O   UNL     1       1.197  -2.066  -0.020  0.00  0.00    -0.482 OA
BRANCH  15  16
ATOM     16  C   UNL     1       1.211  -0.706  -0.013  0.00  0.00    +0.136 A 
ATOM     17  C   UNL     1       0.002  -0.004   0.002  0.00  0.00    +0.047 A 
ATOM     18  C   UNL     1      -0.016   1.356   0.009  0.00  0.00    +0.012 A 
ATOM     19  C   UNL     1       1.195   2.070   0.002  0.00  0.00    -0.016 A 
ATOM     20  C   UNL     1       1.211   3.475   0.010  0.00  0.00    +0.023 A 
ATOM     21  C   UNL     1       2.402   4.135   0.002  0.00  0.00    +0.018 A 
ATOM     22  C   UNL     1       3.610   3.437  -0.013  0.00  0.00    +0.016 A 
ATOM     23  C   UNL     1       3.632   2.076  -0.021  0.00  0.00    +0.011 A 
ATOM     24  C   UNL     1       2.422   1.361  -0.014  0.00  0.00    -0.000 A 
ATOM     25  C   UNL     1       2.406  -0.044  -0.021  0.00  0.00    +0.067 A 
ATOM     26 BR   UNL     1       4.030  -1.014  -0.043  0.00  0.00    -0.046 Br
ATOM     27 BR   UNL     1       2.420   6.026   0.013  0.00  0.00    -0.050 Br
ENDBRANCH  15  16
ENDBRANCH   1  15
TORSDOF 6
