REMARK  Name = ZINC09242862
REMARK  3 active torsions:
REMARK  status: ('A' for Active; 'I' for Inactive)
REMARK    1  A    between atoms: C_1  and  C_2
REMARK    2  A    between atoms: C_2  and  N_4
REMARK    3  A    between atoms: N_6  and  C_17
REMARK                            x       y       z     vdW  Elec       q    Type
REMARK                         _______ _______ _______ _____ _____    ______ ____
ROOT
ATOM      1  N   UNL     1       0.000  -0.663  -1.154  0.00  0.00    -0.159 NA
ATOM      2  C   UNL     1       0.018  -1.991  -1.161  0.00  0.00    +0.154 C 
ATOM      3  N   UNL     1       0.025  -2.836  -2.268  0.00  0.00    -0.275 N 
ATOM      4  C   UNL     1      -0.208  -4.215  -1.972  0.00  0.00    +0.116 C 
ATOM      5  C   UNL     1       0.004  -5.347  -2.964  0.00  0.00    +0.190 C 
ATOM      6  S   UNL     1      -0.066  -6.801  -1.818  0.00  0.00    -0.028 S 
ATOM      7  O   UNL     1       1.152  -7.527  -1.916  0.00  0.00    -0.174 OA
ATOM      8  O   UNL     1      -1.301  -7.478  -2.002  0.00  0.00    -0.174 OA
ATOM      9  C   UNL     1      -0.103  -5.897  -0.199  0.00  0.00    +0.182 C 
ATOM     10  C   UNL     1       0.582  -4.592  -0.660  0.00  0.00    +0.097 C 
ATOM     11  S   UNL     1       0.047  -3.098   0.257  0.00  0.00    -0.086 S 
ENDROOT
BRANCH   3  12
ATOM     12  C   UNL     1       0.242  -2.371  -3.570  0.00  0.00    +0.054 A 
ATOM     13  C   UNL     1       1.531  -2.315  -4.083  0.00  0.00    +0.026 A 
ATOM     14  C   UNL     1       1.743  -1.856  -5.368  0.00  0.00    +0.017 A 
ATOM     15  C   UNL     1       0.672  -1.451  -6.145  0.00  0.00    +0.019 A 
ATOM     16  C   UNL     1      -0.614  -1.505  -5.638  0.00  0.00    +0.037 A 
ATOM     17  C   UNL     1      -0.833  -1.969  -4.354  0.00  0.00    +0.063 A 
ATOM     18 CL   UNL     1      -2.447  -2.044  -3.720  0.00  0.00    -0.082 Cl
ATOM     19 BR   UNL     1       0.967  -0.823  -7.904  0.00  0.00    -0.050 Br
ENDBRANCH   3  12
BRANCH   1  21
ATOM     20  C   UNL     1      -0.018   1.503   0.010  0.00  0.00    +0.111 C 
ATOM     21  C   UNL     1       0.002  -0.004   0.002  0.00  0.00    +0.235 C 
ATOM     22  O   UNL     1       0.020  -0.618   1.051  0.00  0.00    -0.274 OA
ENDBRANCH   1  21
TORSDOF 2
