REMARK  Name = ZINC03011143
REMARK  6 active torsions:
REMARK  status: ('A' for Active; 'I' for Inactive)
REMARK    1  A    between atoms: C_1  and  C_2
REMARK    2  A    between atoms: C_5  and  N_9
REMARK    3  A    between atoms: C_7  and  C_8
REMARK    4  A    between atoms: C_10  and  C_12
REMARK    5  A    between atoms: C_17  and  C_32
REMARK    6  A    between atoms: C_20  and  C_23
REMARK                            x       y       z     vdW  Elec       q    Type
REMARK                         _______ _______ _______ _____ _____    ______ ____
ROOT
ATOM      1  C   UNL     1      -0.132  -6.312  -1.187  0.00  0.00    +0.149 A 
ATOM      2  C   UNL     1      -0.234  -7.136  -2.331  0.00  0.00    +0.078 A 
ATOM      3  C   UNL     1      -0.296  -8.414  -1.907  0.00  0.00    +0.119 A 
ATOM      4  N   UNL     1      -0.233  -8.414  -0.542  0.00  0.00    -0.238 N 
ATOM      5  N   UNL     1      -0.128  -7.090  -0.118  0.00  0.00    -0.164 NA
ATOM      6  C   UNL     1      -0.269  -9.630   0.274  0.00  0.00    +0.215 C 
ATOM      7  C   UNL     1       0.101 -10.829  -0.607  0.00  0.00    +0.063 C 
ATOM      8  C   UNL     1      -0.737 -10.812  -1.890  0.00  0.00    +0.104 C 
ATOM      9  N   UNL     1      -0.405  -9.592  -2.652  0.00  0.00    -0.322 N 
ATOM     10  H   UNL     1      -0.271  -9.607  -3.612  0.00  0.00    +0.148 HD
ENDROOT
BRANCH   8  11
ATOM     11  C   UNL     1      -0.421 -12.032  -2.717  0.00  0.00    -0.024 A 
ATOM     12  C   UNL     1       0.719 -12.059  -3.499  0.00  0.00    +0.009 A 
ATOM     13  C   UNL     1       1.014 -13.175  -4.259  0.00  0.00    +0.050 A 
ATOM     14  C   UNL     1       0.165 -14.270  -4.240  0.00  0.00    +0.166 A 
ATOM     15  C   UNL     1      -0.983 -14.243  -3.453  0.00  0.00    +0.167 A 
ATOM     16  C   UNL     1      -1.269 -13.123  -2.689  0.00  0.00    +0.055 A 
ATOM     17  O   UNL     1      -1.644 -15.428  -3.604  0.00  0.00    -0.453 OA
ATOM     18  C   UNL     1      -1.106 -16.017  -4.803  0.00  0.00    +0.466 C 
ATOM     19  O   UNL     1       0.224 -15.472  -4.885  0.00  0.00    -0.453 OA
ENDBRANCH   8  11
BRANCH   1  21
ATOM     20  N   UNL     1       0.059  -4.169  -0.021  0.00  0.00    -0.280 N 
ATOM     21  C   UNL     1      -0.040  -4.838  -1.187  0.00  0.00    +0.268 C 
ATOM     22  O   UNL     1      -0.054  -4.228  -2.238  0.00  0.00    -0.268 OA
ATOM     23  H   UNL     1       0.147  -4.657   0.812  0.00  0.00    +0.155 HD
BRANCH  20  28
ATOM     24  C   UNL     1      -0.039   1.502   0.011  0.00  0.00    +0.044 C 
ATOM     25  C   UNL     1      -0.013  -0.004   0.003  0.00  0.00    -0.047 A 
ATOM     26  C   UNL     1       0.749  -0.687   0.934  0.00  0.00    +0.005 A 
ATOM     27  C   UNL     1       0.775  -2.067   0.929  0.00  0.00    +0.023 A 
ATOM     28  C   UNL     1       0.034  -2.771  -0.013  0.00  0.00    +0.034 A 
ATOM     29  C   UNL     1      -0.730  -2.083  -0.946  0.00  0.00    +0.027 A 
ATOM     30  C   UNL     1      -0.755  -0.702  -0.932  0.00  0.00    -0.046 A 
ATOM     31  C   UNL     1      -1.588   0.046  -1.941  0.00  0.00    +0.044 C 
ENDBRANCH  20  28
ENDBRANCH   1  21
BRANCH   6  32
ATOM     32  C   UNL     1       0.735  -9.507   1.422  0.00  0.00    +0.412 C 
ATOM     33  F   UNL     1       0.401  -8.404   2.216  0.00  0.00    -0.168 F 
ATOM     34  F   UNL     1       0.700 -10.669   2.200  0.00  0.00    -0.168 F 
ATOM     35  F   UNL     1       2.021  -9.333   0.901  0.00  0.00    -0.168 F 
ENDBRANCH   6  32
TORSDOF 4
