REMARK  Name = ZINC45772384
REMARK  10 active torsions:
REMARK  status: ('A' for Active; 'I' for Inactive)
REMARK    1  A    between atoms: C_1  and  C_2
REMARK    2  A    between atoms: C_2  and  C_3
REMARK    3  A    between atoms: C_3  and  C_4
REMARK    4  A    between atoms: C_4  and  N_5
REMARK    5  A    between atoms: C_6  and  C_29
REMARK    6  A    between atoms: C_7  and  C_28
REMARK    7  A    between atoms: C_9  and  S_10
REMARK    8  A    between atoms: S_10  and  C_11
REMARK    9  A    between atoms: C_11  and  C_12
REMARK   10  A    between atoms: N_17  and  C_18
REMARK                            x       y       z     vdW  Elec       q    Type
REMARK                         _______ _______ _______ _____ _____    ______ ____
ROOT
ATOM      1  C   UNL     1       6.653  -2.933  -1.147  0.00  0.00    +0.231 C 
ATOM      2  O   UNL     1       6.435  -2.558  -0.016  0.00  0.00    -0.274 OA
ATOM      3  N   UNL     1       7.909  -3.247  -1.523  0.00  0.00    -0.239 N 
ATOM      4  C   UNL     1       8.922  -3.142  -0.641  0.00  0.00    +0.306 C 
ATOM      5  O   UNL     1       8.703  -2.765   0.494  0.00  0.00    -0.252 OA
ATOM      6  N   UNL     1      10.178  -3.455  -1.017  0.00  0.00    -0.294 N 
ATOM      7  H   UNL     1       8.083  -3.547  -2.429  0.00  0.00    +0.159 HD
ATOM      8  H   UNL     1      10.352  -3.756  -1.922  0.00  0.00    +0.151 HD
ENDROOT
BRANCH   6   9
ATOM      9  C   UNL     1      11.279  -3.342  -0.058  0.00  0.00    +0.037 C 
ATOM     10  C   UNL     1      11.388  -1.894   0.425  0.00  0.00    +0.029 C 
ATOM     11  C   UNL     1      12.539  -1.775   1.426  0.00  0.00    -0.008 C 
ATOM     12  C   UNL     1      13.848  -2.187   0.750  0.00  0.00    +0.007 C 
ATOM     13  C   UNL     1      13.739  -3.635   0.268  0.00  0.00    -0.008 C 
ATOM     14  C   UNL     1      12.589  -3.754  -0.734  0.00  0.00    +0.029 C 
ATOM     15  C   UNL     1      13.471  -4.552   1.463  0.00  0.00    +0.007 C 
ATOM     16  C   UNL     1      12.162  -4.140   2.139  0.00  0.00    -0.008 C 
ATOM     17  C   UNL     1      12.271  -2.692   2.621  0.00  0.00    +0.007 C 
ATOM     18  C   UNL     1      11.012  -4.259   1.137  0.00  0.00    +0.029 C 
ENDBRANCH   6   9
BRANCH   1  19
ATOM     19  C   UNL     1       5.520  -3.050  -2.134  0.00  0.00    +0.173 C 
BRANCH  19  20
ATOM     20  S   UNL     1       3.967  -2.562  -1.333  0.00  0.00    -0.080 S 
BRANCH  20  25
ATOM     21  N   UNL     1       1.425  -2.500  -2.470  0.00  0.00    -0.324 N 
ATOM     22  C   UNL     1       0.845  -2.769  -3.690  0.00  0.00    +0.037 A 
ATOM     23  C   UNL     1       1.829  -3.175  -4.510  0.00  0.00    +0.034 A 
ATOM     24  N   UNL     1       2.985  -3.160  -3.825  0.00  0.00    -0.338 N 
ATOM     25  C   UNL     1       2.756  -2.751  -2.599  0.00  0.00    +0.148 A 
ATOM     26  C   UNL     1       1.664  -3.580  -5.953  0.00  0.00    +0.065 C 
ATOM     27  C   UNL     1      -0.615  -2.634  -4.039  0.00  0.00    +0.065 C 
ATOM     28  H   UNL     1       3.852  -3.409  -4.181  0.00  0.00    +0.168 HD
BRANCH  21  29
ATOM     29  C   UNL     1       0.739  -2.027  -1.265  0.00  0.00    +0.124 C 
BRANCH  29  30
ATOM     30  C   UNL     1       0.718  -0.497  -1.257  0.00  0.00    +0.021 C 
BRANCH  30  32
ATOM     31  C   UNL     1      -0.019   1.526   0.010  0.00  0.00    +0.004 C 
ATOM     32  C   UNL     1       0.002  -0.004   0.002  0.00  0.00    -0.002 C 
ENDBRANCH  30  32
ENDBRANCH  29  30
ENDBRANCH  21  29
ENDBRANCH  20  25
ENDBRANCH  19  20
ENDBRANCH   1  19
TORSDOF 7
