REMARK  Name = ZINC15735352
REMARK  7 active torsions:
REMARK  status: ('A' for Active; 'I' for Inactive)
REMARK    1  A    between atoms: C_1  and  C_2
REMARK    2  A    between atoms: C_5  and  C_8
REMARK    3  A    between atoms: N_28  and  C_29
REMARK    4  A    between atoms: C_32  and  O_37
REMARK    5  A    between atoms: C_33  and  O_35
REMARK    6  A    between atoms: O_35  and  C_36
REMARK    7  A    between atoms: O_37  and  C_38
REMARK                            x       y       z     vdW  Elec       q    Type
REMARK                         _______ _______ _______ _____ _____    ______ ____
ROOT
ATOM      1  C   UNL     1       2.518  -6.930  -0.381  0.00  0.00    +0.155 C 
ATOM      2  C   UNL     1       2.170  -8.187   0.367  0.00  0.00    +0.049 A 
ATOM      3  C   UNL     1       2.711  -8.695   1.484  0.00  0.00    +0.025 A 
ATOM      4  C   UNL     1       2.091  -9.940   1.726  0.00  0.00    +0.020 A 
ATOM      5  C   UNL     1       1.178 -10.138   0.747  0.00  0.00    +0.092 A 
ATOM      6  N   UNL     1       1.201  -9.060  -0.070  0.00  0.00    -0.312 N 
ATOM      7  C   UNL     1       0.432  -8.729  -1.179  0.00  0.00    +0.090 A 
ATOM      8  C   UNL     1      -0.116  -7.501  -1.389  0.00  0.00    +0.005 A 
ATOM      9  C   UNL     1      -0.830  -7.321  -2.591  0.00  0.00    -0.030 A 
ATOM     10  C   UNL     1      -0.937  -8.387  -3.428  0.00  0.00    -0.005 A 
ATOM     11  S   UNL     1      -0.039  -9.672  -2.596  0.00  0.00    -0.075 S 
ATOM     12  C   UNL     1      -1.646  -8.449  -4.742  0.00  0.00    +0.043 C 
ATOM     13  C   UNL     1      -2.548  -7.212  -4.862  0.00  0.00    +0.005 C 
ATOM     14  C   UNL     1      -1.739  -5.973  -4.468  0.00  0.00    +0.005 C 
ATOM     15  C   UNL     1      -1.466  -5.984  -2.963  0.00  0.00    +0.036 C 
ATOM     16  C   UNL     1       0.055  -6.406  -0.359  0.00  0.00    +0.148 C 
ATOM     17  N   UNL     1       1.442  -5.915  -0.275  0.00  0.00    -0.268 N 
ATOM     18  C   UNL     1       1.720  -4.606  -0.114  0.00  0.00    +0.308 C 
ATOM     19  O   UNL     1       2.875  -4.233  -0.048  0.00  0.00    -0.252 OA
ATOM     20  N   UNL     1       0.716  -3.710  -0.028  0.00  0.00    -0.269 N 
ATOM     21  H   UNL     1      -0.205  -4.014  -0.007  0.00  0.00    +0.156 HD
ENDROOT
BRANCH   1  26
ATOM     22  C   UNL     1       3.361  -8.205  -5.953  0.00  0.00    +0.044 C 
ATOM     23  C   UNL     1       3.141  -7.872  -4.500  0.00  0.00    -0.050 A 
ATOM     24  C   UNL     1       2.639  -6.635  -4.142  0.00  0.00    +0.004 A 
ATOM     25  C   UNL     1       2.437  -6.330  -2.809  0.00  0.00    +0.006 A 
ATOM     26  C   UNL     1       2.737  -7.263  -1.834  0.00  0.00    -0.021 A 
ATOM     27  C   UNL     1       3.243  -8.498  -2.191  0.00  0.00    +0.006 A 
ATOM     28  C   UNL     1       3.440  -8.805  -3.525  0.00  0.00    +0.004 A 
ENDBRANCH   1  26
BRANCH  20  29
ATOM     29  C   UNL     1       1.004  -2.340   0.033  0.00  0.00    +0.038 A 
ATOM     30  C   UNL     1       2.126  -1.896   0.719  0.00  0.00    +0.027 A 
ATOM     31  C   UNL     1       2.411  -0.545   0.780  0.00  0.00    +0.051 A 
ATOM     32  C   UNL     1       1.577   0.369   0.157  0.00  0.00    +0.162 A 
ATOM     33  C   UNL     1       0.448  -0.072  -0.526  0.00  0.00    +0.163 A 
ATOM     34  C   UNL     1       0.166  -1.427  -0.592  0.00  0.00    +0.072 A 
BRANCH  33  35
ATOM     35  O   UNL     1      -0.375   0.825  -1.133  0.00  0.00    -0.491 OA
ATOM     36  C   UNL     1      -1.515   0.300  -1.816  0.00  0.00    +0.277 C 
ENDBRANCH  33  35
BRANCH  32  37
ATOM     37  O   UNL     1       1.859   1.699   0.219  0.00  0.00    -0.491 OA
ATOM     38  C   UNL     1       3.030   2.081   0.942  0.00  0.00    +0.277 C 
ENDBRANCH  32  37
ENDBRANCH  20  29
TORSDOF 4
