REMARK  Name = ZINC39669171
REMARK  4 active torsions:
REMARK  status: ('A' for Active; 'I' for Inactive)
REMARK    1  A    between atoms: C_10  and  C_12
REMARK    2  A    between atoms: C_12  and  N_13
REMARK    3  A    between atoms: C_14  and  C_16
REMARK    4  A    between atoms: C_27  and  C_29
REMARK                            x       y       z     vdW  Elec       q    Type
REMARK                         _______ _______ _______ _____ _____    ______ ____
ROOT
ATOM      1  C   UNL     1       8.280  -0.954  -1.845  0.00  0.00    +0.100 C 
ATOM      2  C   UNL     1       8.101  -2.443  -2.216  0.00  0.00    +0.121 C 
ATOM      3  N   UNL     1       8.335  -2.495  -3.679  0.00  0.00    -0.296 N 
ATOM      4  C   UNL     1       9.457  -1.554  -3.907  0.00  0.00    +0.115 C 
ATOM      5  C   UNL     1       9.174  -0.375  -2.955  0.00  0.00    -0.004 C 
ATOM      6  C   UNL     1      10.477   0.152  -2.363  0.00  0.00    -0.010 C 
ATOM      7  C   UNL     1      11.323   0.775  -3.477  0.00  0.00    -0.082 C 
ATOM      8  N   UNL     1      10.574   1.867  -4.110  0.00  0.00    +0.379 N 
ATOM      9  C   UNL     1       9.368   1.337  -4.757  0.00  0.00    -0.082 C 
ATOM     10  C   UNL     1       8.439   0.737  -3.698  0.00  0.00    -0.010 C 
ATOM     11  C   UNL     1       7.676  -3.232  -4.595  0.00  0.00    +0.248 C 
ATOM     12  O   UNL     1       6.707  -3.889  -4.264  0.00  0.00    -0.270 OA
ATOM     13  H   UNL     1      10.309   2.542  -3.409  0.00  0.00    -0.086 HD
ATOM     14  H   UNL     1      11.156   2.316  -4.801  0.00  0.00    -0.086 HD
ENDROOT
BRANCH  11  15
ATOM     15  C   UNL     1       8.127  -3.241  -5.992  0.00  0.00    +0.052 A 
ATOM     16  C   UNL     1       9.447  -3.164  -6.303  0.00  0.00    +0.059 A 
ATOM     17  S   UNL     1       9.514  -3.205  -7.978  0.00  0.00    -0.096 S 
ATOM     18  C   UNL     1       7.789  -3.328  -8.358  0.00  0.00    +0.020 A 
ATOM     19  C   UNL     1       7.167  -3.340  -7.095  0.00  0.00    +0.001 A 
ATOM     20  C   UNL     1       5.763  -3.437  -7.067  0.00  0.00    +0.010 A 
ATOM     21  C   UNL     1       5.050  -3.522  -8.236  0.00  0.00    +0.001 A 
ATOM     22  C   UNL     1       5.686  -3.513  -9.469  0.00  0.00    +0.001 A 
ATOM     23  C   UNL     1       7.062  -3.408  -9.527  0.00  0.00    +0.015 A 
ENDBRANCH  11  15
BRANCH   1  25
ATOM     24  N   UNL     1       6.742   0.786  -0.994  0.00  0.00    -0.312 N 
ATOM     25  C   UNL     1       6.946  -0.254  -1.827  0.00  0.00    +0.218 C 
ATOM     26  O   UNL     1       6.056  -0.626  -2.562  0.00  0.00    -0.275 OA
ATOM     27  H   UNL     1       7.453   1.083  -0.406  0.00  0.00    +0.149 HD
BRANCH  24  28
ATOM     28  C   UNL     1       5.444   1.466  -0.976  0.00  0.00    +0.140 C 
BRANCH  28  38
ATOM     29  C   UNL     1       1.693   4.590   0.019  0.00  0.00    +0.000 A 
ATOM     30  C   UNL     1       2.306   4.230  -1.167  0.00  0.00    +0.000 A 
ATOM     31  C   UNL     1       3.527   3.587  -1.143  0.00  0.00    +0.006 A 
ATOM     32  C   UNL     1       4.142   3.299   0.065  0.00  0.00    -0.014 A 
ATOM     33  C   UNL     1       3.529   3.654   1.248  0.00  0.00    -0.040 A 
ATOM     34  C   UNL     1       2.304   4.303   1.223  0.00  0.00    +0.004 A 
ATOM     35  C   UNL     1       4.160   3.346   2.582  0.00  0.00    +0.063 C 
ATOM     36  C   UNL     1       5.644   3.027   2.392  0.00  0.00    +0.165 C 
ATOM     37  O   UNL     1       5.770   2.064   1.339  0.00  0.00    -0.370 OA
ATOM     38  C   UNL     1       5.478   2.601   0.050  0.00  0.00    +0.165 C 
ENDBRANCH  28  38
ENDBRANCH  24  28
ENDBRANCH   1  25
TORSDOF 4
