REMARK  Name = ZINC12772092
REMARK  4 active torsions:
REMARK  status: ('A' for Active; 'I' for Inactive)
REMARK    1  A    between atoms: C_6  and  S_7
REMARK    2  A    between atoms: S_7  and  N_10
REMARK    3  A    between atoms: C_13  and  C_16
REMARK    4  A    between atoms: N_18  and  C_19
REMARK                            x       y       z     vdW  Elec       q    Type
REMARK                         _______ _______ _______ _____ _____    ______ ____
ROOT
ATOM      1  N   UNL     1       4.303  -1.073  -1.632  0.00  0.00    -0.177 NA
ATOM      2  C   UNL     1       3.870  -2.280  -2.349  0.00  0.00    +0.110 C 
ATOM      3  C   UNL     1       3.151  -1.852  -3.638  0.00  0.00    +0.030 C 
ATOM      4  C   UNL     1       4.071  -0.935  -4.447  0.00  0.00    +0.078 C 
ATOM      5  C   UNL     1       4.388   0.321  -3.633  0.00  0.00    +0.030 C 
ATOM      6  C   UNL     1       5.117  -0.080  -2.346  0.00  0.00    +0.110 C 
ENDROOT
BRANCH   4   7
ATOM      7  C   UNL     1       3.385  -0.541  -5.730  0.00  0.00    +0.220 C 
ATOM      8  O   UNL     1       3.171   0.628  -5.969  0.00  0.00    -0.275 OA
ATOM      9  N   UNL     1       3.009  -1.489  -6.612  0.00  0.00    -0.284 N 
ATOM     10  H   UNL     1       3.251  -2.416  -6.460  0.00  0.00    +0.155 HD
BRANCH   9  11
ATOM     11  C   UNL     1       2.270  -1.136  -7.747  0.00  0.00    +0.053 A 
ATOM     12  C   UNL     1       1.493   0.015  -7.740  0.00  0.00    +0.044 A 
ATOM     13  C   UNL     1       0.764   0.361  -8.862  0.00  0.00    +0.043 A 
ATOM     14  C   UNL     1       0.809  -0.438  -9.992  0.00  0.00    +0.021 A 
ATOM     15  C   UNL     1       1.582  -1.584 -10.001  0.00  0.00    +0.023 A 
ATOM     16  C   UNL     1       2.317  -1.932  -8.884  0.00  0.00    +0.062 A 
ATOM     17 CL   UNL     1       3.293  -3.368  -8.899  0.00  0.00    -0.082 Cl
ATOM     18 CL   UNL     1      -0.208   1.799  -8.855  0.00  0.00    -0.083 Cl
ENDBRANCH   9  11
ENDBRANCH   4   7
BRANCH   1  19
ATOM     19  S   UNL     1       3.886  -0.840  -0.046  0.00  0.00    +0.061 S 
ATOM     20  O   UNL     1       4.858   0.038   0.504  0.00  0.00    -0.153 OA
ATOM     21  O   UNL     1       3.626  -2.126   0.499  0.00  0.00    -0.153 OA
BRANCH  19  27
ATOM     22  C   UNL     1       1.163  -0.667  -0.030  0.00  0.00    +0.032 A 
ATOM     23  C   UNL     1      -0.041   0.013  -0.021  0.00  0.00    +0.051 A 
ATOM     24  C   UNL     1      -0.054   1.400  -0.015  0.00  0.00    +0.162 A 
ATOM     25  C   UNL     1       1.145   2.103  -0.015  0.00  0.00    +0.164 A 
ATOM     26  C   UNL     1       2.348   1.415  -0.026  0.00  0.00    +0.078 A 
ATOM     27  C   UNL     1       2.355   0.032  -0.033  0.00  0.00    +0.109 A 
ATOM     28  O   UNL     1       1.154   3.464  -0.001  0.00  0.00    -0.485 OA
ATOM     29  C   UNL     1      -0.065   4.120  -0.368  0.00  0.00    +0.270 C 
ATOM     30  C   UNL     1      -1.222   3.435   0.372  0.00  0.00    +0.270 C 
ATOM     31  O   UNL     1      -1.247   2.056  -0.015  0.00  0.00    -0.485 OA
ENDBRANCH  19  27
ENDBRANCH   1  19
TORSDOF 4
