REMARK  Name = ZINC13782321
REMARK  6 active torsions:
REMARK  status: ('A' for Active; 'I' for Inactive)
REMARK    1  A    between atoms: C_3  and  C_12
REMARK    2  A    between atoms: C_12  and  N_53
REMARK    3  A    between atoms: C_13  and  C_14
REMARK    4  A    between atoms: C_13  and  N_53
REMARK    5  A    between atoms: N_17  and  S_20
REMARK    6  A    between atoms: S_20  and  C_23
REMARK                            x       y       z     vdW  Elec       q    Type
REMARK                         _______ _______ _______ _____ _____    ______ ____
ROOT
ATOM      1  C   UNL     1       4.099  -0.927  -4.444  0.00  0.00    -0.026 C 
ATOM      2  C   UNL     1       4.412   0.331  -3.630  0.00  0.00    +0.019 C 
ATOM      3  C   UNL     1       5.148  -0.066  -2.347  0.00  0.00    +0.109 C 
ATOM      4  N   UNL     1       4.344  -1.064  -1.630  0.00  0.00    -0.177 NA
ATOM      5  C   UNL     1       3.917  -2.274  -2.345  0.00  0.00    +0.109 C 
ATOM      6  C   UNL     1       3.189  -1.850  -3.630  0.00  0.00    +0.019 C 
ENDROOT
BRANCH   4   7
ATOM      7  S   UNL     1       3.933  -0.834  -0.042  0.00  0.00    +0.061 S 
ATOM      8  O   UNL     1       4.902   0.051   0.504  0.00  0.00    -0.153 OA
ATOM      9  O   UNL     1       3.684  -2.122   0.504  0.00  0.00    -0.153 OA
BRANCH   7  10
ATOM     10  C   UNL     1       2.397   0.028  -0.022  0.00  0.00    +0.107 A 
ATOM     11  C   UNL     1       1.208  -0.679  -0.014  0.00  0.00    +0.030 A 
ATOM     12  C   UNL     1       0.002  -0.004   0.002  0.00  0.00    +0.023 A 
ATOM     13  C   UNL     1      -0.017   1.379   0.010  0.00  0.00    +0.059 A 
ATOM     14  C   UNL     1       1.173   2.087   0.002  0.00  0.00    +0.061 A 
ATOM     15  C   UNL     1       2.380   1.410  -0.014  0.00  0.00    +0.050 A 
ATOM     16 CL   UNL     1       1.151   3.823   0.011  0.00  0.00    -0.082 Cl
ATOM     17 CL   UNL     1      -1.531   2.227   0.021  0.00  0.00    -0.082 Cl
ENDBRANCH   7  10
ENDBRANCH   4   7
BRANCH   1  18
ATOM     18  C   UNL     1       3.394  -0.532  -5.743  0.00  0.00    -0.079 C 
BRANCH  18  19
ATOM     19  N   UNL     1       3.204  -1.734  -6.575  0.00  0.00    +0.383 N 
ATOM     20  H   UNL     1       4.120  -2.147  -6.788  0.00  0.00    -0.085 HD
ATOM     21  H   UNL     1       2.632  -2.415  -6.061  0.00  0.00    -0.085 HD
BRANCH  19  22
ATOM     22  C   UNL     1       2.525  -1.383  -7.837  0.00  0.00    -0.026 C 
BRANCH  22  25
ATOM     23  C   UNL     1       0.996  -4.474  -9.362  0.00  0.00    +0.005 A 
ATOM     24  C   UNL     1       1.155  -3.327  -8.596  0.00  0.00    +0.021 A 
ATOM     25  C   UNL     1       2.345  -2.629  -8.665  0.00  0.00    +0.027 A 
ATOM     26  N   UNL     1       3.324  -3.035  -9.450  0.00  0.00    -0.235 NA
ATOM     27  C   UNL     1       3.212  -4.126 -10.191  0.00  0.00    +0.154 A 
ATOM     28  C   UNL     1       2.043  -4.878 -10.171  0.00  0.00    +0.048 A 
ATOM     29  N   UNL     1       4.277  -4.523 -11.004  0.00  0.00    -0.222 N 
ATOM     30  C   UNL     1       5.471  -3.886 -11.127  0.00  0.00    +0.116 A 
ATOM     31  C   UNL     1       6.222  -4.590 -12.005  0.00  0.00    +0.041 A 
ATOM     32  C   UNL     1       5.465  -5.684 -12.440  0.00  0.00    +0.135 A 
ATOM     33  N   UNL     1       4.302  -5.645 -11.842  0.00  0.00    -0.173 NA
ENDBRANCH  22  25
ENDBRANCH  19  22
ENDBRANCH  18  19
ENDBRANCH   1  18
TORSDOF 6
