REMARK  Name = ZINC00755619
REMARK  4 active torsions:
REMARK  status: ('A' for Active; 'I' for Inactive)
REMARK    1  A    between atoms: C_4  and  C_7
REMARK    2  A    between atoms: C_12  and  C_20
REMARK    3  A    between atoms: C_14  and  C_18
REMARK    4  A    between atoms: C_15  and  N_17
REMARK                            x       y       z     vdW  Elec       q    Type
REMARK                         _______ _______ _______ _____ _____    ______ ____
ROOT
ATOM      1  C   UNL     1       5.645  -1.108   3.319  0.00  0.00    +0.034 C 
ATOM      2  C   UNL     1       4.994  -2.102   2.356  0.00  0.00    +0.083 C 
ATOM      3  C   UNL     1       4.509  -1.373   1.124  0.00  0.00    +0.115 C 
ATOM      4  C   UNL     1       4.095  -0.098   1.199  0.00  0.00    +0.049 C 
ATOM      5  C   UNL     1       3.599   0.626  -0.029  0.00  0.00    +0.137 C 
ATOM      6  C   UNL     1       4.069  -0.083  -1.268  0.00  0.00    +0.101 C 
ATOM      7  C   UNL     1       4.494  -1.368  -1.203  0.00  0.00    +0.198 C 
ATOM      8  O   UNL     1       4.502  -2.044  -0.043  0.00  0.00    -0.445 OA
ATOM      9  C   UNL     1       4.111   0.607   2.421  0.00  0.00    +0.164 C 
ATOM     10  O   UNL     1       3.714   1.755   2.453  0.00  0.00    -0.292 OA
ATOM     11  C   UNL     1       4.612  -0.037   3.685  0.00  0.00    +0.088 C 
ENDROOT
BRANCH   1  15
ATOM     12  C   UNL     1       6.909  -3.149   6.852  0.00  0.00    +0.000 A 
ATOM     13  C   UNL     1       7.835  -2.487   6.068  0.00  0.00    +0.000 A 
ATOM     14  C   UNL     1       7.426  -1.826   4.924  0.00  0.00    +0.004 A 
ATOM     15  C   UNL     1       6.091  -1.828   4.565  0.00  0.00    -0.043 A 
ATOM     16  C   UNL     1       5.165  -2.486   5.352  0.00  0.00    +0.004 A 
ATOM     17  C   UNL     1       5.574  -3.150   6.494  0.00  0.00    +0.000 A 
ENDBRANCH   1  15
BRANCH   5  18
ATOM     18  C   UNL     1       2.092   0.661  -0.014  0.00  0.00    +0.119 A 
ATOM     19  C   UNL     1       1.331   1.770  -0.001  0.00  0.00    +0.047 A 
ATOM     20  C   UNL     1      -0.016   1.342   0.009  0.00  0.00    +0.057 A 
ATOM     21  C   UNL     1       0.002  -0.004   0.002  0.00  0.00    +0.170 A 
ATOM     22  O   UNL     1       1.282  -0.411  -0.012  0.00  0.00    -0.452 OA
ATOM     23 BR   UNL     1      -1.516  -1.131   0.010  0.00  0.00    -0.008 Br
ENDBRANCH   5  18
BRANCH   7  24
ATOM     24  N   UNL     1       4.925  -1.992  -2.347  0.00  0.00    -0.328 N 
ATOM     25  H   UNL     1       4.924  -1.513  -3.190  0.00  0.00    +0.145 HD
ATOM     26  H   UNL     1       5.231  -2.912  -2.312  0.00  0.00    +0.145 HD
ENDBRANCH   7  24
BRANCH   6  27
ATOM     27  C   UNL     1       4.069   0.604  -2.525  0.00  0.00    +0.101 C 
ATOM     28  N   UNL     1       4.069   1.149  -3.522  0.00  0.00    -0.191 NA
ENDBRANCH   6  27
TORSDOF 4
