REMARK  Name = ZINC20208120
REMARK  6 active torsions:
REMARK  status: ('A' for Active; 'I' for Inactive)
REMARK    1  A    between atoms: C_1  and  C_2
REMARK    2  A    between atoms: C_4  and  C_16
REMARK    3  A    between atoms: C_5  and  C_15
REMARK    4  A    between atoms: N_6  and  C_7
REMARK    5  A    between atoms: C_26  and  S_28
REMARK    6  A    between atoms: S_28  and  C_31
REMARK                            x       y       z     vdW  Elec       q    Type
REMARK                         _______ _______ _______ _____ _____    ______ ____
ROOT
ATOM      1  C   UNL     1       0.129  -3.413  -1.427  0.00  0.00    +0.026 C 
ATOM      2  C   UNL     1       0.588  -3.322  -2.725  0.00  0.00    +0.081 C 
ATOM      3  C   UNL     1       1.179  -2.065  -3.262  0.00  0.00    +0.153 C 
ATOM      4  N   UNL     1       1.872  -1.229  -2.533  0.00  0.00    -0.283 NA
ATOM      5  N   UNL     1       0.919  -1.865  -4.634  0.00  0.00    -0.150 N 
ATOM      6  C   UNL     1       0.633  -2.978  -5.396  0.00  0.00    +0.182 C 
ATOM      7  N   UNL     1       0.477  -4.210  -4.982  0.00  0.00    -0.152 NA
ATOM      8  C   UNL     1       0.523  -4.472  -3.658  0.00  0.00    +0.273 C 
ATOM      9  O   UNL     1       0.507  -5.619  -3.241  0.00  0.00    -0.268 OA
ATOM     10  S   UNL     1       0.518  -2.291  -7.027  0.00  0.00    -0.015 S 
ATOM     11  C   UNL     1       0.754  -0.577  -6.577  0.00  0.00    +0.235 C 
ATOM     12  N   UNL     1       0.937  -0.652  -5.290  0.00  0.00    -0.145 NA
ATOM     13  H   UNL     1       2.206  -0.407  -2.924  0.00  0.00    +0.188 HD
ENDROOT
BRANCH   1  17
ATOM     14  C   UNL     1      -0.266   1.423  -0.017  0.00  0.00    +0.064 C 
ATOM     15  C   UNL     1      -0.171  -0.082  -0.017  0.00  0.00    +0.022 A 
ATOM     16  C   UNL     1      -0.052  -0.853  -1.111  0.00  0.00    +0.031 A 
ATOM     17  C   UNL     1       0.005  -2.243  -0.635  0.00  0.00    -0.003 A 
ATOM     18  C   UNL     1      -0.087  -2.175   0.746  0.00  0.00    +0.028 A 
ATOM     19  N   UNL     1      -0.187  -0.877   1.095  0.00  0.00    -0.316 N 
ATOM     20  C   UNL     1      -0.074  -3.347   1.692  0.00  0.00    +0.064 C 
BRANCH  19  21
ATOM     21  C   UNL     1      -0.294  -0.408   2.412  0.00  0.00    +0.066 A 
ATOM     22  C   UNL     1      -1.545  -0.257   2.997  0.00  0.00    +0.028 A 
ATOM     23  C   UNL     1      -1.648   0.204   4.294  0.00  0.00    +0.004 A 
ATOM     24  C   UNL     1      -0.509   0.515   5.013  0.00  0.00    +0.021 A 
ATOM     25  C   UNL     1       0.739   0.367   4.434  0.00  0.00    +0.061 A 
ATOM     26  C   UNL     1       0.850  -0.100   3.136  0.00  0.00    +0.083 A 
ATOM     27 CL   UNL     1       2.416  -0.294   2.412  0.00  0.00    -0.080 Cl
ATOM     28 CL   UNL     1       2.168   0.760   5.339  0.00  0.00    -0.082 Cl
ENDBRANCH  19  21
ENDBRANCH   1  17
BRANCH  11  29
ATOM     29  S   UNL     1       0.744   0.850  -7.611  0.00  0.00    +0.019 S 
ATOM     30  O   UNL     1      -0.162   0.531  -8.659  0.00  0.00    -0.168 OA
ATOM     31  O   UNL     1       0.481   1.933  -6.731  0.00  0.00    -0.168 OA
ATOM     32  C   UNL     1       2.434   0.968  -8.260  0.00  0.00    +0.202 C 
ENDBRANCH  11  29
TORSDOF 3
