REMARK  Name = ZINC33938644
REMARK  12 active torsions:
REMARK  status: ('A' for Active; 'I' for Inactive)
REMARK    1  A    between atoms: C_1  and  C_2
REMARK    2  A    between atoms: C_2  and  O_3
REMARK    3  A    between atoms: O_3  and  C_4
REMARK    4  A    between atoms: C_7  and  N_10
REMARK    5  A    between atoms: C_15  and  C_33
REMARK    6  A    between atoms: C_18  and  C_23
REMARK    7  A    between atoms: C_18  and  C_29
REMARK    8  A    between atoms: C_29  and  O_31
REMARK    9  A    between atoms: O_31  and  C_32
REMARK   10  A    between atoms: C_36  and  N_39
REMARK   11  A    between atoms: N_39  and  C_40
REMARK   12  A    between atoms: N_39  and  C_41
REMARK                            x       y       z     vdW  Elec       q    Type
REMARK                         _______ _______ _______ _____ _____    ______ ____
ROOT
ATOM      1  N   UNL     1      -1.502  -6.170  -0.047  0.00  0.00    -0.210 N 
ATOM      2  C   UNL     1      -0.587  -7.194  -0.032  0.00  0.00    +0.229 C 
ATOM      3  O   UNL     1       0.601  -7.121   0.201  0.00  0.00    -0.275 OA
ATOM      4  C   UNL     1      -1.350  -8.374  -0.354  0.00  0.00    +0.078 C 
ATOM      5  C   UNL     1      -1.286  -9.840  -0.224  0.00  0.00    -0.026 C 
ATOM      6  N   UNL     1      -2.673 -10.254  -0.631  0.00  0.00    +0.398 N 
ATOM      7  C   UNL     1      -3.579  -9.085  -0.418  0.00  0.00    +0.070 C 
ATOM      8  C   UNL     1      -2.729  -8.063   0.352  0.00  0.00    +0.090 C 
ATOM      9  C   UNL     1      -2.793  -6.617  -0.055  0.00  0.00    +0.229 C 
ATOM     10  O   UNL     1      -3.786  -5.980  -0.335  0.00  0.00    -0.275 OA
ATOM     11  H   UNL     1      -2.679 -10.518  -1.605  0.00  0.00    -0.083 HD
ATOM     12  H   UNL     1      -2.978 -11.030  -0.064  0.00  0.00    -0.083 HD
ENDROOT
BRANCH   1  16
ATOM     13  C   UNL     1      -0.453  -2.133  -0.051  0.00  0.00    +0.121 A 
ATOM     14  C   UNL     1       0.536  -3.106  -0.041  0.00  0.00    +0.047 A 
ATOM     15  C   UNL     1       0.189  -4.442  -0.040  0.00  0.00    +0.027 A 
ATOM     16  C   UNL     1      -1.149  -4.812  -0.048  0.00  0.00    +0.044 A 
ATOM     17  C   UNL     1      -2.138  -3.838  -0.058  0.00  0.00    +0.027 A 
ATOM     18  C   UNL     1      -1.790  -2.502  -0.054  0.00  0.00    +0.047 A 
BRANCH  13  19
ATOM     19  O   UNL     1      -0.111  -0.817  -0.052  0.00  0.00    -0.492 OA
BRANCH  19  21
ATOM     20  C   UNL     1       1.472   1.009  -0.051  0.00  0.00    +0.048 C 
ATOM     21  C   UNL     1       1.285  -0.509  -0.049  0.00  0.00    +0.225 C 
ENDBRANCH  19  21
ENDBRANCH  13  19
ENDBRANCH   1  16
BRANCH   7  22
ATOM     22  C   UNL     1      -4.034  -8.530  -1.743  0.00  0.00    -0.047 A 
ATOM     23  C   UNL     1      -5.281  -7.944  -1.855  0.00  0.00    +0.003 A 
ATOM     24  C   UNL     1      -5.698  -7.434  -3.070  0.00  0.00    +0.000 A 
ATOM     25  C   UNL     1      -4.869  -7.510  -4.173  0.00  0.00    +0.000 A 
ATOM     26  C   UNL     1      -3.621  -8.095  -4.061  0.00  0.00    +0.000 A 
ATOM     27  C   UNL     1      -3.202  -8.601  -2.845  0.00  0.00    +0.003 A 
ENDBRANCH   7  22
BRANCH   5  28
ATOM     28  C   UNL     1      -0.255 -10.418  -1.160  0.00  0.00    -0.060 A 
ATOM     29  C   UNL     1      -0.606 -10.739  -2.459  0.00  0.00    +0.004 A 
ATOM     30  C   UNL     1       0.336 -11.269  -3.319  0.00  0.00    +0.023 A 
ATOM     31  C   UNL     1       1.636 -11.479  -2.878  0.00  0.00    +0.029 A 
ATOM     32  C   UNL     1       1.985 -11.156  -1.573  0.00  0.00    +0.023 A 
ATOM     33  C   UNL     1       1.040 -10.621  -0.720  0.00  0.00    +0.004 A 
BRANCH  31  34
ATOM     34  N   UNL     1       2.591 -12.016  -3.745  0.00  0.00    -0.336 N 
ATOM     35  C   UNL     1       2.221 -12.357  -5.122  0.00  0.00    +0.129 C 
ATOM     36  C   UNL     1       3.962 -12.237  -3.279  0.00  0.00    +0.129 C 
ENDBRANCH  31  34
ENDBRANCH   5  28
BRANCH   7  37
ATOM     37  C   UNL     1      -4.767  -9.491   0.415  0.00  0.00    +0.301 C 
ATOM     38  O   UNL     1      -5.231  -8.721   1.222  0.00  0.00    -0.252 OA
BRANCH  37  39
ATOM     39  O   UNL     1      -5.311 -10.709   0.259  0.00  0.00    -0.469 OA
ATOM     40  C   UNL     1      -6.436 -11.027   1.082  0.00  0.00    +0.280 C 
ENDBRANCH  37  39
ENDBRANCH   7  37
TORSDOF 8
