REMARK  Name = ZINC03292991
REMARK  9 active torsions:
REMARK  status: ('A' for Active; 'I' for Inactive)
REMARK    1  A    between atoms: C_1  and  C_2
REMARK    2  A    between atoms: C_5  and  N_8
REMARK    3  A    between atoms: C_9  and  C_11
REMARK    4  A    between atoms: C_11  and  N_12
REMARK    5  A    between atoms: N_12  and  C_13
REMARK    6  A    between atoms: C_16  and  C_29
REMARK    7  A    between atoms: C_17  and  C_28
REMARK    8  A    between atoms: C_21  and  C_23
REMARK    9  A    between atoms: C_23  and  N_59
REMARK                            x       y       z     vdW  Elec       q    Type
REMARK                         _______ _______ _______ _____ _____    ______ ____
ROOT
ATOM      1  N   UNL     1       4.204  -4.788   0.251  0.00  0.00    -0.309 N 
ATOM      2  C   UNL     1       3.952  -4.549   1.678  0.00  0.00    +0.131 C 
ATOM      3  C   UNL     1       4.551  -6.108   0.023  0.00  0.00    +0.133 A 
ATOM      4  C   UNL     1       5.860  -6.441  -0.424  0.00  0.00    +0.051 A 
ATOM      5  C   UNL     1       6.992  -5.577  -0.710  0.00  0.00    -0.028 A 
ATOM      6  C   UNL     1       8.144  -6.123  -1.126  0.00  0.00    -0.008 A 
ATOM      7  S   UNL     1       7.786  -7.869  -1.167  0.00  0.00    -0.074 S 
ATOM      8  C   UNL     1       6.099  -7.818  -0.623  0.00  0.00    +0.114 A 
ATOM      9  N   UNL     1       5.161  -8.718  -0.403  0.00  0.00    -0.227 NA
ATOM     10  C   UNL     1       3.965  -8.347   0.012  0.00  0.00    +0.116 A 
ATOM     11  N   UNL     1       3.672  -7.076   0.224  0.00  0.00    -0.219 NA
ATOM     12  C   UNL     1       9.433  -5.426  -1.478  0.00  0.00    +0.052 C 
ATOM     13  C   UNL     1       6.873  -4.084  -0.540  0.00  0.00    +0.045 C 
ENDROOT
BRANCH   1  14
ATOM     14  C   UNL     1       3.042  -4.403  -0.561  0.00  0.00    +0.202 C 
BRANCH  14  16
ATOM     15  N   UNL     1       1.829  -2.328  -1.146  0.00  0.00    -0.284 N 
ATOM     16  C   UNL     1       2.843  -2.911  -0.477  0.00  0.00    +0.235 C 
ATOM     17  O   UNL     1       3.595  -2.236   0.193  0.00  0.00    -0.274 OA
ATOM     18  H   UNL     1       1.183  -2.874  -1.621  0.00  0.00    +0.155 HD
BRANCH  15  23
ATOM     19  C   UNL     1       1.340   3.324  -1.190  0.00  0.00    +0.044 C 
ATOM     20  C   UNL     1       1.470   1.823  -1.178  0.00  0.00    -0.050 A 
ATOM     21  C   UNL     1       2.723   1.239  -1.141  0.00  0.00    +0.005 A 
ATOM     22  C   UNL     1       2.845  -0.137  -1.131  0.00  0.00    +0.023 A 
ATOM     23  C   UNL     1       1.709  -0.934  -1.157  0.00  0.00    +0.033 A 
ATOM     24  C   UNL     1       0.452  -0.344  -1.194  0.00  0.00    +0.023 A 
ATOM     25  C   UNL     1       0.336   1.032  -1.205  0.00  0.00    +0.005 A 
ENDBRANCH  15  23
ENDBRANCH  14  16
ENDBRANCH   1  14
BRANCH  10  26
ATOM     26  C   UNL     1       2.912  -9.396   0.256  0.00  0.00    -0.001 C 
BRANCH  26  31
ATOM     27  C   UNL     1       2.944  -8.704   2.590  0.00  0.00    -0.078 C 
ATOM     28  C   UNL     1       2.508  -9.356   3.926  0.00  0.00    -0.020 C 
ATOM     29  C   UNL     1       1.491 -10.429   3.472  0.00  0.00    -0.020 C 
ATOM     30  C   UNL     1       1.828 -10.702   1.994  0.00  0.00    -0.078 C 
ATOM     31  N   UNL     1       2.979  -9.857   1.675  0.00  0.00    +0.384 N 
ATOM     32  H   UNL     1       3.848 -10.385   1.817  0.00  0.00    -0.081 HD
ENDBRANCH  26  31
ENDBRANCH  10  26
TORSDOF 5
