REMARK  Name = ZINC03491382
REMARK  7 active torsions:
REMARK  status: ('A' for Active; 'I' for Inactive)
REMARK    1  A    between atoms: C_3  and  N_28
REMARK    2  A    between atoms: C_6  and  C_7
REMARK    3  A    between atoms: C_7  and  C_9
REMARK    4  A    between atoms: C_9  and  C_10
REMARK    5  A    between atoms: C_10  and  N_49
REMARK    6  A    between atoms: N_13  and  S_16
REMARK    7  A    between atoms: S_16  and  C_19
REMARK                            x       y       z     vdW  Elec       q    Type
REMARK                         _______ _______ _______ _____ _____    ______ ____
ROOT
ATOM      1  C   UNL     1       4.331  -4.854  -1.315  0.00  0.00    -0.061 C 
ATOM      2  C   UNL     1       5.736  -5.458  -1.220  0.00  0.00    +0.091 C 
ATOM      3  N   UNL     1       5.612  -6.874  -0.841  0.00  0.00    -0.180 NA
ATOM      4  C   UNL     1       4.788  -7.212   0.330  0.00  0.00    +0.091 C 
ATOM      5  C   UNL     1       3.421  -6.539   0.174  0.00  0.00    -0.061 C 
ATOM      6  N   UNL     1       3.626  -5.089  -0.036  0.00  0.00    +0.382 N 
ATOM      7  H   UNL     1       4.198  -4.719   0.732  0.00  0.00    -0.082 HD
ENDROOT
BRANCH   3   8
ATOM      8  S   UNL     1       6.377  -8.057  -1.711  0.00  0.00    +0.064 S 
ATOM      9  O   UNL     1       7.475  -7.434  -2.364  0.00  0.00    -0.153 OA
ATOM     10  O   UNL     1       6.540  -9.164  -0.836  0.00  0.00    -0.153 OA
BRANCH   8  11
ATOM     11  C   UNL     1       5.266  -8.575  -2.977  0.00  0.00    +0.142 A 
ATOM     12  C   UNL     1       4.384  -9.614  -2.741  0.00  0.00    +0.070 A 
ATOM     13  C   UNL     1       3.509 -10.017  -3.733  0.00  0.00    +0.037 A 
ATOM     14  C   UNL     1       3.523  -9.388  -4.965  0.00  0.00    +0.021 A 
ATOM     15  C   UNL     1       4.408  -8.353  -5.203  0.00  0.00    +0.037 A 
ATOM     16  C   UNL     1       5.280  -7.946  -4.209  0.00  0.00    +0.070 A 
ATOM     17 CL   UNL     1       6.391  -6.646  -4.508  0.00  0.00    -0.081 Cl
ATOM     18 BR   UNL     1       2.331  -9.944  -6.324  0.00  0.00    -0.050 Br
ATOM     19 CL   UNL     1       4.372 -10.408  -1.197  0.00  0.00    -0.081 Cl
ENDBRANCH   8  11
ENDBRANCH   3   8
BRANCH   6  20
ATOM     20  C   UNL     1       2.323  -4.391  -0.043  0.00  0.00    -0.071 C 
BRANCH  20  21
ATOM     21  C   UNL     1       2.573  -2.882  -0.038  0.00  0.00    +0.061 C 
BRANCH  21  22
ATOM     22  C   UNL     1       1.254  -2.154  -0.021  0.00  0.00    +0.161 C 
ATOM     23  O   UNL     1       0.216  -2.781  -0.014  0.00  0.00    -0.292 OA
BRANCH  22  29
ATOM     24  C   UNL     1       0.002  -0.004   0.002  0.00  0.00    +0.013 A 
ATOM     25  C   UNL     1      -0.017   1.375   0.010  0.00  0.00    +0.033 A 
ATOM     26  C   UNL     1       1.170   2.087   0.002  0.00  0.00    +0.126 A 
ATOM     27  C   UNL     1       2.384   1.422  -0.013  0.00  0.00    +0.033 A 
ATOM     28  C   UNL     1       2.420   0.043  -0.021  0.00  0.00    +0.013 A 
ATOM     29  C   UNL     1       1.225  -0.683  -0.013  0.00  0.00    +0.017 A 
BRANCH  26  30
ATOM     30  N   UNL     1       1.141   3.566   0.010  0.00  0.00    +0.056 N 
ATOM     31  O   UNL     1       0.075   4.154   0.023  0.00  0.00    -0.126 OA
ATOM     32  O   UNL     1       2.184   4.196   0.003  0.00  0.00    -0.126 OA
ENDBRANCH  26  30
ENDBRANCH  22  29
ENDBRANCH  21  22
ENDBRANCH  20  21
ENDBRANCH   6  20
TORSDOF 7
