REMARK  Name = ZINC63374946
REMARK  12 active torsions:
REMARK  status: ('A' for Active; 'I' for Inactive)
REMARK    1  A    between atoms: C_1  and  C_2
REMARK    2  A    between atoms: C_2  and  C_3
REMARK    3  A    between atoms: C_2  and  C_4
REMARK    4  A    between atoms: C_4  and  N_5
REMARK    5  A    between atoms: C_11  and  C_27
REMARK    6  A    between atoms: C_23  and  C_26
REMARK    7  A    between atoms: C_30  and  O_35
REMARK    8  A    between atoms: C_31  and  O_33
REMARK    9  A    between atoms: O_33  and  C_34
REMARK   10  A    between atoms: O_35  and  C_36
REMARK   11  A    between atoms: C_36  and  C_37
REMARK   12  A    between atoms: C_36  and  C_38
REMARK                            x       y       z     vdW  Elec       q    Type
REMARK                         _______ _______ _______ _____ _____    ______ ____
ROOT
ATOM      1  N   UNL     1      -2.651  -2.442   1.420  0.00  0.00    -0.291 N 
ATOM      2  C   UNL     1      -2.737  -3.006   0.060  0.00  0.00    +0.203 C 
ATOM      3  C   UNL     1      -1.544  -3.911  -0.164  0.00  0.00    +0.234 C 
ATOM      4  O   UNL     1      -0.924  -3.898  -1.207  0.00  0.00    -0.274 OA
ATOM      5  N   UNL     1      -1.196  -4.746   0.870  0.00  0.00    -0.283 N 
ATOM      6  C   UNL     1       0.063  -5.460   0.749  0.00  0.00    +0.121 C 
ATOM      7  C   UNL     1       0.197  -6.629   1.729  0.00  0.00    +0.065 C 
ATOM      8  C   UNL     1      -0.384  -6.149   3.035  0.00  0.00    -0.027 C 
ATOM      9  C   UNL     1       0.127  -6.011   4.249  0.00  0.00    -0.000 A 
ATOM     10  C   UNL     1       1.428  -6.397   4.820  0.00  0.00    +0.010 A 
ATOM     11  C   UNL     1       1.630  -6.075   6.125  0.00  0.00    +0.001 A 
ATOM     12  C   UNL     1       0.680  -5.415   6.911  0.00  0.00    +0.002 A 
ATOM     13  C   UNL     1      -0.547  -5.034   6.473  0.00  0.00    +0.026 A 
ATOM     14  C   UNL     1      -0.880  -5.328   5.119  0.00  0.00    +0.043 A 
ATOM     15  N   UNL     1      -1.979  -5.109   4.457  0.00  0.00    -0.375 N 
ATOM     16  C   UNL     1      -1.828  -5.682   3.120  0.00  0.00    +0.139 C 
ATOM     17  C   UNL     1      -2.115  -4.739   1.995  0.00  0.00    +0.135 C 
ATOM     18  C   UNL     1      -2.357  -3.317   2.428  0.00  0.00    +0.242 C 
ATOM     19  O   UNL     1      -2.298  -2.974   3.590  0.00  0.00    -0.273 OA
ATOM     20  C   UNL     1      -3.457  -5.192   1.418  0.00  0.00    +0.044 C 
ATOM     21  H   UNL     1      -2.763  -4.646   4.792  0.00  0.00    +0.160 HD
ENDROOT
BRANCH   7  22
ATOM     22  C   UNL     1      -0.574  -7.821   1.223  0.00  0.00    -0.035 A 
ATOM     23  C   UNL     1      -1.616  -7.640   0.332  0.00  0.00    +0.008 A 
ATOM     24  C   UNL     1      -2.327  -8.730  -0.135  0.00  0.00    +0.050 A 
ATOM     25  C   UNL     1      -1.995 -10.007   0.289  0.00  0.00    +0.162 A 
ATOM     26  C   UNL     1      -0.946 -10.188   1.185  0.00  0.00    +0.162 A 
ATOM     27  C   UNL     1      -0.235  -9.092   1.646  0.00  0.00    +0.053 A 
BRANCH  26  28
ATOM     28  O   UNL     1      -0.617 -11.440   1.605  0.00  0.00    -0.491 OA
ATOM     29  C   UNL     1       0.471 -11.550   2.525  0.00  0.00    +0.277 C 
ENDBRANCH  26  28
BRANCH  25  30
ATOM     30  O   UNL     1      -2.693 -11.080  -0.169  0.00  0.00    -0.486 OA
BRANCH  30  31
ATOM     31  C   UNL     1      -3.672 -10.834  -1.181  0.00  0.00    +0.167 C 
ATOM     32  C   UNL     1      -3.881 -12.103  -2.009  0.00  0.00    +0.051 C 
ATOM     33  C   UNL     1      -4.994 -10.430  -0.525  0.00  0.00    +0.051 C 
ENDBRANCH  30  31
ENDBRANCH  25  30
ENDBRANCH   7  22
BRANCH   1  34
ATOM     34  C   UNL     1      -2.865  -1.015   1.677  0.00  0.00    +0.111 C 
BRANCH  34  36
ATOM     35  C   UNL     1      -1.773   1.232   1.713  0.00  0.00    +0.009 C 
ATOM     36  C   UNL     1      -1.532  -0.272   1.569  0.00  0.00    +0.000 C 
ATOM     37  C   UNL     1      -0.592  -0.747   2.679  0.00  0.00    +0.009 C 
ENDBRANCH  34  36
ENDBRANCH   1  34
TORSDOF 6
