REMARK  Name = ZINC09561667
REMARK  6 active torsions:
REMARK  status: ('A' for Active; 'I' for Inactive)
REMARK    1  A    between atoms: C_3  and  C_28
REMARK    2  A    between atoms: C_6  and  C_7
REMARK    3  A    between atoms: N_8  and  N_9
REMARK    4  A    between atoms: C_14  and  C_17
REMARK    5  A    between atoms: C_17  and  C_18
REMARK    6  A    between atoms: N_20  and  C_21
REMARK                            x       y       z     vdW  Elec       q    Type
REMARK                         _______ _______ _______ _____ _____    ______ ____
ROOT
ATOM      1  N   UNL     1       0.332   9.265   0.061  0.00  0.00    -0.127 NA
ATOM      2  C   UNL     1      -0.781   9.974   0.071  0.00  0.00    +0.183 C 
ATOM      3  N   UNL     1      -2.079   9.517   0.073  0.00  0.00    -0.263 N 
ATOM      4  C   UNL     1      -3.118  10.335   0.083  0.00  0.00    +0.233 C 
ATOM      5  O   UNL     1      -4.260   9.926   0.086  0.00  0.00    -0.274 OA
ATOM      6  C   UNL     1      -2.791  11.819   0.092  0.00  0.00    +0.149 C 
ATOM      7  S   UNL     1      -0.956  11.751   0.092  0.00  0.00    -0.075 S 
ATOM      8  H   UNL     1      -2.238   8.560   0.068  0.00  0.00    +0.157 HD
ENDROOT
BRANCH   1  10
ATOM      9  C   UNL     1       1.378   7.274   0.043  0.00  0.00    +0.143 C 
ATOM     10  N   UNL     1       0.276   7.976   0.052  0.00  0.00    -0.155 NA
BRANCH   9  16
ATOM     11  C   UNL     1       2.495   5.053   0.022  0.00  0.00    +0.010 A 
ATOM     12  C   UNL     1       2.435   3.690   0.013  0.00  0.00    +0.016 A 
ATOM     13  C   UNL     1       1.193   3.044   0.014  0.00  0.00    +0.063 A 
ATOM     14  C   UNL     1       0.013   3.796   0.018  0.00  0.00    +0.016 A 
ATOM     15  C   UNL     1       0.071   5.159   0.033  0.00  0.00    +0.010 A 
ATOM     16  C   UNL     1       1.314   5.807   0.033  0.00  0.00    -0.005 A 
BRANCH  13  17
ATOM     17  C   UNL     1       1.129   1.572   0.004  0.00  0.00    +0.387 C 
ATOM     18  O   UNL     1       2.154   0.919  -0.005  0.00  0.00    -0.241 OA
ATOM     19  O   UNL     1      -0.066   0.950   0.004  0.00  0.00    -0.241 OA
ENDBRANCH  13  17
ENDBRANCH   9  16
ENDBRANCH   1  10
BRANCH   6  20
ATOM     20  C   UNL     1      -3.316  12.495   1.360  0.00  0.00    +0.120 C 
BRANCH  20  21
ATOM     21  C   UNL     1      -3.080  13.981   1.272  0.00  0.00    +0.219 C 
ATOM     22  O   UNL     1      -2.545  14.453   0.292  0.00  0.00    -0.275 OA
ATOM     23  N   UNL     1      -3.464  14.785   2.283  0.00  0.00    -0.285 N 
ATOM     24  H   UNL     1      -3.952  14.418   3.037  0.00  0.00    +0.155 HD
BRANCH  23  25
ATOM     25  C   UNL     1      -3.159  16.151   2.246  0.00  0.00    +0.033 A 
ATOM     26  C   UNL     1      -2.864  16.830   3.420  0.00  0.00    +0.025 A 
ATOM     27  C   UNL     1      -2.558  18.176   3.380  0.00  0.00    +0.022 A 
ATOM     28  C   UNL     1      -2.556  18.851   2.171  0.00  0.00    +0.041 A 
ATOM     29  C   UNL     1      -2.855  18.177   1.000  0.00  0.00    +0.022 A 
ATOM     30  C   UNL     1      -3.156  16.830   1.034  0.00  0.00    +0.025 A 
ATOM     31 CL   UNL     1      -2.178  20.544   2.125  0.00  0.00    -0.084 Cl
ENDBRANCH  23  25
ENDBRANCH  20  21
ENDBRANCH   6  20
TORSDOF 6
