REMARK  Name = ZINC12149532
REMARK  7 active torsions:
REMARK  status: ('A' for Active; 'I' for Inactive)
REMARK    1  A    between atoms: C_5  and  C_7
REMARK    2  A    between atoms: C_7  and  C_8
REMARK    3  A    between atoms: C_8  and  N_9
REMARK    4  A    between atoms: C_20  and  N_56
REMARK    5  A    between atoms: C_24  and  C_25
REMARK    6  A    between atoms: C_24  and  N_56
REMARK    7  A    between atoms: C_25  and  C_26
REMARK                            x       y       z     vdW  Elec       q    Type
REMARK                         _______ _______ _______ _____ _____    ______ ____
ROOT
ATOM      1  N   UNL     1       0.323  -0.508   4.188  0.00  0.00    -0.298 N 
ATOM      2  C   UNL     1      -0.421   0.103   5.141  0.00  0.00    +0.203 A 
ATOM      3  N   UNL     1      -1.216   1.119   4.887  0.00  0.00    -0.230 NA
ATOM      4  C   UNL     1      -1.276   1.549   3.630  0.00  0.00    +0.116 A 
ATOM      5  C   UNL     1      -0.540   0.979   2.568  0.00  0.00    +0.076 A 
ATOM      6  C   UNL     1       0.316  -0.128   2.888  0.00  0.00    +0.262 A 
ATOM      7  O   UNL     1       0.993  -0.690   2.045  0.00  0.00    -0.267 OA
ATOM      8  C   UNL     1      -0.732   1.580   1.260  0.00  0.00    -0.023 A 
ATOM      9  C   UNL     1      -1.596   2.622   1.189  0.00  0.00    -0.006 A 
ATOM     10  S   UNL     1      -2.189   2.847   2.847  0.00  0.00    -0.073 S 
ATOM     11  C   UNL     1      -1.966   3.413  -0.028  0.00  0.00    +0.027 C 
ATOM     12  C   UNL     1      -0.944   3.112  -1.133  0.00  0.00    -0.067 C 
ATOM     13  C   UNL     1      -0.757   1.595  -1.227  0.00  0.00    -0.011 C 
ATOM     14  C   UNL     1      -0.013   1.086   0.008  0.00  0.00    +0.035 C 
ENDROOT
BRANCH  12  15
ATOM     15  N   UNL     1      -1.445   3.622  -2.424  0.00  0.00    +0.381 N 
ATOM     16  H   UNL     1      -2.467   3.527  -2.452  0.00  0.00    -0.086 HD
ATOM     17  H   UNL     1      -1.029   3.076  -3.188  0.00  0.00    -0.086 HD
BRANCH  15  18
ATOM     18  C   UNL     1      -1.083   5.042  -2.588  0.00  0.00    -0.077 C 
BRANCH  18  19
ATOM     19  C   UNL     1      -1.615   5.542  -3.933  0.00  0.00    +0.017 C 
BRANCH  19  20
ATOM     20  C   UNL     1      -1.250   6.994  -4.108  0.00  0.00    -0.031 A 
ATOM     21  C   UNL     1      -2.107   7.992  -3.671  0.00  0.00    +0.006 A 
ATOM     22  C   UNL     1      -1.728   9.313  -3.849  0.00  0.00    +0.020 A 
ATOM     23  C   UNL     1      -0.521   9.590  -4.463  0.00  0.00    +0.111 A 
ATOM     24  N   UNL     1       0.268   8.615  -4.871  0.00  0.00    -0.263 NA
ATOM     25  C   UNL     1      -0.059   7.347  -4.713  0.00  0.00    +0.114 A 
ENDBRANCH  19  20
ENDBRANCH  18  19
ENDBRANCH  15  18
ENDBRANCH  12  15
BRANCH   1  26
ATOM     26  C   UNL     1       1.174  -1.633   4.582  0.00  0.00    +0.131 C 
BRANCH  26  27
ATOM     27  C   UNL     1       0.385  -2.938   4.458  0.00  0.00    +0.058 C 
BRANCH  27  32
ATOM     28  C   UNL     1       2.756  -5.870   4.274  0.00  0.00    +0.000 A 
ATOM     29  C   UNL     1       2.869  -6.219   5.607  0.00  0.00    +0.001 A 
ATOM     30  C   UNL     1       2.177  -5.507   6.569  0.00  0.00    +0.020 A 
ATOM     31  C   UNL     1       1.373  -4.444   6.197  0.00  0.00    +0.044 A 
ATOM     32  C   UNL     1       1.261  -4.095   4.864  0.00  0.00    -0.027 A 
ATOM     33  C   UNL     1       1.949  -4.812   3.902  0.00  0.00    +0.005 A 
ATOM     34 CL   UNL     1       0.504  -3.550   7.405  0.00  0.00    -0.083 Cl
ENDBRANCH  27  32
ENDBRANCH  26  27
ENDBRANCH   1  26
TORSDOF 7
