REMARK  Name = ZINC16000677
REMARK  5 active torsions:
REMARK  status: ('A' for Active; 'I' for Inactive)
REMARK    1  A    between atoms: C_1  and  C_2
REMARK    2  A    between atoms: C_7  and  C_8
REMARK    3  A    between atoms: N_24  and  C_27
REMARK    4  A    between atoms: C_29  and  N_34
REMARK    5  A    between atoms: C_32  and  C_33
REMARK                            x       y       z     vdW  Elec       q    Type
REMARK                         _______ _______ _______ _____ _____    ______ ____
ROOT
ATOM      1  C   UNL     1      -4.962   1.862   0.057  0.00  0.00    +0.044 C 
ATOM      2  C   UNL     1      -3.518   2.291   0.048  0.00  0.00    -0.046 A 
ATOM      3  C   UNL     1      -3.199   3.637   0.059  0.00  0.00    +0.004 A 
ATOM      4  C   UNL     1      -1.873   4.031   0.049  0.00  0.00    +0.005 A 
ATOM      5  C   UNL     1      -0.869   3.088   0.026  0.00  0.00    -0.027 A 
ATOM      6  C   UNL     1      -1.181   1.730   0.017  0.00  0.00    +0.039 A 
ATOM      7  C   UNL     1      -2.518   1.342   0.030  0.00  0.00    -0.026 A 
ATOM      8  C   UNL     1      -2.874  -0.123   0.020  0.00  0.00    +0.046 C 
ATOM      9  N   UNL     1      -0.011   0.966   0.007  0.00  0.00    -0.286 N 
ATOM     10  C   UNL     1       1.096   1.733   0.001  0.00  0.00    +0.212 C 
ATOM     11  O   UNL     1       2.246   1.348  -0.009  0.00  0.00    -0.277 OA
ATOM     12  C   UNL     1       0.627   3.161   0.008  0.00  0.00    +0.053 C 
ATOM     13  C   UNL     1       1.188   3.966  -1.145  0.00  0.00    +0.089 C 
ATOM     14  C   UNL     1       0.825   5.390  -0.585  0.00  0.00    +0.074 C 
ATOM     15  C   UNL     1       1.090   5.357   0.865  0.00  0.00    -0.054 C 
ATOM     16  C   UNL     1       2.576   3.532   1.369  0.00  0.00    -0.076 C 
ATOM     17  C   UNL     1       3.236   4.808   1.935  0.00  0.00    -0.020 C 
ATOM     18  C   UNL     1       2.477   5.952   1.206  0.00  0.00    -0.016 C 
ATOM     19  C   UNL     1       0.970   6.222  -1.761  0.00  0.00    +0.228 C 
ATOM     20  O   UNL     1       1.381   7.362  -1.813  0.00  0.00    -0.275 OA
ATOM     21  N   UNL     1       0.552   5.421  -2.801  0.00  0.00    -0.210 N 
ATOM     22  C   UNL     1       0.467   4.101  -2.450  0.00  0.00    +0.229 C 
ATOM     23  O   UNL     1      -0.082   3.217  -3.073  0.00  0.00    -0.275 OA
ATOM     24  H   UNL     1       0.002  -0.004   0.002  0.00  0.00    +0.155 HD
ATOM     25  N   UNL     1       1.169   3.899   1.167  0.00  0.00    +0.395 N 
ATOM     26  H   UNL     1       0.625   3.681   2.010  0.00  0.00    -0.079 HD
ENDROOT
BRANCH  21  27
ATOM     27  C   UNL     1       0.248   5.906  -4.081  0.00  0.00    +0.049 A 
ATOM     28  C   UNL     1      -1.047   6.308  -4.382  0.00  0.00    +0.057 A 
ATOM     29  C   UNL     1      -1.343   6.786  -5.644  0.00  0.00    +0.128 A 
ATOM     30  C   UNL     1      -0.353   6.863  -6.606  0.00  0.00    +0.033 A 
ATOM     31  C   UNL     1       0.936   6.463  -6.309  0.00  0.00    +0.007 A 
ATOM     32  C   UNL     1       1.240   5.989  -5.047  0.00  0.00    -0.028 A 
ATOM     33  C   UNL     1       2.648   5.559  -4.722  0.00  0.00    +0.045 C 
BRANCH  29  34
ATOM     34  N   UNL     1      -2.723   7.216  -5.966  0.00  0.00    +0.056 N 
ATOM     35  O   UNL     1      -3.595   7.148  -5.118  0.00  0.00    -0.126 OA
ATOM     36  O   UNL     1      -2.985   7.637  -7.078  0.00  0.00    -0.126 OA
ENDBRANCH  29  34
ENDBRANCH  21  27
TORSDOF 2
