REMARK  Name = ZINC35843306
REMARK  6 active torsions:
REMARK  status: ('A' for Active; 'I' for Inactive)
REMARK    1  A    between atoms: C_1  and  C_2
REMARK    2  A    between atoms: C_4  and  C_37
REMARK    3  A    between atoms: N_21  and  C_24
REMARK    4  A    between atoms: C_26  and  C_33
REMARK    5  A    between atoms: C_29  and  O_30
REMARK    6  A    between atoms: O_30  and  C_31
REMARK                            x       y       z     vdW  Elec       q    Type
REMARK                         _______ _______ _______ _____ _____    ______ ____
ROOT
ATOM      1  C   UNL     1       0.026   1.553   0.072  0.00  0.00    +0.044 C 
ATOM      2  C   UNL     1       0.052   0.047   0.045  0.00  0.00    -0.050 A 
ATOM      3  C   UNL     1      -0.027  -0.626  -1.161  0.00  0.00    +0.008 A 
ATOM      4  C   UNL     1      -0.002  -2.005  -1.191  0.00  0.00    -0.029 A 
ATOM      5  C   UNL     1       0.103  -2.731  -0.007  0.00  0.00    +0.042 A 
ATOM      6  C   UNL     1       0.180  -2.043   1.200  0.00  0.00    +0.004 A 
ATOM      7  C   UNL     1       0.161  -0.666   1.226  0.00  0.00    +0.011 A 
ATOM      8  C   UNL     1       0.276  -3.095   2.269  0.00  0.00    +0.138 C 
ATOM      9  C   UNL     1      -0.890  -2.994   3.259  0.00  0.00    +0.123 C 
ATOM     10  C   UNL     1      -0.305  -2.228   4.478  0.00  0.00    +0.107 C 
ATOM     11  C   UNL     1       1.165  -1.954   4.114  0.00  0.00    +0.071 C 
ATOM     12  N   UNL     1       1.508  -2.951   3.063  0.00  0.00    -0.281 NA
ATOM     13  C   UNL     1       1.766  -4.199   3.820  0.00  0.00    +0.086 C 
ATOM     14  C   UNL     1       2.478  -3.749   5.112  0.00  0.00    +0.017 C 
ATOM     15  C   UNL     1       2.058  -2.269   5.328  0.00  0.00    +0.021 C 
ATOM     16  C   UNL     1      -1.085  -0.933   4.484  0.00  0.00    +0.232 C 
ATOM     17  O   UNL     1      -0.942  -0.033   5.283  0.00  0.00    -0.274 OA
ATOM     18  N   UNL     1      -1.959  -0.936   3.471  0.00  0.00    -0.206 N 
ATOM     19  C   UNL     1      -1.943  -2.056   2.713  0.00  0.00    +0.233 C 
ATOM     20  O   UNL     1      -2.649  -2.279   1.753  0.00  0.00    -0.274 OA
ATOM     21  C   UNL     1       0.250  -4.405   1.528  0.00  0.00    +0.243 C 
ATOM     22  O   UNL     1       0.309  -5.514   2.016  0.00  0.00    -0.273 OA
ATOM     23  N   UNL     1       0.149  -4.108   0.219  0.00  0.00    -0.283 N 
ATOM     24  C   UNL     1      -0.088  -2.729  -2.510  0.00  0.00    +0.045 C 
ATOM     25  H   UNL     1       0.112  -4.773  -0.486  0.00  0.00    +0.155 HD
ENDROOT
BRANCH  18  26
ATOM     26  C   UNL     1      -2.829   0.135   3.216  0.00  0.00    +0.086 A 
ATOM     27  C   UNL     1      -2.488   1.100   2.280  0.00  0.00    +0.032 A 
ATOM     28  C   UNL     1      -3.346   2.154   2.030  0.00  0.00    -0.030 A 
ATOM     29  C   UNL     1      -4.546   2.250   2.712  0.00  0.00    +0.047 A 
ATOM     30  C   UNL     1      -4.893   1.292   3.647  0.00  0.00    +0.067 A 
ATOM     31  C   UNL     1      -4.040   0.229   3.898  0.00  0.00    +0.143 A 
ATOM     32 CL   UNL     1      -5.619   3.578   2.395  0.00  0.00    -0.083 Cl
ATOM     33  C   UNL     1      -2.974   3.201   1.012  0.00  0.00    +0.045 C 
BRANCH  31  34
ATOM     34  O   UNL     1      -4.381  -0.718   4.812  0.00  0.00    -0.493 OA
ATOM     35  C   UNL     1      -5.638  -0.558   5.474  0.00  0.00    +0.277 C 
ENDBRANCH  31  34
ENDBRANCH  18  26
TORSDOF 2
