REMARK  Name = ZINC13123524
REMARK  4 active torsions:
REMARK  status: ('A' for Active; 'I' for Inactive)
REMARK    1  A    between atoms: C_1  and  C_2
REMARK    2  A    between atoms: C_3  and  C_17
REMARK    3  A    between atoms: C_4  and  C_12
REMARK    4  A    between atoms: N_19  and  C_20
REMARK                            x       y       z     vdW  Elec       q    Type
REMARK                         _______ _______ _______ _____ _____    ______ ____
ROOT
ATOM      1  C   UNL     1      -0.018   1.502   0.016  0.00  0.00    +0.061 C 
ATOM      2  C   UNL     1       0.002  -0.004  -0.003  0.00  0.00    +0.018 C 
ATOM      3  C   UNL     1      -1.163  -0.667  -0.003  0.00  0.00    +0.061 C 
ATOM      4  C   UNL     1      -1.255  -2.170  -0.034  0.00  0.00    +0.185 C 
ATOM      5  N   UNL     1       0.062  -2.741   0.224  0.00  0.00    -0.201 N 
ATOM      6  C   UNL     1       1.211  -2.017   0.220  0.00  0.00    +0.240 A 
ATOM      7  N   UNL     1       2.187  -2.840   0.478  0.00  0.00    -0.092 NA
ATOM      8  N   UNL     1       1.731  -4.034   0.648  0.00  0.00    -0.021 NA
ATOM      9  N   UNL     1       0.445  -4.050   0.509  0.00  0.00    -0.042 NA
ATOM     10  N   UNL     1       1.214  -0.651  -0.026  0.00  0.00    -0.286 N 
ATOM     11  H   UNL     1       2.038  -0.171  -0.205  0.00  0.00    +0.155 HD
ENDROOT
BRANCH   4  12
ATOM     12  C   UNL     1      -1.741  -2.617  -1.389  0.00  0.00    +0.019 A 
ATOM     13  C   UNL     1      -2.855  -3.320  -1.707  0.00  0.00    +0.013 A 
ATOM     14  C   UNL     1      -3.103  -3.620  -3.033  0.00  0.00    +0.008 A 
ATOM     15  C   UNL     1      -2.224  -3.202  -3.977  0.00  0.00    +0.045 A 
ATOM     16  S   UNL     1      -1.003  -2.349  -2.992  0.00  0.00    -0.099 S 
ENDBRANCH   4  12
BRANCH   3  17
ATOM     17  C   UNL     1      -2.364   0.081   0.028  0.00  0.00    +0.248 C 
ATOM     18  O   UNL     1      -2.323   1.298   0.053  0.00  0.00    -0.270 OA
ATOM     19  N   UNL     1      -3.553  -0.553   0.029  0.00  0.00    -0.282 N 
ATOM     20  H   UNL     1      -3.588  -1.519  -0.059  0.00  0.00    +0.155 HD
BRANCH  19  21
ATOM     21  C   UNL     1      -4.737   0.180   0.156  0.00  0.00    +0.034 A 
ATOM     22  C   UNL     1      -4.841   1.439  -0.421  0.00  0.00    +0.025 A 
ATOM     23  C   UNL     1      -6.011   2.162  -0.295  0.00  0.00    +0.022 A 
ATOM     24  C   UNL     1      -7.080   1.632   0.407  0.00  0.00    +0.041 A 
ATOM     25  C   UNL     1      -6.979   0.378   0.984  0.00  0.00    +0.022 A 
ATOM     26  C   UNL     1      -5.813  -0.351   0.856  0.00  0.00    +0.025 A 
ATOM     27 CL   UNL     1      -8.550   2.543   0.566  0.00  0.00    -0.084 Cl
ENDBRANCH  19  21
ENDBRANCH   3  17
TORSDOF 3
