REMARK  Name = ZINC02448896
REMARK  7 active torsions:
REMARK  status: ('A' for Active; 'I' for Inactive)
REMARK    1  A    between atoms: C_1  and  C_2
REMARK    2  A    between atoms: C_5  and  S_8
REMARK    3  A    between atoms: S_8  and  C_9
REMARK    4  A    between atoms: C_9  and  C_10
REMARK    5  A    between atoms: C_11  and  C_21
REMARK    6  A    between atoms: N_23  and  N_24
REMARK    7  A    between atoms: C_25  and  C_26
REMARK                            x       y       z     vdW  Elec       q    Type
REMARK                         _______ _______ _______ _____ _____    ______ ____
ROOT
ATOM      1  C   UNL     1       4.950   9.423   0.005  0.00  0.00    +0.089 A 
ATOM      2  C   UNL     1       4.836   8.062  -0.001  0.00  0.00    +0.173 A 
ATOM      3  N   UNL     1       6.072   7.532  -0.009  0.00  0.00    -0.124 NA
ATOM      4  N   UNL     1       6.947   8.476  -0.017  0.00  0.00    -0.058 NA
ATOM      5  N   UNL     1       6.272   9.705  -0.005  0.00  0.00    -0.191 N 
ATOM      6  C   UNL     1       6.854  10.977  -0.004  0.00  0.00    +0.240 A 
ATOM      7  C   UNL     1       8.292  11.262  -0.015  0.00  0.00    +0.206 A 
ATOM      8  N   UNL     1       8.454  12.557  -0.011  0.00  0.00    -0.032 NA
ATOM      9  O   UNL     1       7.169  13.154   0.003  0.00  0.00    -0.239 OA
ATOM     10  N   UNL     1       6.211  12.110   0.001  0.00  0.00    -0.027 NA
ATOM     11  N   UNL     1       9.310  10.315  -0.027  0.00  0.00    -0.337 N 
ATOM     12  H   UNL     1       9.092   9.370  -0.029  0.00  0.00    +0.144 HD
ATOM     13  H   UNL     1      10.237  10.599  -0.034  0.00  0.00    +0.144 HD
ENDROOT
BRANCH   2  14
ATOM     14  C   UNL     1       3.572   7.303   0.007  0.00  0.00    +0.285 C 
ATOM     15  O   UNL     1       2.508   7.892   0.019  0.00  0.00    -0.267 OA
ATOM     16  N   UNL     1       3.595   5.955  -0.000  0.00  0.00    -0.202 N 
ATOM     17  H   UNL     1       4.444   5.485  -0.010  0.00  0.00    +0.178 HD
BRANCH  16  18
ATOM     18  N   UNL     1       2.394   5.233   0.007  0.00  0.00    -0.187 NA
ATOM     19  C   UNL     1       2.417   3.936   0.000  0.00  0.00    +0.139 C 
BRANCH  19  20
ATOM     20  C   UNL     1       1.153   3.176   0.008  0.00  0.00    +0.013 A 
ATOM     21  C   UNL     1       1.173   1.780   0.000  0.00  0.00    +0.011 A 
ATOM     22  C   UNL     1      -0.013   1.076   0.008  0.00  0.00    +0.001 A 
ATOM     23  C   UNL     1      -1.222   1.750   0.017  0.00  0.00    +0.001 A 
ATOM     24  C   UNL     1      -1.250   3.132   0.030  0.00  0.00    +0.020 A 
ATOM     25  C   UNL     1      -0.071   3.851   0.022  0.00  0.00    +0.050 A 
ATOM     26 CL   UNL     1      -0.109   5.586   0.031  0.00  0.00    -0.083 Cl
ENDBRANCH  19  20
ENDBRANCH  16  18
ENDBRANCH   2  14
BRANCH   1  27
ATOM     27  C   UNL     1       3.819  10.419   0.019  0.00  0.00    +0.132 C 
BRANCH  27  28
ATOM     28  S   UNL     1       3.351  10.827  -1.685  0.00  0.00    -0.119 S 
BRANCH  28  33
ATOM     29  C   UNL     1      -1.153  14.796  -1.053  0.00  0.00    +0.044 C 
ATOM     30  C   UNL     1      -0.029  13.805  -1.211  0.00  0.00    -0.050 A 
ATOM     31  C   UNL     1       0.391  13.433  -2.475  0.00  0.00    +0.004 A 
ATOM     32  C   UNL     1       1.420  12.525  -2.623  0.00  0.00    +0.015 A 
ATOM     33  C   UNL     1       2.036  11.986  -1.500  0.00  0.00    +0.008 A 
ATOM     34  C   UNL     1       1.609  12.358  -0.232  0.00  0.00    +0.015 A 
ATOM     35  C   UNL     1       0.582  13.271  -0.091  0.00  0.00    +0.004 A 
ENDBRANCH  28  33
ENDBRANCH  27  28
ENDBRANCH   1  27
TORSDOF 6
