REMARK  Name = ZINC20548056
REMARK  7 active torsions:
REMARK  status: ('A' for Active; 'I' for Inactive)
REMARK    1  A    between atoms: C_1  and  C_2
REMARK    2  A    between atoms: C_16  and  O_30
REMARK    3  A    between atoms: C_17  and  O_28
REMARK    4  A    between atoms: C_23  and  N_27
REMARK    5  A    between atoms: C_24  and  C_25
REMARK    6  A    between atoms: O_28  and  C_29
REMARK    7  A    between atoms: O_30  and  C_31
REMARK                            x       y       z     vdW  Elec       q    Type
REMARK                         _______ _______ _______ _____ _____    ______ ____
ROOT
ATOM      1  C   UNL     1      -1.627   1.006   0.252  0.00  0.00    +0.066 C 
ATOM      2  C   UNL     1      -0.772  -0.227   0.117  0.00  0.00    +0.047 C 
ATOM      3  N   UNL     1      -0.649  -0.948  -0.976  0.00  0.00    -0.251 NA
ATOM      4  C   UNL     1       0.181  -1.990  -0.803  0.00  0.00    +0.072 A 
ATOM      5  C   UNL     1       0.621  -3.018  -1.648  0.00  0.00    +0.028 A 
ATOM      6  C   UNL     1       1.488  -3.960  -1.177  0.00  0.00    +0.002 A 
ATOM      7  C   UNL     1       1.947  -3.920   0.135  0.00  0.00    +0.001 A 
ATOM      8  C   UNL     1       1.537  -2.932   0.985  0.00  0.00    +0.011 A 
ATOM      9  C   UNL     1       0.652  -1.955   0.531  0.00  0.00    +0.010 A 
ATOM     10  C   UNL     1       0.018  -0.777   1.134  0.00  0.00    +0.014 C 
ATOM     11  C   UNL     1       0.176  -0.284   2.504  0.00  0.00    +0.007 C 
ATOM     12  C   UNL     1       0.113   1.094   2.780  0.00  0.00    +0.034 C 
ATOM     13  C   UNL     1       0.255   1.537   4.073  0.00  0.00    +0.043 C 
ATOM     14  C   UNL     1       0.213   2.982   4.373  0.00  0.00    +0.003 A 
ATOM     15  C   UNL     1      -0.390   3.890   3.506  0.00  0.00    +0.059 A 
ATOM     16  C   UNL     1      -0.405   5.235   3.830  0.00  0.00    +0.162 A 
ATOM     17  C   UNL     1       0.181   5.677   5.015  0.00  0.00    +0.162 A 
ATOM     18  C   UNL     1       0.783   4.770   5.880  0.00  0.00    +0.053 A 
ATOM     19  C   UNL     1       0.800   3.434   5.564  0.00  0.00    -0.033 A 
ATOM     20  C   UNL     1       1.444   2.415   6.473  0.00  0.00    +0.055 C 
ATOM     21  C   UNL     1       0.557   1.160   6.480  0.00  0.00    +0.117 C 
ATOM     22  N   UNL     1       0.446   0.650   5.106  0.00  0.00    -0.287 N 
ATOM     23  C   UNL     1       0.527  -0.685   4.873  0.00  0.00    +0.106 C 
ATOM     24  C   UNL     1       0.390  -1.188   3.578  0.00  0.00    +0.095 C 
ENDROOT
BRANCH  23  25
ATOM     25  N   UNL     1       0.741  -1.545   5.916  0.00  0.00    -0.345 N 
ATOM     26  H   UNL     1       0.730  -1.213   6.828  0.00  0.00    +0.144 HD
ATOM     27  H   UNL     1       0.903  -2.485   5.744  0.00  0.00    +0.144 HD
ENDBRANCH  23  25
BRANCH  24  28
ATOM     28  C   UNL     1       0.470  -2.597   3.335  0.00  0.00    +0.103 C 
ATOM     29  N   UNL     1       0.532  -3.714   3.142  0.00  0.00    -0.191 NA
ENDBRANCH  24  28
BRANCH  17  30
ATOM     30  O   UNL     1       0.165   6.999   5.326  0.00  0.00    -0.491 OA
ATOM     31  C   UNL     1       0.783   7.385   6.556  0.00  0.00    +0.277 C 
ENDBRANCH  17  30
BRANCH  16  32
ATOM     32  O   UNL     1      -0.991   6.129   2.989  0.00  0.00    -0.491 OA
ATOM     33  C   UNL     1      -1.572   5.608   1.792  0.00  0.00    +0.277 C 
ENDBRANCH  16  32
TORSDOF 4
