REMARK  Name = ZINC12629147
REMARK  7 active torsions:
REMARK  status: ('A' for Active; 'I' for Inactive)
REMARK    1  A    between atoms: C_1  and  C_2
REMARK    2  A    between atoms: C_2  and  C_4
REMARK    3  A    between atoms: C_2  and  N_14
REMARK    4  A    between atoms: C_15  and  C_17
REMARK    5  A    between atoms: C_17  and  S_18
REMARK    6  A    between atoms: S_18  and  C_19
REMARK    7  A    between atoms: N_23  and  C_24
REMARK                            x       y       z     vdW  Elec       q    Type
REMARK                         _______ _______ _______ _____ _____    ______ ____
ROOT
ATOM      1  N   UNL     1      -4.657  -0.137  -0.860  0.00  0.00    -0.308 N 
ATOM      2  C   UNL     1      -5.660  -0.844  -1.419  0.00  0.00    +0.224 C 
ATOM      3  O   UNL     1      -5.762  -2.031  -1.195  0.00  0.00    -0.275 OA
ATOM      4  H   UNL     1      -4.575   0.813  -1.039  0.00  0.00    +0.149 HD
ENDROOT
BRANCH   1   6
ATOM      5  C   UNL     1      -4.250  -0.858   1.441  0.00  0.00    +0.033 C 
ATOM      6  C   UNL     1      -3.692  -0.803   0.018  0.00  0.00    +0.100 C 
BRANCH   6   7
ATOM      7  C   UNL     1      -2.397  -0.033   0.016  0.00  0.00    -0.024 A 
ATOM      8  C   UNL     1      -2.415   1.349   0.025  0.00  0.00    +0.009 A 
ATOM      9  C   UNL     1      -1.229   2.059   0.019  0.00  0.00    +0.050 A 
ATOM     10  C   UNL     1      -0.017   1.385   0.010  0.00  0.00    +0.162 A 
ATOM     11  C   UNL     1       0.002  -0.004   0.002  0.00  0.00    +0.162 A 
ATOM     12  C   UNL     1      -1.192  -0.710   0.004  0.00  0.00    +0.055 A 
ATOM     13  O   UNL     1       1.181  -0.685  -0.007  0.00  0.00    -0.485 OA
ATOM     14  C   UNL     1       2.347   0.053  -0.387  0.00  0.00    +0.270 C 
ATOM     15  C   UNL     1       2.334   1.392   0.364  0.00  0.00    +0.270 C 
ATOM     16  O   UNL     1       1.143   2.098   0.002  0.00  0.00    -0.485 OA
ENDBRANCH   6   7
ENDBRANCH   1   6
BRANCH   2  17
ATOM     17  C   UNL     1      -6.653  -0.158  -2.322  0.00  0.00    +0.173 C 
BRANCH  17  18
ATOM     18  S   UNL     1      -7.866  -1.365  -2.910  0.00  0.00    -0.078 S 
BRANCH  18  19
ATOM     19  C   UNL     1      -8.873  -0.323  -3.913  0.00  0.00    +0.174 A 
ATOM     20  N   UNL     1      -8.697   0.964  -4.101  0.00  0.00    -0.230 NA
ATOM     21  C   UNL     1      -9.651   1.428  -4.927  0.00  0.00    +0.131 A 
ATOM     22  C   UNL     1     -10.457   0.405  -5.261  0.00  0.00    +0.113 A 
ATOM     23  N   UNL     1      -9.970  -0.715  -4.621  0.00  0.00    -0.295 N 
BRANCH  23  24
ATOM     24  C   UNL     1     -10.502  -2.011  -4.687  0.00  0.00    +0.049 A 
ATOM     25  C   UNL     1      -9.677  -3.088  -4.979  0.00  0.00    +0.027 A 
ATOM     26  C   UNL     1     -10.202  -4.364  -5.038  0.00  0.00    +0.022 A 
ATOM     27  C   UNL     1     -11.553  -4.568  -4.817  0.00  0.00    +0.041 A 
ATOM     28  C   UNL     1     -12.379  -3.496  -4.530  0.00  0.00    +0.022 A 
ATOM     29  C   UNL     1     -11.857  -2.218  -4.465  0.00  0.00    +0.027 A 
ATOM     30 CL   UNL     1     -12.211  -6.172  -4.898  0.00  0.00    -0.084 Cl
ENDBRANCH  23  24
ENDBRANCH  18  19
ENDBRANCH  17  18
ENDBRANCH   2  17
TORSDOF 6
