REMARK  Name = ZINC25584153
REMARK  10 active torsions:
REMARK  status: ('A' for Active; 'I' for Inactive)
REMARK    1  A    between atoms: C_1  and  C_2
REMARK    2  A    between atoms: C_3  and  C_13
REMARK    3  A    between atoms: C_7  and  S_9
REMARK    4  A    between atoms: S_9  and  C_10
REMARK    5  A    between atoms: C_13  and  C_14
REMARK    6  A    between atoms: C_14  and  C_15
REMARK    7  A    between atoms: N_17  and  C_18
REMARK    8  A    between atoms: C_21  and  C_24
REMARK    9  A    between atoms: C_24  and  S_25
REMARK   10  A    between atoms: S_25  and  N_28
REMARK                            x       y       z     vdW  Elec       q    Type
REMARK                         _______ _______ _______ _____ _____    ______ ____
ROOT
ATOM      1  C   UNL     1      -0.014   1.209   0.007  0.00  0.00    +0.218 C 
ATOM      2  O   UNL     1       0.002  -0.004  -0.008  0.00  0.00    -0.275 OA
ATOM      3  N   UNL     1      -1.191   1.867   0.018  0.00  0.00    -0.285 N 
ATOM      4  H   UNL     1      -1.207   2.963   0.108  0.00  0.00    +0.155 HD
ENDROOT
BRANCH   3   5
ATOM      5  C   UNL     1      -2.391   1.155  -0.086  0.00  0.00    +0.033 A 
ATOM      6  C   UNL     1      -3.468   1.704  -0.769  0.00  0.00    +0.023 A 
ATOM      7  C   UNL     1      -4.650   0.997  -0.875  0.00  0.00    +0.007 A 
ATOM      8  C   UNL     1      -4.764  -0.252  -0.292  0.00  0.00    -0.025 A 
ATOM      9  C   UNL     1      -3.696  -0.798   0.395  0.00  0.00    +0.007 A 
ATOM     10  C   UNL     1      -2.510  -0.099   0.499  0.00  0.00    +0.023 A 
BRANCH   8  11
ATOM     11  C   UNL     1      -6.057  -1.018  -0.404  0.00  0.00    +0.219 C 
BRANCH  11  12
ATOM     12  S   UNL     1      -7.132  -0.600   0.995  0.00  0.00    +0.031 S 
ATOM     13  O   UNL     1      -6.577  -1.098   2.205  0.00  0.00    -0.158 OA
ATOM     14  O   UNL     1      -7.560   0.752   0.897  0.00  0.00    -0.158 OA
BRANCH  12  15
ATOM     15  N   UNL     1      -8.505  -1.496   0.760  0.00  0.00    -0.208 NA
ATOM     16  H   UNL     1      -9.217  -1.297   1.575  0.00  0.00    +0.144 HD
ATOM     17  H   UNL     1      -8.248  -2.565   0.750  0.00  0.00    +0.144 HD
ENDBRANCH  12  15
ENDBRANCH  11  12
ENDBRANCH   8  11
ENDBRANCH   3   5
BRANCH   1  18
ATOM     18  C   UNL     1       1.280   1.980   0.007  0.00  0.00    +0.101 C 
BRANCH  18  19
ATOM     19  C   UNL     1       2.457   1.002  -0.013  0.00  0.00    +0.051 C 
BRANCH  19  22
ATOM     20  C   UNL     1       3.838   1.532   2.461  0.00  0.00    +0.066 C 
ATOM     21  C   UNL     1       4.408   2.026   1.157  0.00  0.00    +0.049 A 
ATOM     22  C   UNL     1       3.751   1.773  -0.013  0.00  0.00    +0.040 A 
ATOM     23  C   UNL     1       4.306   2.240  -1.218  0.00  0.00    +0.277 A 
ATOM     24  O   UNL     1       3.748   2.027  -2.282  0.00  0.00    -0.265 OA
ATOM     25  N   UNL     1       5.464   2.932  -1.175  0.00  0.00    -0.183 NA
ATOM     26  C   UNL     1       6.075   3.153   0.022  0.00  0.00    +0.197 A 
ATOM     27  N   UNL     1       5.551   2.708   1.148  0.00  0.00    -0.227 NA
BRANCH  26  28
ATOM     28  S   UNL     1       7.590   4.051   0.068  0.00  0.00    -0.016 S 
BRANCH  28  29
ATOM     29  C   UNL     1       7.912   4.033   1.849  0.00  0.00    +0.407 C 
ATOM     30  F   UNL     1       6.858   4.662   2.521  0.00  0.00    -0.196 F 
ATOM     31  F   UNL     1       8.022   2.709   2.289  0.00  0.00    -0.196 F 
ENDBRANCH  28  29
ENDBRANCH  26  28
ENDBRANCH  19  22
ENDBRANCH  18  19
ENDBRANCH   1  18
TORSDOF 9
