REMARK  Name = ZINC08340296
REMARK  7 active torsions:
REMARK  status: ('A' for Active; 'I' for Inactive)
REMARK    1  A    between atoms: C_1  and  C_2
REMARK    2  A    between atoms: C_2  and  C_4
REMARK    3  A    between atoms: C_2  and  N_20
REMARK    4  A    between atoms: N_6  and  C_7
REMARK    5  A    between atoms: C_7  and  C_8
REMARK    6  A    between atoms: C_7  and  C_14
REMARK    7  A    between atoms: N_20  and  C_21
REMARK                            x       y       z     vdW  Elec       q    Type
REMARK                         _______ _______ _______ _____ _____    ______ ____
ROOT
ATOM      1  C   UNL     1       0.051   5.575  -0.569  0.00  0.00    +0.234 C 
ATOM      2  O   UNL     1       1.142   5.925  -0.968  0.00  0.00    -0.274 OA
ATOM      3  N   UNL     1      -0.999   6.415  -0.659  0.00  0.00    -0.303 N 
ATOM      4  H   UNL     1      -1.872   6.135  -0.341  0.00  0.00    +0.150 HD
ENDROOT
BRANCH   1   6
ATOM      5  C   UNL     1      -0.622   4.333   1.468  0.00  0.00    +0.038 C 
ATOM      6  C   UNL     1      -0.129   4.203   0.026  0.00  0.00    +0.154 C 
BRANCH   6   7
ATOM      7  N   UNL     1       1.151   3.491   0.010  0.00  0.00    -0.333 N 
ATOM      8  H   UNL     1       1.983   3.990   0.004  0.00  0.00    +0.147 HD
BRANCH   7   9
ATOM      9  C   UNL     1       1.175   2.092   0.002  0.00  0.00    +0.031 A 
ATOM     10  C   UNL     1      -0.017   1.379   0.010  0.00  0.00    +0.027 A 
ATOM     11  C   UNL     1       0.002  -0.004   0.002  0.00  0.00    +0.051 A 
ATOM     12  C   UNL     1       1.213  -0.676  -0.013  0.00  0.00    +0.162 A 
ATOM     13  C   UNL     1       2.405   0.034  -0.021  0.00  0.00    +0.164 A 
ATOM     14  C   UNL     1       2.389   1.418  -0.013  0.00  0.00    +0.072 A 
ATOM     15  O   UNL     1       3.591  -0.640  -0.036  0.00  0.00    -0.488 OA
ATOM     16  C   UNL     1       3.910  -1.369   1.151  0.00  0.00    +0.232 C 
ATOM     17  C   UNL     1       3.259  -2.743   1.132  0.00  0.00    +0.082 C 
ATOM     18  C   UNL     1       1.740  -2.664   1.163  0.00  0.00    +0.232 C 
ATOM     19  O   UNL     1       1.241  -2.042  -0.022  0.00  0.00    -0.488 OA
ENDBRANCH   7   9
ENDBRANCH   6   7
ENDBRANCH   1   6
BRANCH   3  20
ATOM     20  C   UNL     1      -0.824   7.749  -1.238  0.00  0.00    +0.134 C 
BRANCH  20  21
ATOM     21  C   UNL     1      -2.140   8.236  -1.786  0.00  0.00    -0.023 A 
ATOM     22  C   UNL     1      -3.311   7.990  -1.092  0.00  0.00    +0.006 A 
ATOM     23  C   UNL     1      -4.518   8.442  -1.592  0.00  0.00    +0.000 A 
ATOM     24  C   UNL     1      -4.556   9.130  -2.791  0.00  0.00    +0.000 A 
ATOM     25  C   UNL     1      -3.386   9.370  -3.487  0.00  0.00    +0.000 A 
ATOM     26  C   UNL     1      -2.178   8.924  -2.984  0.00  0.00    +0.006 A 
ENDBRANCH  20  21
BRANCH  20  27
ATOM     27  C   UNL     1      -0.341   8.699  -0.172  0.00  0.00    -0.023 A 
ATOM     28  C   UNL     1      -0.865   8.629   1.105  0.00  0.00    +0.006 A 
ATOM     29  C   UNL     1      -0.418   9.497   2.084  0.00  0.00    +0.000 A 
ATOM     30  C   UNL     1       0.545  10.442   1.783  0.00  0.00    +0.000 A 
ATOM     31  C   UNL     1       1.065  10.515   0.504  0.00  0.00    +0.000 A 
ATOM     32  C   UNL     1       0.622   9.644  -0.473  0.00  0.00    +0.006 A 
ENDBRANCH  20  27
ENDBRANCH   3  20
TORSDOF 6
