REMARK  Name = ZINC12437377
REMARK  4 active torsions:
REMARK  status: ('A' for Active; 'I' for Inactive)
REMARK    1  A    between atoms: C_1  and  C_2
REMARK    2  A    between atoms: C_5  and  S_8
REMARK    3  A    between atoms: S_8  and  C_11
REMARK    4  A    between atoms: N_21  and  C_22
REMARK                            x       y       z     vdW  Elec       q    Type
REMARK                         _______ _______ _______ _____ _____    ______ ____
ROOT
ATOM      1  C   UNL     1       1.836  -4.828  -0.079  0.00  0.00    +0.154 A 
ATOM      2  C   UNL     1       2.412  -5.589   0.883  0.00  0.00    +0.044 A 
ATOM      3  C   UNL     1       3.723  -6.189   0.603  0.00  0.00    +0.019 A 
ATOM      4  C   UNL     1       4.367  -6.984   1.554  0.00  0.00    +0.011 A 
ATOM      5  C   UNL     1       5.596  -7.534   1.262  0.00  0.00    +0.001 A 
ATOM      6  C   UNL     1       6.193  -7.301   0.032  0.00  0.00    +0.004 A 
ATOM      7  C   UNL     1       5.567  -6.518  -0.916  0.00  0.00    +0.047 A 
ATOM      8  C   UNL     1       4.328  -5.955  -0.643  0.00  0.00    +0.138 A 
ATOM      9  O   UNL     1       3.702  -5.187  -1.562  0.00  0.00    -0.437 OA
ATOM     10  C   UNL     1       2.497  -4.637  -1.314  0.00  0.00    +0.225 A 
ATOM     11  N   UNL     1       1.923  -3.900  -2.244  0.00  0.00    -0.324 N 
ATOM     12  H   UNL     1       1.020  -3.571  -2.113  0.00  0.00    +0.169 HD
ENDROOT
BRANCH  11  13
ATOM     13  C   UNL     1       2.601  -3.598  -3.392  0.00  0.00    +0.046 A 
ATOM     14  C   UNL     1       3.935  -3.187  -3.332  0.00  0.00    +0.029 A 
ATOM     15  C   UNL     1       4.615  -2.882  -4.492  0.00  0.00    +0.051 A 
ATOM     16  C   UNL     1       3.980  -2.984  -5.723  0.00  0.00    +0.162 A 
ATOM     17  C   UNL     1       2.653  -3.396  -5.791  0.00  0.00    +0.164 A 
ATOM     18  C   UNL     1       1.965  -3.706  -4.630  0.00  0.00    +0.075 A 
ATOM     19  O   UNL     1       2.019  -3.508  -6.990  0.00  0.00    -0.485 OA
ATOM     20  C   UNL     1       2.622  -2.838  -8.103  0.00  0.00    +0.270 C 
ATOM     21  C   UNL     1       4.126  -3.147  -8.092  0.00  0.00    +0.270 C 
ATOM     22  O   UNL     1       4.671  -2.675  -6.855  0.00  0.00    -0.485 OA
ENDBRANCH  11  13
BRANCH   1  23
ATOM     23  S   UNL     1       0.264  -4.085   0.206  0.00  0.00    +0.030 S 
ATOM     24  O   UNL     1      -0.120  -4.440   1.528  0.00  0.00    -0.164 OA
ATOM     25  O   UNL     1      -0.539  -4.386  -0.927  0.00  0.00    -0.164 OA
BRANCH  23  30
ATOM     26  C   UNL     1       1.085   1.893   0.200  0.00  0.00    +0.044 C 
ATOM     27  C   UNL     1       0.880   0.400   0.201  0.00  0.00    -0.050 A 
ATOM     28  C   UNL     1       0.451  -0.240  -0.946  0.00  0.00    +0.005 A 
ATOM     29  C   UNL     1       0.263  -1.610  -0.945  0.00  0.00    +0.027 A 
ATOM     30  C   UNL     1       0.504  -2.340   0.204  0.00  0.00    +0.094 A 
ATOM     31  C   UNL     1       0.935  -1.700   1.351  0.00  0.00    +0.027 A 
ATOM     32  C   UNL     1       1.127  -0.331   1.349  0.00  0.00    +0.005 A 
ENDBRANCH  23  30
ENDBRANCH   1  23
TORSDOF 3
