REMARK  Name = ZINC48109210
REMARK  11 active torsions:
REMARK  status: ('A' for Active; 'I' for Inactive)
REMARK    1  A    between atoms: C_1  and  C_2
REMARK    2  A    between atoms: C_2  and  N_3
REMARK    3  A    between atoms: C_4  and  C_6
REMARK    4  A    between atoms: C_9  and  N_13
REMARK    5  A    between atoms: C_10  and  C_12
REMARK    6  A    between atoms: N_16  and  C_17
REMARK    7  A    between atoms: C_17  and  C_18
REMARK    8  A    between atoms: C_18  and  C_20
REMARK    9  A    between atoms: C_18  and  N_25
REMARK   10  A    between atoms: N_25  and  C_26
REMARK   11  A    between atoms: N_25  and  C_27
REMARK                            x       y       z     vdW  Elec       q    Type
REMARK                         _______ _______ _______ _____ _____    ______ ____
ROOT
ATOM      1  N   UNL     1       3.670  -3.549  -5.989  0.00  0.00    -0.269 N 
ATOM      2  C   UNL     1       3.988  -2.682  -6.970  0.00  0.00    +0.304 C 
ATOM      3  O   UNL     1       3.799  -1.492  -6.814  0.00  0.00    -0.253 OA
ATOM      4  N   UNL     1       4.516  -3.136  -8.124  0.00  0.00    -0.300 N 
ATOM      5  H   UNL     1       3.885  -4.490  -6.084  0.00  0.00    +0.156 HD
ATOM      6  H   UNL     1       4.667  -4.086  -8.249  0.00  0.00    +0.150 HD
ENDROOT
BRANCH   1  10
ATOM      7  C   UNL     1       1.760  -2.188  -2.546  0.00  0.00    +0.037 A 
ATOM      8  C   UNL     1       2.695  -1.377  -3.196  0.00  0.00    +0.015 A 
ATOM      9  C   UNL     1       3.324  -1.830  -4.333  0.00  0.00    +0.024 A 
ATOM     10  C   UNL     1       3.030  -3.093  -4.836  0.00  0.00    +0.038 A 
ATOM     11  C   UNL     1       2.100  -3.903  -4.193  0.00  0.00    -0.028 A 
ATOM     12  C   UNL     1       1.471  -3.458  -3.052  0.00  0.00    +0.018 A 
ATOM     13  C   UNL     1       1.784  -5.270  -4.742  0.00  0.00    +0.045 C 
BRANCH   7  15
ATOM     14  N   UNL     1       1.363  -0.480  -0.841  0.00  0.00    -0.312 N 
ATOM     15  C   UNL     1       1.083  -1.705  -1.327  0.00  0.00    +0.244 C 
ATOM     16  O   UNL     1       0.274  -2.414  -0.760  0.00  0.00    -0.270 OA
ATOM     17  H   UNL     1       2.009   0.085  -1.293  0.00  0.00    +0.149 HD
BRANCH  14  19
ATOM     18  C   UNL     1       1.185   1.408   0.704  0.00  0.00    +0.024 C 
ATOM     19  C   UNL     1       0.692  -0.001   0.370  0.00  0.00    +0.101 C 
ENDBRANCH  14  19
ENDBRANCH   7  15
ENDBRANCH   1  10
BRANCH   4  20
ATOM     20  C   UNL     1       4.862  -2.193  -9.192  0.00  0.00    +0.098 C 
BRANCH  20  21
ATOM     21  C   UNL     1       5.317  -2.969 -10.429  0.00  0.00    +0.016 C 
BRANCH  21  22
ATOM     22  C   UNL     1       6.598  -3.701 -10.121  0.00  0.00    +0.093 A 
ATOM     23  C   UNL     1       7.836  -3.296 -10.458  0.00  0.00    +0.043 A 
ATOM     24  C   UNL     1       8.733  -4.276  -9.975  0.00  0.00    +0.041 A 
ATOM     25  C   UNL     1       7.990  -5.221  -9.371  0.00  0.00    +0.195 A 
ATOM     26  O   UNL     1       6.698  -4.864  -9.457  0.00  0.00    -0.469 OA
ENDBRANCH  21  22
BRANCH  21  27
ATOM     27  N   UNL     1       4.279  -3.938 -10.809  0.00  0.00    +0.384 N 
ATOM     28  C   UNL     1       3.062  -3.219 -11.209  0.00  0.00    -0.096 C 
ATOM     29  C   UNL     1       4.758  -4.753 -11.934  0.00  0.00    -0.096 C 
ATOM     30  H   UNL     1       4.074  -4.536 -10.023  0.00  0.00    -0.082 HD
ENDBRANCH  21  27
ENDBRANCH  20  21
ENDBRANCH   4  20
TORSDOF 7
