REMARK  Name = ZINC64048568
REMARK  4 active torsions:
REMARK  status: ('A' for Active; 'I' for Inactive)
REMARK    1  A    between atoms: C_4  and  C_7
REMARK    2  A    between atoms: C_13  and  C_14
REMARK    3  A    between atoms: N_16  and  N_17
REMARK    4  A    between atoms: C_18  and  C_20
REMARK                            x       y       z     vdW  Elec       q    Type
REMARK                         _______ _______ _______ _____ _____    ______ ____
ROOT
ATOM      1  C   UNL     1       2.350  -4.434  -1.360  0.00  0.00    +0.254 C 
ATOM      2  O   UNL     1       2.159  -3.469  -2.078  0.00  0.00    -0.269 OA
ATOM      3  N   UNL     1       1.739  -5.605  -1.630  0.00  0.00    -0.231 N 
ATOM      4  H   UNL     1       1.890  -6.374  -1.059  0.00  0.00    +0.173 HD
ENDROOT
BRANCH   1  10
ATOM      5  C   UNL     1       4.279  -0.834  -0.481  0.00  0.00    +0.159 C 
ATOM      6  N   UNL     1       3.946  -2.194  -0.946  0.00  0.00    -0.331 N 
ATOM      7  C   UNL     1       3.916  -3.195  -0.042  0.00  0.00    +0.020 C 
ATOM      8  C   UNL     1       4.732  -2.958   1.224  0.00  0.00    +0.121 C 
ATOM      9  S   UNL     1       4.666  -1.111   1.300  0.00  0.00    -0.128 S 
ATOM     10  C   UNL     1       3.211  -4.327  -0.244  0.00  0.00    +0.088 C 
ATOM     11  H   UNL     1       3.751  -2.364  -1.881  0.00  0.00    +0.147 HD
BRANCH   5  15
ATOM     12  C   UNL     1       0.937   1.788  -0.924  0.00  0.00    +0.000 A 
ATOM     13  C   UNL     1       2.222   2.296  -0.954  0.00  0.00    +0.000 A 
ATOM     14  C   UNL     1       3.304   1.447  -0.810  0.00  0.00    +0.006 A 
ATOM     15  C   UNL     1       3.100   0.091  -0.636  0.00  0.00    -0.017 A 
ATOM     16  C   UNL     1       1.815  -0.416  -0.606  0.00  0.00    +0.006 A 
ATOM     17  C   UNL     1       0.733   0.432  -0.751  0.00  0.00    +0.000 A 
ENDBRANCH   5  15
ENDBRANCH   1  10
BRANCH   3  18
ATOM     18  N   UNL     1       0.885  -5.711  -2.736  0.00  0.00    -0.230 N 
ATOM     19  C   UNL     1       0.274  -6.882  -3.006  0.00  0.00    +0.258 C 
ATOM     20  O   UNL     1       0.464  -7.846  -2.289  0.00  0.00    -0.269 OA
ATOM     21  H   UNL     1       0.734  -4.942  -3.307  0.00  0.00    +0.173 HD
BRANCH  19  22
ATOM     22  C   UNL     1      -0.619  -6.993  -4.163  0.00  0.00    +0.044 C 
ATOM     23  C   UNL     1      -1.319  -8.107  -4.571  0.00  0.00    +0.008 A 
ATOM     24  C   UNL     1      -1.413  -9.426  -4.059  0.00  0.00    +0.010 A 
ATOM     25  C   UNL     1      -2.193 -10.341  -4.674  0.00  0.00    +0.001 A 
ATOM     26  C   UNL     1      -2.937 -10.043  -5.828  0.00  0.00    +0.002 A 
ATOM     27  C   UNL     1      -2.917  -8.818  -6.396  0.00  0.00    +0.026 A 
ATOM     28  C   UNL     1      -2.093  -7.761  -5.788  0.00  0.00    +0.043 A 
ATOM     29  N   UNL     1      -1.891  -6.517  -6.119  0.00  0.00    -0.380 N 
ATOM     30  C   UNL     1      -0.970  -5.905  -5.155  0.00  0.00    +0.154 C 
ATOM     31  H   UNL     1      -2.289  -6.065  -6.879  0.00  0.00    +0.160 HD
ENDBRANCH  19  22
ENDBRANCH   3  18
TORSDOF 4
