REMARK  Name = ZINC34749957
REMARK  10 active torsions:
REMARK  status: ('A' for Active; 'I' for Inactive)
REMARK    1  A    between atoms: C_1  and  C_2
REMARK    2  A    between atoms: C_2  and  S_3
REMARK    3  A    between atoms: S_3  and  C_4
REMARK    4  A    between atoms: C_15  and  C_17
REMARK    5  A    between atoms: C_15  and  C_18
REMARK    6  A    between atoms: N_22  and  C_25
REMARK    7  A    between atoms: C_25  and  C_26
REMARK    8  A    between atoms: N_28  and  C_29
REMARK    9  A    between atoms: C_32  and  O_35
REMARK   10  A    between atoms: O_35  and  C_36
REMARK                            x       y       z     vdW  Elec       q    Type
REMARK                         _______ _______ _______ _____ _____    ______ ____
ROOT
ATOM      1  C   UNL     1       2.614  -2.966   0.341  0.00  0.00    +0.191 A 
ATOM      2  N   UNL     1       2.949  -3.688  -0.722  0.00  0.00    -0.206 NA
ATOM      3  C   UNL     1       2.128  -3.854  -1.745  0.00  0.00    +0.134 A 
ATOM      4  C   UNL     1       0.843  -3.243  -1.714  0.00  0.00    +0.051 A 
ATOM      5  C   UNL     1      -0.218  -3.286  -2.719  0.00  0.00    -0.020 A 
ATOM      6  C   UNL     1      -1.355  -2.612  -2.442  0.00  0.00    +0.021 A 
ATOM      7  S   UNL     1      -1.087  -1.890  -0.848  0.00  0.00    -0.071 S 
ATOM      8  C   UNL     1       0.556  -2.493  -0.555  0.00  0.00    +0.115 A 
ATOM      9  N   UNL     1       1.429  -2.378   0.427  0.00  0.00    -0.215 NA
ATOM     10  C   UNL     1      -2.564  -2.517  -3.320  0.00  0.00    +0.203 C 
ATOM     11  O   UNL     1      -2.199  -2.987  -4.627  0.00  0.00    -0.368 OA
ATOM     12  C   UNL     1      -1.502  -4.235  -4.610  0.00  0.00    +0.068 C 
ATOM     13  C   UNL     1      -0.095  -4.045  -4.038  0.00  0.00    +0.071 C 
ATOM     14  C   UNL     1      -2.272  -5.234  -3.743  0.00  0.00    +0.041 C 
ATOM     15  C   UNL     1      -1.401  -4.780  -6.036  0.00  0.00    +0.041 C 
ATOM     16  N   UNL     1       2.514  -4.614  -2.835  0.00  0.00    -0.318 N 
ATOM     17  C   UNL     1       2.352  -6.076  -2.833  0.00  0.00    +0.088 C 
ATOM     18  C   UNL     1       3.684  -6.713  -3.243  0.00  0.00    -0.059 C 
ATOM     19  N   UNL     1       4.118  -6.153  -4.529  0.00  0.00    +0.387 N 
ATOM     20  C   UNL     1       4.395  -4.718  -4.382  0.00  0.00    -0.059 C 
ATOM     21  C   UNL     1       3.092  -3.982  -4.031  0.00  0.00    +0.088 C 
ATOM     22  H   UNL     1       3.390  -6.285  -5.215  0.00  0.00    -0.081 HD
ENDROOT
BRANCH   1  23
ATOM     23  S   UNL     1       3.764  -2.792   1.665  0.00  0.00    -0.086 S 
BRANCH  23  25
ATOM     24  C   UNL     1       3.790  -1.523   4.087  0.00  0.00    +0.016 C 
ATOM     25  C   UNL     1       2.892  -1.755   2.870  0.00  0.00    +0.074 C 
ENDBRANCH  23  25
ENDBRANCH   1  23
BRANCH  19  26
ATOM     26  C   UNL     1       5.337  -6.841  -4.975  0.00  0.00    +0.019 C 
BRANCH  26  27
ATOM     27  C   UNL     1       5.714  -6.354  -6.350  0.00  0.00    +0.201 C 
ATOM     28  O   UNL     1       5.035  -5.516  -6.904  0.00  0.00    -0.278 OA
ATOM     29  N   UNL     1       6.807  -6.850  -6.964  0.00  0.00    -0.287 N 
ATOM     30  H   UNL     1       7.312  -7.567  -6.550  0.00  0.00    +0.155 HD
BRANCH  29  31
ATOM     31  C   UNL     1       7.212  -6.331  -8.200  0.00  0.00    +0.034 A 
ATOM     32  C   UNL     1       8.563  -6.228  -8.501  0.00  0.00    +0.027 A 
ATOM     33  C   UNL     1       8.962  -5.716  -9.720  0.00  0.00    +0.047 A 
ATOM     34  C   UNL     1       8.012  -5.304 -10.644  0.00  0.00    +0.120 A 
ATOM     35  C   UNL     1       6.662  -5.407 -10.344  0.00  0.00    +0.047 A 
ATOM     36  C   UNL     1       6.262  -5.924  -9.128  0.00  0.00    +0.027 A 
BRANCH  34  37
ATOM     37  O   UNL     1       8.406  -4.800 -11.844  0.00  0.00    -0.495 OA
ATOM     38  C   UNL     1       7.375  -4.396 -12.747  0.00  0.00    +0.277 C 
ENDBRANCH  34  37
ENDBRANCH  29  31
ENDBRANCH  26  27
ENDBRANCH  19  26
TORSDOF 6
