REMARK  Name = ZINC27007574
REMARK  14 active torsions:
REMARK  status: ('A' for Active; 'I' for Inactive)
REMARK    1  A    between atoms: C_1  and  C_2
REMARK    2  A    between atoms: C_2  and  C_4
REMARK    3  A    between atoms: C_2  and  N_17
REMARK    4  A    between atoms: N_6  and  C_7
REMARK    5  A    between atoms: C_10  and  C_13
REMARK    6  A    between atoms: C_13  and  C_14
REMARK    7  A    between atoms: C_13  and  C_15
REMARK    8  A    between atoms: C_13  and  C_16
REMARK    9  A    between atoms: N_17  and  C_18
REMARK   10  A    between atoms: C_21  and  C_24
REMARK   11  A    between atoms: C_24  and  C_25
REMARK   12  A    between atoms: N_27  and  C_28
REMARK   13  A    between atoms: C_28  and  C_29
REMARK   14  A    between atoms: C_28  and  C_30
REMARK                            x       y       z     vdW  Elec       q    Type
REMARK                         _______ _______ _______ _____ _____    ______ ____
ROOT
ATOM      1  C   UNL     1      -0.028   1.531   0.022  0.00  0.00    +0.038 C 
ATOM      2  C   UNL     1       0.000   0.002   0.005  0.00  0.00    +0.154 C 
ENDROOT
BRANCH   2   3
ATOM      3  C   UNL     1      -1.411  -0.527   0.012  0.00  0.00    +0.237 C 
ATOM      4  O   UNL     1      -1.787  -1.242   0.917  0.00  0.00    -0.273 OA
ATOM      5  N   UNL     1      -2.256  -0.206  -0.988  0.00  0.00    -0.284 N 
ATOM      6  H   UNL     1      -1.977   0.418  -1.677  0.00  0.00    +0.155 HD
BRANCH   5   7
ATOM      7  C   UNL     1      -3.534  -0.773  -1.034  0.00  0.00    +0.033 A 
ATOM      8  C   UNL     1      -4.114  -1.085  -2.257  0.00  0.00    +0.023 A 
ATOM      9  C   UNL     1      -5.376  -1.644  -2.299  0.00  0.00    +0.006 A 
ATOM     10  C   UNL     1      -6.061  -1.895  -1.124  0.00  0.00    -0.042 A 
ATOM     11  C   UNL     1      -5.487  -1.586   0.095  0.00  0.00    +0.006 A 
ATOM     12  C   UNL     1      -4.223  -1.032   0.144  0.00  0.00    +0.023 A 
BRANCH  10  13
ATOM     13  C   UNL     1      -7.438  -2.506  -1.173  0.00  0.00    -0.013 C 
ATOM     14  C   UNL     1      -7.366  -3.872  -1.859  0.00  0.00    +0.015 C 
ATOM     15  C   UNL     1      -7.971  -2.678   0.250  0.00  0.00    +0.015 C 
ATOM     16  C   UNL     1      -8.375  -1.589  -1.961  0.00  0.00    +0.015 C 
ENDBRANCH  10  13
ENDBRANCH   5   7
ENDBRANCH   2   3
BRANCH   2  17
ATOM     17  N   UNL     1       0.710  -0.487   1.190  0.00  0.00    -0.333 N 
ATOM     18  H   UNL     1       0.213  -0.735   1.985  0.00  0.00    +0.147 HD
BRANCH  17  19
ATOM     19  C   UNL     1       2.102  -0.594   1.175  0.00  0.00    +0.028 A 
ATOM     20  C   UNL     1       2.816  -0.233   0.040  0.00  0.00    +0.023 A 
ATOM     21  C   UNL     1       4.193  -0.340   0.028  0.00  0.00    +0.006 A 
ATOM     22  C   UNL     1       4.861  -0.806   1.146  0.00  0.00    -0.039 A 
ATOM     23  C   UNL     1       4.154  -1.167   2.278  0.00  0.00    +0.006 A 
ATOM     24  C   UNL     1       2.777  -1.057   2.298  0.00  0.00    +0.023 A 
BRANCH  22  25
ATOM     25  C   UNL     1       6.364  -0.922   1.129  0.00  0.00    +0.130 C 
BRANCH  25  26
ATOM     26  C   UNL     1       6.973   0.368   1.614  0.00  0.00    +0.218 C 
ATOM     27  O   UNL     1       6.257   1.291   1.941  0.00  0.00    -0.275 OA
ATOM     28  N   UNL     1       8.312   0.496   1.685  0.00  0.00    -0.313 N 
ATOM     29  H   UNL     1       8.885  -0.242   1.424  0.00  0.00    +0.149 HD
BRANCH  28  30
ATOM     30  C   UNL     1       8.904   1.751   2.156  0.00  0.00    +0.067 C 
ATOM     31  C   UNL     1      10.296   1.474   2.729  0.00  0.00    +0.027 C 
ATOM     32  C   UNL     1       9.019   2.731   0.987  0.00  0.00    +0.027 C 
ENDBRANCH  28  30
ENDBRANCH  25  26
ENDBRANCH  22  25
ENDBRANCH  17  19
ENDBRANCH   2  17
TORSDOF 8
