REMARK  Name = ZINC64774562
REMARK  9 active torsions:
REMARK  status: ('A' for Active; 'I' for Inactive)
REMARK    1  A    between atoms: C_1  and  C_2
REMARK    2  A    between atoms: C_2  and  C_3
REMARK    3  A    between atoms: C_2  and  C_4
REMARK    4  A    between atoms: N_6  and  C_7
REMARK    5  A    between atoms: C_12  and  C_13
REMARK    6  A    between atoms: C_17  and  S_20
REMARK    7  A    between atoms: S_20  and  C_21
REMARK    8  A    between atoms: C_21  and  C_22
REMARK    9  A    between atoms: N_24  and  C_25
REMARK                            x       y       z     vdW  Elec       q    Type
REMARK                         _______ _______ _______ _____ _____    ______ ____
ROOT
ATOM      1  C   UNL     1      -2.235  -4.749   0.066  0.00  0.00    +0.161 A 
ATOM      2  C   UNL     1      -2.509  -6.129   0.034  0.00  0.00    +0.300 A 
ATOM      3  O   UNL     1      -3.786  -6.581   0.036  0.00  0.00    -0.263 OA
ATOM      4  N   UNL     1      -1.490  -6.977   0.002  0.00  0.00    -0.180 NA
ATOM      5  C   UNL     1      -0.247  -6.506   0.000  0.00  0.00    +0.213 A 
ATOM      6  N   UNL     1      -0.011  -5.200   0.031  0.00  0.00    -0.122 NA
ATOM      7  N   UNL     1      -0.971  -4.343   0.058  0.00  0.00    -0.141 NA
ENDROOT
BRANCH   1  13
ATOM      8  C   UNL     1      -3.248  -2.633   0.924  0.00  0.00    +0.043 A 
ATOM      9  C   UNL     1      -4.287  -1.713   0.948  0.00  0.00    +0.024 A 
ATOM     10  C   UNL     1      -5.409  -1.917   0.168  0.00  0.00    +0.002 A 
ATOM     11  C   UNL     1      -5.506  -3.037  -0.639  0.00  0.00    +0.001 A 
ATOM     12  C   UNL     1      -4.481  -3.960  -0.673  0.00  0.00    +0.012 A 
ATOM     13  C   UNL     1      -3.341  -3.763   0.104  0.00  0.00    +0.029 A 
BRANCH   8  16
ATOM     14  C   UNL     1      -1.771  -1.181   2.091  0.00  0.00    +0.220 C 
ATOM     15  O   UNL     1      -2.387  -0.227   1.664  0.00  0.00    -0.275 OA
ATOM     16  N   UNL     1      -2.112  -2.428   1.711  0.00  0.00    -0.285 N 
ATOM     17  H   UNL     1      -1.569  -3.184   1.984  0.00  0.00    +0.155 HD
BRANCH  14  19
ATOM     18  C   UNL     1      -0.450   0.525   3.313  0.00  0.00    +0.017 C 
ATOM     19  C   UNL     1      -0.626  -0.971   3.048  0.00  0.00    +0.069 C 
ATOM     20  C   UNL     1      -0.923  -1.691   4.365  0.00  0.00    +0.017 C 
ENDBRANCH  14  19
ENDBRANCH   8  16
ENDBRANCH   1  13
BRANCH   5  21
ATOM     21  S   UNL     1       1.107  -7.632  -0.043  0.00  0.00    -0.075 S 
BRANCH  21  22
ATOM     22  C   UNL     1       2.570  -6.559  -0.032  0.00  0.00    +0.173 C 
BRANCH  22  23
ATOM     23  C   UNL     1       3.815  -7.407  -0.067  0.00  0.00    +0.228 C 
ATOM     24  O   UNL     1       3.725  -8.616  -0.097  0.00  0.00    -0.275 OA
ATOM     25  N   UNL     1       5.029  -6.822  -0.065  0.00  0.00    -0.283 N 
ATOM     26  H   UNL     1       5.102  -5.856  -0.109  0.00  0.00    +0.155 HD
BRANCH  25  27
ATOM     27  C   UNL     1       6.186  -7.609  -0.000  0.00  0.00    +0.069 A 
ATOM     28  C   UNL     1       6.221  -8.847  -0.627  0.00  0.00    +0.026 A 
ATOM     29  C   UNL     1       7.363  -9.621  -0.561  0.00  0.00    +0.002 A 
ATOM     30  C   UNL     1       8.472  -9.165   0.127  0.00  0.00    +0.003 A 
ATOM     31  C   UNL     1       8.442  -7.932   0.753  0.00  0.00    +0.040 A 
ATOM     32  C   UNL     1       7.304  -7.149   0.687  0.00  0.00    +0.144 A 
ATOM     33  F   UNL     1       7.276  -5.943   1.294  0.00  0.00    -0.204 F 
ENDBRANCH  25  27
ENDBRANCH  22  23
ENDBRANCH  21  22
ENDBRANCH   5  21
TORSDOF 7
