REMARK  Name = ZINC57601884
REMARK  6 active torsions:
REMARK  status: ('A' for Active; 'I' for Inactive)
REMARK    1  A    between atoms: C_4  and  O_7
REMARK    2  A    between atoms: O_7  and  C_8
REMARK    3  A    between atoms: C_8  and  C_10
REMARK    4  A    between atoms: C_8  and  C_20
REMARK    5  A    between atoms: C_10  and  C_11
REMARK    6  A    between atoms: C_11  and  C_12
REMARK                            x       y       z     vdW  Elec       q    Type
REMARK                         _______ _______ _______ _____ _____    ______ ____
ROOT
ATOM      1  C   UNL     1       3.535  -2.056   0.067  0.00  0.00    +0.275 C 
ENDROOT
BRANCH   1   2
ATOM      2  C   UNL     1       3.470  -2.443   1.486  0.00  0.00    +0.107 C 
ATOM      3  N   UNL     1       3.420  -2.741   2.581  0.00  0.00    -0.193 NA
ENDBRANCH   1   2
BRANCH   1   4
ATOM      4  O   UNL     1       3.586  -0.632  -0.037  0.00  0.00    -0.474 OA
BRANCH   4   8
ATOM      5  C   UNL     1      -0.014   1.382   0.056  0.00  0.00    +0.000 A 
ATOM      6  C   UNL     1       0.018   0.015   0.263  0.00  0.00    +0.004 A 
ATOM      7  C   UNL     1       1.222  -0.662   0.232  0.00  0.00    +0.046 A 
ATOM      8  C   UNL     1       2.400   0.031  -0.007  0.00  0.00    +0.122 A 
ATOM      9  C   UNL     1       2.365   1.403  -0.214  0.00  0.00    +0.046 A 
ATOM     10  C   UNL     1       1.159   2.075  -0.182  0.00  0.00    +0.004 A 
ENDBRANCH   4   8
ENDBRANCH   1   4
BRANCH   1  11
ATOM     11  C   UNL     1       4.790  -2.659  -0.569  0.00  0.00    +0.065 C 
BRANCH  11  12
ATOM     12  C   UNL     1       4.793  -2.362  -2.070  0.00  0.00    +0.040 C 
BRANCH  12  13
ATOM     13  C   UNL     1       6.029  -2.956  -2.696  0.00  0.00    -0.046 A 
ATOM     14  C   UNL     1       7.190  -2.209  -2.774  0.00  0.00    +0.006 A 
ATOM     15  C   UNL     1       8.324  -2.752  -3.348  0.00  0.00    +0.040 A 
ATOM     16  C   UNL     1       8.298  -4.044  -3.844  0.00  0.00    +0.142 A 
ATOM     17  C   UNL     1       7.135  -4.792  -3.764  0.00  0.00    +0.076 A 
ATOM     18  C   UNL     1       6.002  -4.248  -3.185  0.00  0.00    +0.026 A 
ATOM     19 CL   UNL     1       7.099  -6.412  -4.386  0.00  0.00    -0.081 Cl
ATOM     20  F   UNL     1       9.406  -4.575  -4.405  0.00  0.00    -0.204 F 
ENDBRANCH  12  13
ENDBRANCH  11  12
ENDBRANCH   1  11
TORSDOF 6
