REMARK  Name = ZINC30679117
REMARK  4 active torsions:
REMARK  status: ('A' for Active; 'I' for Inactive)
REMARK    1  A    between atoms: C_3  and  S_16
REMARK    2  A    between atoms: C_6  and  N_7
REMARK    3  A    between atoms: C_8  and  C_10
REMARK    4  A    between atoms: S_16  and  N_19
REMARK                            x       y       z     vdW  Elec       q    Type
REMARK                         _______ _______ _______ _____ _____    ______ ____
ROOT
ATOM      1  C   UNL     1      -0.013   1.374   0.194  0.00  0.00    +0.025 A 
ATOM      2  C   UNL     1       1.174   2.082   0.191  0.00  0.00    +0.031 A 
ATOM      3  C   UNL     1       2.374   1.421   0.003  0.00  0.00    +0.113 A 
ATOM      4  C   UNL     1       2.391   0.051  -0.183  0.00  0.00    +0.031 A 
ATOM      5  C   UNL     1       1.208  -0.662  -0.182  0.00  0.00    +0.025 A 
ATOM      6  C   UNL     1       0.001  -0.002   0.007  0.00  0.00    +0.034 A 
ENDROOT
BRANCH   6   7
ATOM      7  N   UNL     1      -1.198  -0.721   0.010  0.00  0.00    -0.279 N 
ATOM      8  C   UNL     1      -2.324  -0.156  -0.469  0.00  0.00    +0.284 C 
ATOM      9  O   UNL     1      -2.279   0.943  -0.992  0.00  0.00    -0.266 OA
ATOM     10  H   UNL     1      -1.220  -1.627   0.357  0.00  0.00    +0.155 HD
BRANCH   8  11
ATOM     11  C   UNL     1      -3.603  -0.864  -0.361  0.00  0.00    +0.191 A 
ATOM     12  C   UNL     1      -4.811  -0.410  -0.807  0.00  0.00    +0.056 A 
ATOM     13  C   UNL     1      -5.754  -1.402  -0.499  0.00  0.00    +0.058 A 
ATOM     14  C   UNL     1      -5.088  -2.407   0.116  0.00  0.00    +0.171 A 
ATOM     15  O   UNL     1      -3.791  -2.080   0.192  0.00  0.00    -0.444 OA
ATOM     16 BR   UNL     1      -5.860  -4.010   0.756  0.00  0.00    -0.008 Br
ENDBRANCH   8  11
ENDBRANCH   6   7
BRANCH   3  17
ATOM     17  S   UNL     1       3.885   2.327  -0.001  0.00  0.00    +0.100 S 
ATOM     18  O   UNL     1       4.821   1.554  -0.740  0.00  0.00    -0.146 OA
ATOM     19  O   UNL     1       3.556   3.664  -0.352  0.00  0.00    -0.146 OA
BRANCH  17  20
ATOM     20  N   UNL     1       4.434   2.369   1.561  0.00  0.00    -0.118 NA
ATOM     21  C   UNL     1       5.539   2.980   1.841  0.00  0.00    +0.117 C 
ATOM     22  N   UNL     1       6.289   3.620   0.843  0.00  0.00    -0.331 N 
ATOM     23  C   UNL     1       6.355   5.051   0.889  0.00  0.00    +0.102 C 
ATOM     24  C   UNL     1       7.494   5.643   1.736  0.00  0.00    +0.019 C 
ATOM     25  C   UNL     1       7.655   4.848   3.056  0.00  0.00    +0.002 C 
ATOM     26  C   UNL     1       6.340   4.458   3.671  0.00  0.00    +0.008 C 
ATOM     27  C   UNL     1       6.043   3.032   3.198  0.00  0.00    +0.073 C 
ATOM     28  H   UNL     1       6.744   3.115   0.150  0.00  0.00    +0.147 HD
ENDBRANCH  17  20
ENDBRANCH   3  17
TORSDOF 4
