REMARK  Name = ZINC63279780
REMARK  6 active torsions:
REMARK  status: ('A' for Active; 'I' for Inactive)
REMARK    1  A    between atoms: C_1  and  C_2
REMARK    2  A    between atoms: C_6  and  C_10
REMARK    3  A    between atoms: C_12  and  C_14
REMARK    4  A    between atoms: N_16  and  C_17
REMARK    5  A    between atoms: C_17  and  C_18
REMARK    6  A    between atoms: C_18  and  C_19
REMARK                            x       y       z     vdW  Elec       q    Type
REMARK                         _______ _______ _______ _____ _____    ______ ____
ROOT
ATOM      1  C   UNL     1       1.270  -0.492   2.086  0.00  0.00    +0.230 C 
ATOM      2  O   UNL     1       2.295  -0.185   1.514  0.00  0.00    -0.274 OA
ATOM      3  N   UNL     1       1.244  -0.564   3.432  0.00  0.00    -0.314 N 
ATOM      4  H   UNL     1       0.425  -0.809   3.889  0.00  0.00    +0.149 HD
ENDROOT
BRANCH   1  16
ATOM      5  C   UNL     1      -0.018   1.503   0.010  0.00  0.00    +0.041 C 
ATOM      6  C   UNL     1       0.002  -0.004   0.002  0.00  0.00    -0.036 C 
ATOM      7  C   UNL     1       0.006  -0.691  -1.150  0.00  0.00    +0.071 C 
ATOM      8  C   UNL     1       0.026  -2.167  -1.069  0.00  0.00    +0.112 C 
ATOM      9  N   UNL     1       0.030  -2.895  -2.160  0.00  0.00    -0.228 NA
ATOM     10  C   UNL     1       0.016  -2.337  -3.360  0.00  0.00    +0.121 C 
ATOM     11  N   UNL     1      -0.003  -1.040  -3.554  0.00  0.00    -0.162 NA
ATOM     12  C   UNL     1      -0.008  -0.158  -2.549  0.00  0.00    +0.271 C 
ATOM     13  O   UNL     1      -0.026   1.042  -2.765  0.00  0.00    -0.268 OA
ATOM     14  C   UNL     1       0.021  -3.239  -4.567  0.00  0.00    +0.085 C 
ATOM     15  S   UNL     1       0.040  -2.523   0.670  0.00  0.00    -0.088 S 
ATOM     16  C   UNL     1       0.025  -0.793   1.292  0.00  0.00    +0.165 C 
ENDBRANCH   1  16
BRANCH   3  17
ATOM     17  C   UNL     1       2.455  -0.272   4.204  0.00  0.00    +0.108 C 
BRANCH  17  18
ATOM     18  C   UNL     1       2.156  -0.425   5.697  0.00  0.00    +0.052 C 
BRANCH  18  19
ATOM     19  C   UNL     1       3.401  -0.124   6.491  0.00  0.00    -0.040 C 
ATOM     20  C   UNL     1       3.741   1.058   7.054  0.00  0.00    -0.001 A 
ATOM     21  C   UNL     1       3.078   2.367   7.094  0.00  0.00    +0.010 A 
ATOM     22  C   UNL     1       3.677   3.386   7.751  0.00  0.00    +0.001 A 
ATOM     23  C   UNL     1       4.912   3.223   8.394  0.00  0.00    +0.002 A 
ATOM     24  C   UNL     1       5.582   2.051   8.402  0.00  0.00    +0.026 A 
ATOM     25  C   UNL     1       5.044   0.912   7.741  0.00  0.00    +0.043 A 
ATOM     26  N   UNL     1       5.493  -0.313   7.608  0.00  0.00    -0.380 N 
ATOM     27  C   UNL     1       4.521  -1.085   6.825  0.00  0.00    +0.144 C 
ATOM     28  H   UNL     1       6.326  -0.653   7.969  0.00  0.00    +0.160 HD
ENDBRANCH  18  19
ENDBRANCH  17  18
ENDBRANCH   3  17
TORSDOF 4
