REMARK  Name = ZINC35032891
REMARK  11 active torsions:
REMARK  status: ('A' for Active; 'I' for Inactive)
REMARK    1  A    between atoms: C_1  and  C_2
REMARK    2  A    between atoms: C_2  and  N_3
REMARK    3  A    between atoms: C_13  and  C_14
REMARK    4  A    between atoms: C_14  and  C_16
REMARK    5  A    between atoms: C_14  and  N_17
REMARK    6  A    between atoms: N_17  and  C_18
REMARK    7  A    between atoms: C_18  and  C_19
REMARK    8  A    between atoms: C_19  and  N_20
REMARK    9  A    between atoms: N_20  and  C_21
REMARK   10  A    between atoms: N_20  and  C_22
REMARK   11  A    between atoms: N_25  and  C_26
REMARK                            x       y       z     vdW  Elec       q    Type
REMARK                         _______ _______ _______ _____ _____    ______ ____
ROOT
ATOM      1  N   UNL     1      -1.803  -0.737   4.077  0.00  0.00    -0.277 N 
ATOM      2  C   UNL     1      -2.802  -1.638   4.162  0.00  0.00    +0.307 C 
ATOM      3  O   UNL     1      -2.941  -2.477   3.293  0.00  0.00    -0.252 OA
ATOM      4  N   UNL     1      -3.648  -1.608   5.211  0.00  0.00    -0.267 N 
ATOM      5  H   UNL     1      -3.578  -0.901   5.871  0.00  0.00    +0.156 HD
ENDROOT
BRANCH   4   6
ATOM      6  C   UNL     1      -4.630  -2.600   5.348  0.00  0.00    +0.070 A 
ATOM      7  C   UNL     1      -4.484  -3.817   4.697  0.00  0.00    +0.029 A 
ATOM      8  C   UNL     1      -5.452  -4.793   4.834  0.00  0.00    +0.040 A 
ATOM      9  C   UNL     1      -6.569  -4.559   5.619  0.00  0.00    +0.126 A 
ATOM     10  C   UNL     1      -6.718  -3.345   6.269  0.00  0.00    +0.078 A 
ATOM     11  C   UNL     1      -5.749  -2.368   6.140  0.00  0.00    +0.147 A 
ATOM     12  F   UNL     1      -5.891  -1.186   6.779  0.00  0.00    -0.203 F 
ATOM     13  F   UNL     1      -7.514  -5.515   5.750  0.00  0.00    -0.205 F 
ENDBRANCH   4   6
BRANCH   1  14
ATOM     14  C   UNL     1      -0.884  -0.770   2.937  0.00  0.00    +0.141 C 
ATOM     15  C   UNL     1      -0.960   0.559   2.182  0.00  0.00    +0.036 C 
BRANCH  14  26
ATOM     16  N   UNL     1       1.147  -2.149   3.110  0.00  0.00    -0.295 N 
ATOM     17  C   UNL     1       2.413  -2.389   3.526  0.00  0.00    +0.262 A 
ATOM     18  O   UNL     1       2.986  -3.425   3.240  0.00  0.00    -0.267 OA
ATOM     19  C   UNL     1       3.068  -1.351   4.335  0.00  0.00    +0.065 A 
ATOM     20  C   UNL     1       4.369  -1.500   4.811  0.00  0.00    +0.015 A 
ATOM     21  C   UNL     1       4.935  -0.495   5.565  0.00  0.00    +0.001 A 
ATOM     22  C   UNL     1       4.220   0.661   5.852  0.00  0.00    +0.002 A 
ATOM     23  C   UNL     1       2.934   0.827   5.390  0.00  0.00    +0.028 A 
ATOM     24  C   UNL     1       2.338  -0.177   4.624  0.00  0.00    +0.078 A 
ATOM     25  N   UNL     1       1.074  -0.054   4.149  0.00  0.00    -0.232 NA
ATOM     26  C   UNL     1       0.523  -0.986   3.432  0.00  0.00    +0.133 A 
BRANCH  16  28
ATOM     27  C   UNL     1       0.617  -2.816   0.818  0.00  0.00    +0.027 C 
ATOM     28  C   UNL     1       0.447  -3.150   2.301  0.00  0.00    +0.123 C 
ENDBRANCH  16  28
ENDBRANCH  14  26
ENDBRANCH   1  14
BRANCH   1  29
ATOM     29  C   UNL     1      -1.637   0.274   5.124  0.00  0.00    +0.091 C 
BRANCH  29  30
ATOM     30  C   UNL     1      -2.448   1.520   4.762  0.00  0.00    -0.060 C 
BRANCH  30  31
ATOM     31  N   UNL     1      -2.281   2.534   5.812  0.00  0.00    +0.377 N 
ATOM     32  C   UNL     1      -0.881   2.977   5.847  0.00  0.00    -0.097 C 
ATOM     33  C   UNL     1      -3.151   3.682   5.527  0.00  0.00    -0.097 C 
ATOM     34  H   UNL     1      -2.530   2.137   6.706  0.00  0.00    -0.083 HD
ENDBRANCH  30  31
ENDBRANCH  29  30
ENDBRANCH   1  29
TORSDOF 7
