REMARK  Name = ZINC39984405
REMARK  5 active torsions:
REMARK  status: ('A' for Active; 'I' for Inactive)
REMARK    1  A    between atoms: N_7  and  S_8
REMARK    2  A    between atoms: S_8  and  C_11
REMARK    3  A    between atoms: C_19  and  N_24
REMARK    4  A    between atoms: N_24  and  C_25
REMARK    5  A    between atoms: C_28  and  O_31
REMARK                            x       y       z     vdW  Elec       q    Type
REMARK                         _______ _______ _______ _____ _____    ______ ____
ROOT
ATOM      1  C   UNL     1       0.573   1.430  -0.701  0.00  0.00    +0.002 A 
ATOM      2  C   UNL     1       1.793   2.108  -0.541  0.00  0.00    +0.002 A 
ATOM      3  C   UNL     1       2.960   1.468  -0.314  0.00  0.00    +0.030 A 
ATOM      4  C   UNL     1       2.996   0.053  -0.227  0.00  0.00    +0.089 A 
ATOM      5  N   UNL     1       4.137  -0.566  -0.005  0.00  0.00    -0.226 NA
ATOM      6  C   UNL     1       4.206  -1.904   0.083  0.00  0.00    +0.192 C 
ATOM      7  N   UNL     1       5.345  -2.493   0.303  0.00  0.00    -0.110 NA
ATOM      8  C   UNL     1       2.941  -2.717  -0.078  0.00  0.00    +0.237 C 
ATOM      9  N   UNL     1       1.685  -1.991  -0.325  0.00  0.00    -0.359 N 
ATOM     10  C   UNL     1       1.722  -0.689  -0.393  0.00  0.00    +0.063 A 
ATOM     11  C   UNL     1       0.495   0.083  -0.637  0.00  0.00    +0.027 A 
ATOM     12  H   UNL     1       0.849  -2.470  -0.434  0.00  0.00    +0.162 HD
ENDROOT
BRANCH   7  13
ATOM     13  S   UNL     1       6.723  -1.591   0.478  0.00  0.00    +0.102 S 
ATOM     14  O   UNL     1       6.970  -0.979  -0.781  0.00  0.00    -0.146 OA
ATOM     15  O   UNL     1       6.567  -0.839   1.673  0.00  0.00    -0.146 OA
BRANCH  13  16
ATOM     16  C   UNL     1       8.049  -2.716   0.760  0.00  0.00    +0.132 A 
ATOM     17  C   UNL     1       9.070  -2.826  -0.165  0.00  0.00    +0.050 A 
ATOM     18  C   UNL     1      10.112  -3.709   0.056  0.00  0.00    +0.043 A 
ATOM     19  C   UNL     1      10.131  -4.483   1.204  0.00  0.00    +0.021 A 
ATOM     20  C   UNL     1       9.110  -4.373   2.128  0.00  0.00    +0.023 A 
ATOM     21  C   UNL     1       8.071  -3.485   1.909  0.00  0.00    +0.068 A 
ATOM     22 CL   UNL     1       6.792  -3.342   3.075  0.00  0.00    -0.082 Cl
ATOM     23 CL   UNL     1      11.394  -3.848  -1.105  0.00  0.00    -0.083 Cl
ENDBRANCH  13  16
ENDBRANCH   7  13
BRANCH   8  24
ATOM     24  N   UNL     1       2.764  -3.514   1.139  0.00  0.00    -0.318 N 
ATOM     25  H   UNL     1       2.909  -3.110   2.009  0.00  0.00    +0.148 HD
BRANCH  24  26
ATOM     26  C   UNL     1       2.386  -4.858   1.046  0.00  0.00    +0.029 A 
ATOM     27  C   UNL     1       2.034  -5.397  -0.184  0.00  0.00    +0.026 A 
ATOM     28  C   UNL     1       1.662  -6.724  -0.275  0.00  0.00    +0.047 A 
ATOM     29  C   UNL     1       1.640  -7.518   0.862  0.00  0.00    +0.117 A 
ATOM     30  C   UNL     1       1.991  -6.980   2.091  0.00  0.00    +0.047 A 
ATOM     31  C   UNL     1       2.369  -5.655   2.183  0.00  0.00    +0.026 A 
BRANCH  29  32
ATOM     32  O   UNL     1       1.273  -8.824   0.771  0.00  0.00    -0.507 OA
ATOM     33  H   UNL     1       2.009  -9.429   0.603  0.00  0.00    +0.292 HD
ENDBRANCH  29  32
ENDBRANCH  24  26
ENDBRANCH   8  24
TORSDOF 5
