REMARK  Name = ZINC33718239
REMARK  11 active torsions:
REMARK  status: ('A' for Active; 'I' for Inactive)
REMARK    1  A    between atoms: C_1  and  C_2
REMARK    2  A    between atoms: C_2  and  C_3
REMARK    3  A    between atoms: C_3  and  C_4
REMARK    4  A    between atoms: C_3  and  C_8
REMARK    5  A    between atoms: C_3  and  N_12
REMARK    6  A    between atoms: N_15  and  C_16
REMARK    7  A    between atoms: C_19  and  S_22
REMARK    8  A    between atoms: S_22  and  N_25
REMARK    9  A    between atoms: N_25  and  C_26
REMARK   10  A    between atoms: C_27  and  C_32
REMARK   11  A    between atoms: C_28  and  C_31
REMARK                            x       y       z     vdW  Elec       q    Type
REMARK                         _______ _______ _______ _____ _____    ______ ____
ROOT
ATOM      1  N   UNL     1       0.570  -1.900  -1.573  0.00  0.00    -0.278 N 
ATOM      2  C   UNL     1       1.307  -2.399  -2.586  0.00  0.00    +0.305 C 
ATOM      3  O   UNL     1       1.306  -1.845  -3.668  0.00  0.00    -0.252 OA
ATOM      4  N   UNL     1       2.044  -3.511  -2.398  0.00  0.00    -0.269 N 
ATOM      5  H   UNL     1       0.631  -2.295  -0.689  0.00  0.00    +0.151 HD
ATOM      6  H   UNL     1       1.985  -3.997  -1.560  0.00  0.00    +0.156 HD
ENDROOT
BRANCH   4   7
ATOM      7  C   UNL     1       2.893  -3.967  -3.413  0.00  0.00    +0.035 A 
ATOM      8  C   UNL     1       3.525  -3.058  -4.252  0.00  0.00    +0.025 A 
ATOM      9  C   UNL     1       4.363  -3.511  -5.252  0.00  0.00    +0.031 A 
ATOM     10  C   UNL     1       4.573  -4.867  -5.419  0.00  0.00    +0.111 A 
ATOM     11  C   UNL     1       3.945  -5.775  -4.586  0.00  0.00    +0.031 A 
ATOM     12  C   UNL     1       3.110  -5.328  -3.580  0.00  0.00    +0.025 A 
BRANCH  10  13
ATOM     13  S   UNL     1       5.643  -5.441  -6.696  0.00  0.00    +0.094 S 
ATOM     14  O   UNL     1       5.245  -6.773  -6.991  0.00  0.00    -0.148 OA
ATOM     15  O   UNL     1       5.680  -4.420  -7.684  0.00  0.00    -0.148 OA
BRANCH  13  16
ATOM     16  N   UNL     1       7.167  -5.533  -6.053  0.00  0.00    -0.057 NA
BRANCH  16  17
ATOM     17  C   UNL     1       8.223  -5.959  -6.838  0.00  0.00    +0.262 A 
ATOM     18  C   UNL     1       9.516  -6.087  -6.439  0.00  0.00    +0.037 A 
ATOM     19  C   UNL     1      10.263  -6.545  -7.532  0.00  0.00    +0.085 A 
ATOM     20  N   UNL     1       9.456  -6.688  -8.547  0.00  0.00    -0.081 NA
ATOM     21  O   UNL     1       8.153  -6.327  -8.128  0.00  0.00    -0.336 OA
ATOM     22  C   UNL     1      11.744  -6.824  -7.534  0.00  0.00    +0.069 C 
ATOM     23  C   UNL     1      10.052  -5.787  -5.063  0.00  0.00    +0.051 C 
ENDBRANCH  16  17
ENDBRANCH  13  16
ENDBRANCH  10  13
ENDBRANCH   4   7
BRANCH   1  24
ATOM     24  C   UNL     1      -0.321  -0.761  -1.807  0.00  0.00    +0.226 C 
BRANCH  24  25
ATOM     25  C   UNL     1      -0.929  -0.307  -0.478  0.00  0.00    +0.419 C 
ATOM     26  F   UNL     1      -1.670   0.862  -0.679  0.00  0.00    -0.168 F 
ATOM     27  F   UNL     1      -1.768  -1.311   0.018  0.00  0.00    -0.168 F 
ATOM     28  F   UNL     1       0.095  -0.059   0.442  0.00  0.00    -0.168 F 
ENDBRANCH  24  25
BRANCH  24  29
ATOM     29  C   UNL     1      -1.440  -1.178  -2.764  0.00  0.00    +0.419 C 
ATOM     30  F   UNL     1      -0.897  -1.464  -4.021  0.00  0.00    -0.168 F 
ATOM     31  F   UNL     1      -2.082  -2.316  -2.263  0.00  0.00    -0.168 F 
ATOM     32  F   UNL     1      -2.365  -0.135  -2.882  0.00  0.00    -0.168 F 
ENDBRANCH  24  29
BRANCH  24  34
ATOM     33  C   UNL     1       1.672   0.720  -1.530  0.00  0.00    +0.006 C 
ATOM     34  C   UNL     1       0.474   0.391  -2.424  0.00  0.00    +0.041 C 
ENDBRANCH  24  34
ENDBRANCH   1  24
TORSDOF 8
