REMARK  Name = ZINC32740780
REMARK  4 active torsions:
REMARK  status: ('A' for Active; 'I' for Inactive)
REMARK    1  A    between atoms: C_1  and  C_2
REMARK    2  A    between atoms: C_6  and  C_16
REMARK    3  A    between atoms: N_8  and  C_9
REMARK    4  A    between atoms: C_22  and  C_24
REMARK                            x       y       z     vdW  Elec       q    Type
REMARK                         _______ _______ _______ _____ _____    ______ ____
ROOT
ATOM      1  C   UNL     1      -0.224   3.578   2.149  0.00  0.00    +0.271 C 
ATOM      2  O   UNL     1       0.716   3.048   2.710  0.00  0.00    -0.268 OA
ATOM      3  N   UNL     1      -0.309   3.553   0.804  0.00  0.00    -0.289 N 
ATOM      4  C   UNL     1      -1.389   4.152  -0.001  0.00  0.00    +0.109 C 
ATOM      5  C   UNL     1      -0.753   4.406  -1.390  0.00  0.00    +0.021 C 
ATOM      6  C   UNL     1       0.166   3.166  -1.544  0.00  0.00    +0.029 C 
ATOM      7  C   UNL     1       0.661   2.921  -0.103  0.00  0.00    +0.107 C 
ENDROOT
BRANCH   7   8
ATOM      8  C   UNL     1       0.730   1.441   0.171  0.00  0.00    -0.023 A 
ATOM      9  C   UNL     1      -0.422   0.740   0.474  0.00  0.00    +0.009 A 
ATOM     10  C   UNL     1      -0.362  -0.617   0.726  0.00  0.00    +0.050 A 
ATOM     11  C   UNL     1       0.855  -1.280   0.675  0.00  0.00    +0.162 A 
ATOM     12  C   UNL     1       2.013  -0.576   0.368  0.00  0.00    +0.162 A 
ATOM     13  C   UNL     1       1.946   0.786   0.117  0.00  0.00    +0.055 A 
ATOM     14  O   UNL     1       3.217  -1.208   0.308  0.00  0.00    -0.485 OA
ATOM     15  C   UNL     1       3.300  -2.495   0.931  0.00  0.00    +0.270 C 
ATOM     16  C   UNL     1       2.074  -3.315   0.505  0.00  0.00    +0.270 C 
ATOM     17  O   UNL     1       0.898  -2.617   0.929  0.00  0.00    -0.485 OA
ENDBRANCH   7   8
BRANCH   1  23
ATOM     18  C   UNL     1      -4.366   6.219   5.052  0.00  0.00    +0.066 C 
ATOM     19  C   UNL     1      -3.234   5.503   4.361  0.00  0.00    +0.044 A 
ATOM     20  C   UNL     1      -2.242   4.951   5.100  0.00  0.00    +0.076 A 
ATOM     21  C   UNL     1      -1.198   4.282   4.411  0.00  0.00    +0.213 A 
ATOM     22  O   UNL     1      -0.274   3.757   5.012  0.00  0.00    -0.285 OA
ATOM     23  C   UNL     1      -1.273   4.250   2.942  0.00  0.00    +0.193 A 
ATOM     24  N   UNL     1      -2.296   4.828   2.348  0.00  0.00    -0.158 NA
ATOM     25  N   UNL     1      -3.222   5.419   3.008  0.00  0.00    -0.236 N 
BRANCH  25  26
ATOM     26  C   UNL     1      -4.274   6.007   2.297  0.00  0.00    +0.066 A 
ATOM     27  C   UNL     1      -5.587   5.798   2.697  0.00  0.00    +0.029 A 
ATOM     28  C   UNL     1      -6.623   6.384   1.995  0.00  0.00    +0.022 A 
ATOM     29  C   UNL     1      -6.353   7.170   0.889  0.00  0.00    +0.041 A 
ATOM     30  C   UNL     1      -5.045   7.376   0.485  0.00  0.00    +0.022 A 
ATOM     31  C   UNL     1      -4.006   6.797   1.185  0.00  0.00    +0.029 A 
ATOM     32 CL   UNL     1      -7.658   7.899   0.005  0.00  0.00    -0.084 Cl
ENDBRANCH  25  26
ENDBRANCH   1  23
TORSDOF 3
