REMARK  Name = ZINC06588972
REMARK  5 active torsions:
REMARK  status: ('A' for Active; 'I' for Inactive)
REMARK    1  A    between atoms: C_1  and  C_2
REMARK    2  A    between atoms: C_2  and  C_24
REMARK    3  A    between atoms: N_5  and  N_9
REMARK    4  A    between atoms: C_10  and  C_12
REMARK    5  A    between atoms: C_15  and  C_18
REMARK                            x       y       z     vdW  Elec       q    Type
REMARK                         _______ _______ _______ _____ _____    ______ ____
ROOT
ATOM      1  N   UNL     1       1.767  -1.673  -0.025  0.00  0.00    -0.220 N 
ATOM      2  C   UNL     1       2.264  -2.203  -1.160  0.00  0.00    +0.261 C 
ATOM      3  O   UNL     1       2.311  -1.533  -2.173  0.00  0.00    -0.269 OA
ATOM      4  H   UNL     1       1.729  -2.208   0.784  0.00  0.00    +0.174 HD
ENDROOT
BRANCH   1   9
ATOM      5  C   UNL     1      -0.698   2.034   1.278  0.00  0.00    +0.047 C 
ATOM      6  C   UNL     1      -0.018   1.512   0.010  0.00  0.00    +0.137 C 
ATOM      7  C   UNL     1       0.002  -0.004   0.002  0.00  0.00    +0.267 C 
ATOM      8  O   UNL     1      -0.954  -0.749   0.006  0.00  0.00    -0.271 OA
ATOM      9  N   UNL     1       1.304  -0.351  -0.012  0.00  0.00    -0.137 N 
ATOM     10  C   UNL     1       2.101   0.724  -0.014  0.00  0.00    +0.327 C 
ATOM     11  O   UNL     1       3.315   0.665  -0.026  0.00  0.00    -0.251 OA
ATOM     12  N   UNL     1       1.409   1.877  -0.001  0.00  0.00    -0.280 N 
ATOM     13  H   UNL     1       1.777   2.775  -0.000  0.00  0.00    +0.152 HD
BRANCH   6  14
ATOM     14  C   UNL     1      -0.711   2.039  -1.220  0.00  0.00    -0.015 A 
ATOM     15  C   UNL     1      -1.712   1.299  -1.820  0.00  0.00    +0.006 A 
ATOM     16  C   UNL     1      -2.351   1.785  -2.946  0.00  0.00    +0.000 A 
ATOM     17  C   UNL     1      -1.982   3.007  -3.476  0.00  0.00    +0.000 A 
ATOM     18  C   UNL     1      -0.977   3.745  -2.879  0.00  0.00    +0.000 A 
ATOM     19  C   UNL     1      -0.342   3.261  -1.750  0.00  0.00    +0.006 A 
ENDBRANCH   6  14
ENDBRANCH   1   9
BRANCH   2  20
ATOM     20  C   UNL     1       2.751  -3.597  -1.173  0.00  0.00    +0.038 A 
ATOM     21  C   UNL     1       2.703  -4.366  -0.007  0.00  0.00    +0.014 A 
ATOM     22  C   UNL     1       3.152  -5.667  -0.022  0.00  0.00    +0.009 A 
ATOM     23  C   UNL     1       3.666  -6.215  -1.197  0.00  0.00    -0.018 A 
ATOM     24  C   UNL     1       3.720  -5.446  -2.360  0.00  0.00    +0.009 A 
ATOM     25  C   UNL     1       3.266  -4.147  -2.349  0.00  0.00    +0.014 A 
BRANCH  23  26
ATOM     26  C   UNL     1       4.155  -7.614  -1.210  0.00  0.00    -0.018 A 
ATOM     27  C   UNL     1       4.663  -8.167  -2.385  0.00  0.00    +0.008 A 
ATOM     28  C   UNL     1       5.121  -9.469  -2.390  0.00  0.00    +0.001 A 
ATOM     29  C   UNL     1       5.066 -10.229  -1.235  0.00  0.00    +0.000 A 
ATOM     30  C   UNL     1       4.558  -9.687  -0.068  0.00  0.00    +0.001 A 
ATOM     31  C   UNL     1       4.102  -8.385  -0.050  0.00  0.00    +0.008 A 
ENDBRANCH  23  26
ENDBRANCH   2  20
TORSDOF 4
