REMARK  Name = ZINC40726392
REMARK  4 active torsions:
REMARK  status: ('A' for Active; 'I' for Inactive)
REMARK    1  A    between atoms: C_1  and  N_2
REMARK    2  A    between atoms: C_9  and  N_23
REMARK    3  A    between atoms: C_10  and  N_14
REMARK    4  A    between atoms: N_14  and  C_15
REMARK                            x       y       z     vdW  Elec       q    Type
REMARK                         _______ _______ _______ _____ _____    ______ ____
ROOT
ATOM      1  C   UNL     1      -0.941   0.035  -2.280  0.00  0.00    -0.096 C 
ATOM      2  N   UNL     1      -0.427  -0.730  -1.136  0.00  0.00    +0.380 N 
ATOM      3  C   UNL     1      -0.409  -2.159  -1.474  0.00  0.00    -0.060 C 
ATOM      4  C   UNL     1       0.232  -2.946  -0.327  0.00  0.00    +0.088 C 
ATOM      5  N   UNL     1      -0.484  -2.625   0.917  0.00  0.00    -0.317 N 
ATOM      6  C   UNL     1      -0.692  -1.208   1.252  0.00  0.00    +0.088 C 
ATOM      7  C   UNL     1      -1.290  -0.503   0.030  0.00  0.00    -0.060 C 
ATOM      8  C   UNL     1      -0.953  -3.633   1.752  0.00  0.00    +0.147 A 
ATOM      9  C   UNL     1      -0.114  -4.208   2.709  0.00  0.00    +0.106 A 
ATOM     10  C   UNL     1      -0.635  -5.216   3.522  0.00  0.00    +0.149 A 
ATOM     11  N   UNL     1      -1.903  -5.588   3.355  0.00  0.00    -0.219 NA
ATOM     12  C   UNL     1      -2.660  -5.019   2.440  0.00  0.00    +0.225 A 
ATOM     13  N   UNL     1      -2.209  -4.060   1.656  0.00  0.00    -0.219 NA
ATOM     14  H   UNL     1       0.511  -0.426  -0.923  0.00  0.00    -0.082 HD
ENDROOT
BRANCH   9  15
ATOM     15  N   UNL     1       1.217  -3.784   2.850  0.00  0.00    -0.353 N 
ATOM     16  H   UNL     1       1.545  -3.034   2.329  0.00  0.00    +0.143 HD
ATOM     17  H   UNL     1       1.809  -4.241   3.468  0.00  0.00    +0.143 HD
ENDBRANCH   9  15
BRANCH  10  18
ATOM     18  N   UNL     1       0.157  -5.822   4.490  0.00  0.00    -0.296 N 
ATOM     19  H   UNL     1       1.050  -5.487   4.665  0.00  0.00    +0.154 HD
BRANCH  18  20
ATOM     20  C   UNL     1      -0.335  -6.915   5.213  0.00  0.00    +0.068 A 
ATOM     21  C   UNL     1      -1.336  -7.711   4.674  0.00  0.00    +0.027 A 
ATOM     22  C   UNL     1      -1.820  -8.789   5.390  0.00  0.00    +0.017 A 
ATOM     23  C   UNL     1      -1.309  -9.076   6.643  0.00  0.00    +0.021 A 
ATOM     24  C   UNL     1      -0.311  -8.285   7.184  0.00  0.00    +0.055 A 
ATOM     25  C   UNL     1       0.182  -7.208   6.471  0.00  0.00    +0.145 A 
ATOM     26  F   UNL     1       1.160  -6.439   6.996  0.00  0.00    -0.204 F 
ATOM     27 BR   UNL     1      -1.976 -10.552   7.619  0.00  0.00    -0.050 Br
ENDBRANCH  18  20
ENDBRANCH  10  18
TORSDOF 3
