REMARK  Name = ZINC15810185
REMARK  2 active torsions:
REMARK  status: ('A' for Active; 'I' for Inactive)
REMARK    1  A    between atoms: C_6  and  N_7
REMARK    2  A    between atoms: C_8  and  C_10
REMARK                            x       y       z     vdW  Elec       q    Type
REMARK                         _______ _______ _______ _____ _____    ______ ____
ROOT
ATOM      1  N   UNL     1       3.626  -0.646  -0.035  0.00  0.00    -0.280 N 
ATOM      2  C   UNL     1       4.674  -0.137  -0.711  0.00  0.00    +0.268 C 
ATOM      3  O   UNL     1       4.587   0.958  -1.231  0.00  0.00    -0.268 OA
ATOM      4  H   UNL     1       3.716  -1.489   0.437  0.00  0.00    +0.155 HD
ENDROOT
BRANCH   1  10
ATOM      5  C   UNL     1       1.211  -0.667  -0.009  0.00  0.00    +0.027 A 
ATOM      6  C   UNL     1       0.004   0.008   0.012  0.00  0.00    +0.051 A 
ATOM      7  C   UNL     1      -0.010   1.392   0.029  0.00  0.00    +0.162 A 
ATOM      8  C   UNL     1       1.183   2.103   0.024  0.00  0.00    +0.164 A 
ATOM      9  C   UNL     1       2.392   1.430   0.003  0.00  0.00    +0.072 A 
ATOM     10  C   UNL     1       2.406   0.040  -0.013  0.00  0.00    +0.037 A 
ATOM     11  O   UNL     1       1.155   3.467   0.039  0.00  0.00    -0.488 OA
ATOM     12  C   UNL     1       0.680   4.070   1.244  0.00  0.00    +0.232 C 
ATOM     13  C   UNL     1      -0.838   4.151   1.245  0.00  0.00    +0.082 C 
ATOM     14  C   UNL     1      -1.491   2.777   1.255  0.00  0.00    +0.232 C 
ATOM     15  O   UNL     1      -1.196   2.067   0.045  0.00  0.00    -0.488 OA
ENDBRANCH   1  10
BRANCH   2  16
ATOM     16  C   UNL     1       5.931  -0.911  -0.819  0.00  0.00    +0.146 A 
ATOM     17  C   UNL     1       7.013  -0.378  -1.520  0.00  0.00    +0.072 A 
ATOM     18  C   UNL     1       8.185  -1.116  -1.613  0.00  0.00    +0.025 A 
ATOM     19  C   UNL     1       8.234  -2.358  -1.002  0.00  0.00    +0.041 A 
ATOM     20  C   UNL     1       7.120  -2.826  -0.321  0.00  0.00    +0.130 A 
ATOM     21  N   UNL     1       6.022  -2.104  -0.243  0.00  0.00    -0.229 NA
ATOM     22 CL   UNL     1       7.176  -4.382   0.446  0.00  0.00    -0.062 Cl
ATOM     23 CL   UNL     1       6.895   1.185  -2.265  0.00  0.00    -0.081 Cl
ENDBRANCH   2  16
TORSDOF 2
