REMARK  Name = ZINC37659483
REMARK  8 active torsions:
REMARK  status: ('A' for Active; 'I' for Inactive)
REMARK    1  A    between atoms: C_1  and  O_2
REMARK    2  A    between atoms: O_2  and  C_3
REMARK    3  A    between atoms: C_6  and  C_10
REMARK    4  A    between atoms: C_10  and  N_11
REMARK    5  A    between atoms: N_11  and  C_12
REMARK    6  A    between atoms: C_12  and  C_13
REMARK    7  A    between atoms: C_13  and  C_14
REMARK    8  A    between atoms: C_14  and  C_15
REMARK                            x       y       z     vdW  Elec       q    Type
REMARK                         _______ _______ _______ _____ _____    ______ ____
ROOT
ATOM      1  C   UNL     1       2.505  -2.503  -4.383  0.00  0.00    -0.047 C 
ENDROOT
BRANCH   1   5
ATOM      2  C   UNL     1       0.606  -0.607  -1.056  0.00  0.00    +0.148 A 
ATOM      3  C   UNL     1      -0.130  -0.921  -2.190  0.00  0.00    +0.061 A 
ATOM      4  C   UNL     1       0.487  -1.534  -3.265  0.00  0.00    +0.020 A 
ATOM      5  C   UNL     1       1.835  -1.835  -3.210  0.00  0.00    -0.062 A 
ATOM      6  C   UNL     1       2.571  -1.523  -2.082  0.00  0.00    +0.020 A 
ATOM      7  C   UNL     1       1.960  -0.905  -1.006  0.00  0.00    +0.061 A 
ATOM      8 BR   UNL     1       2.969  -0.472   0.534  0.00  0.00    -0.046 Br
ATOM      9 BR   UNL     1      -1.974  -0.512  -2.265  0.00  0.00    -0.046 Br
BRANCH   2  11
ATOM     10  C   UNL     1      -0.017   1.425   0.010  0.00  0.00    +0.277 C 
ATOM     11  O   UNL     1       0.002  -0.004   0.002  0.00  0.00    -0.493 OA
ENDBRANCH   2  11
ENDBRANCH   1   5
BRANCH   1  12
ATOM     12  N   UNL     1       3.021  -1.480  -5.302  0.00  0.00    +0.382 N 
ATOM     13  H   UNL     1       2.257  -0.908  -5.631  0.00  0.00    -0.085 HD
ATOM     14  H   UNL     1       3.690  -0.900  -4.818  0.00  0.00    -0.085 HD
BRANCH  12  15
ATOM     15  C   UNL     1       3.673  -2.131  -6.445  0.00  0.00    -0.082 C 
BRANCH  15  16
ATOM     16  C   UNL     1       4.210  -1.065  -7.402  0.00  0.00    -0.010 C 
BRANCH  16  17
ATOM     17  C   UNL     1       4.890  -1.744  -8.592  0.00  0.00    +0.094 C 
BRANCH  17  18
ATOM     18  C   UNL     1       5.419  -0.694  -9.535  0.00  0.00    +0.210 C 
ATOM     19  O   UNL     1       5.268   0.482  -9.279  0.00  0.00    -0.276 OA
ATOM     20  N   UNL     1       6.061  -1.061 -10.662  0.00  0.00    -0.329 N 
ATOM     21  H   UNL     1       6.182  -2.001 -10.866  0.00  0.00    +0.145 HD
ATOM     22  H   UNL     1       6.401  -0.385 -11.268  0.00  0.00    +0.145 HD
ENDBRANCH  17  18
ENDBRANCH  16  17
ENDBRANCH  15  16
ENDBRANCH  12  15
ENDBRANCH   1  12
TORSDOF 7
