REMARK  Name = ZINC64622987
REMARK  6 active torsions:
REMARK  status: ('A' for Active; 'I' for Inactive)
REMARK    1  A    between atoms: C_1  and  O_2
REMARK    2  A    between atoms: O_2  and  C_3
REMARK    3  A    between atoms: C_6  and  C_9
REMARK    4  A    between atoms: N_26  and  C_27
REMARK    5  A    between atoms: C_32  and  O_33
REMARK    6  A    between atoms: O_33  and  C_34
REMARK                            x       y       z     vdW  Elec       q    Type
REMARK                         _______ _______ _______ _____ _____    ______ ____
ROOT
ATOM      1  C   UNL     1       2.091  -2.304  -5.024  0.00  0.00    +0.134 C 
ATOM      2  C   UNL     1       3.530  -2.335  -4.498  0.00  0.00    +0.131 C 
ATOM      3  C   UNL     1       4.260  -3.411  -5.291  0.00  0.00    -0.035 C 
ATOM      4  C   UNL     1       5.314  -2.821  -5.841  0.00  0.00    -0.001 A 
ATOM      5  C   UNL     1       6.420  -3.353  -6.654  0.00  0.00    +0.010 A 
ATOM      6  C   UNL     1       7.346  -2.449  -7.071  0.00  0.00    +0.001 A 
ATOM      7  C   UNL     1       7.282  -1.086  -6.765  0.00  0.00    +0.002 A 
ATOM      8  C   UNL     1       6.303  -0.512  -6.021  0.00  0.00    +0.026 A 
ATOM      9  C   UNL     1       5.275  -1.362  -5.521  0.00  0.00    +0.043 A 
ATOM     10  N   UNL     1       4.232  -1.077  -4.761  0.00  0.00    -0.375 N 
ATOM     11  C   UNL     1       3.736  -4.821  -5.415  0.00  0.00    +0.052 C 
ATOM     12  C   UNL     1       2.266  -4.710  -5.858  0.00  0.00    +0.114 C 
ATOM     13  N   UNL     1       1.590  -3.688  -5.052  0.00  0.00    -0.276 N 
ATOM     14  C   UNL     1       0.501  -4.019  -4.330  0.00  0.00    +0.307 C 
ATOM     15  O   UNL     1      -0.148  -3.152  -3.777  0.00  0.00    -0.252 OA
ATOM     16  N   UNL     1       0.133  -5.311  -4.221  0.00  0.00    -0.266 N 
ATOM     17  H   UNL     1       0.687  -6.008  -4.605  0.00  0.00    +0.156 HD
ATOM     18  H   UNL     1       3.968  -0.202  -4.437  0.00  0.00    +0.160 HD
ENDROOT
BRANCH   1  22
ATOM     19  C   UNL     1      -0.347   0.061  -2.431  0.00  0.00    +0.120 A 
ATOM     20  C   UNL     1      -0.452   0.206  -3.807  0.00  0.00    +0.046 A 
ATOM     21  C   UNL     1       0.338  -0.560  -4.643  0.00  0.00    +0.009 A 
ATOM     22  C   UNL     1       1.231  -1.470  -4.109  0.00  0.00    -0.024 A 
ATOM     23  C   UNL     1       1.337  -1.617  -2.739  0.00  0.00    +0.009 A 
ATOM     24  C   UNL     1       0.554  -0.849  -1.898  0.00  0.00    +0.046 A 
BRANCH  19  26
ATOM     25  C   UNL     1      -2.028   1.730  -2.225  0.00  0.00    +0.277 C 
ATOM     26  O   UNL     1      -1.123   0.814  -1.607  0.00  0.00    -0.495 OA
ENDBRANCH  19  26
ENDBRANCH   1  22
BRANCH  16  27
ATOM     27  C   UNL     1      -1.052  -5.647  -3.551  0.00  0.00    +0.077 A 
ATOM     28  C   UNL     1      -1.567  -4.799  -2.582  0.00  0.00    +0.027 A 
ATOM     29  C   UNL     1      -2.736  -5.133  -1.923  0.00  0.00    +0.002 A 
ATOM     30  C   UNL     1      -3.392  -6.311  -2.227  0.00  0.00    +0.004 A 
ATOM     31  C   UNL     1      -2.884  -7.161  -3.191  0.00  0.00    +0.047 A 
ATOM     32  C   UNL     1      -1.717  -6.831  -3.860  0.00  0.00    +0.141 A 
BRANCH  32  33
ATOM     33  O   UNL     1      -1.219  -7.663  -4.813  0.00  0.00    -0.493 OA
ATOM     34  C   UNL     1      -1.954  -8.860  -5.078  0.00  0.00    +0.277 C 
ENDBRANCH  32  33
ENDBRANCH  16  27
TORSDOF 4
