REMARK  Name = ZINC16425954
REMARK  7 active torsions:
REMARK  status: ('A' for Active; 'I' for Inactive)
REMARK    1  A    between atoms: C_1  and  C_2
REMARK    2  A    between atoms: C_7  and  N_8
REMARK    3  A    between atoms: C_9  and  C_11
REMARK    4  A    between atoms: C_13  and  N_23
REMARK    5  A    between atoms: C_16  and  N_17
REMARK    6  A    between atoms: C_24  and  C_26
REMARK    7  A    between atoms: C_32  and  C_34
REMARK                            x       y       z     vdW  Elec       q    Type
REMARK                         _______ _______ _______ _____ _____    ______ ____
ROOT
ATOM      1  C   UNL     1       2.046   2.600  -6.471  0.00  0.00    +0.060 A 
ATOM      2  C   UNL     1       2.320   2.505  -5.104  0.00  0.00    +0.038 A 
ATOM      3  C   UNL     1       1.422   3.016  -4.185  0.00  0.00    +0.034 A 
ATOM      4  C   UNL     1       0.245   3.620  -4.617  0.00  0.00    +0.025 A 
ATOM      5  C   UNL     1      -0.032   3.723  -5.965  0.00  0.00    +0.026 A 
ATOM      6  C   UNL     1       0.860   3.215  -6.901  0.00  0.00    +0.042 A 
ENDROOT
BRANCH   6   7
ATOM      7  N   UNL     1       0.578   3.314  -8.259  0.00  0.00    -0.325 N 
ATOM      8  C   UNL     1       0.524   4.720  -8.684  0.00  0.00    +0.133 C 
ATOM      9  C   UNL     1       0.271   4.782 -10.193  0.00  0.00    +0.178 C 
ATOM     10  O   UNL     1      -0.936   4.077 -10.498  0.00  0.00    -0.377 OA
ATOM     11  C   UNL     1      -0.917   2.705 -10.098  0.00  0.00    +0.178 C 
ATOM     12  C   UNL     1      -0.676   2.622  -8.588  0.00  0.00    +0.133 C 
ENDBRANCH   6   7
BRANCH   1  14
ATOM     13  N   UNL     1       4.137   1.468  -7.041  0.00  0.00    -0.281 N 
ATOM     14  C   UNL     1       2.999   2.058  -7.457  0.00  0.00    +0.250 C 
ATOM     15  O   UNL     1       2.757   2.142  -8.646  0.00  0.00    -0.270 OA
ATOM     16  H   UNL     1       4.365   1.466  -6.098  0.00  0.00    +0.155 HD
BRANCH  13  23
ATOM     17  C   UNL     1       6.873   1.137  -6.336  0.00  0.00    +0.045 C 
ATOM     18  C   UNL     1       6.331   0.677  -7.665  0.00  0.00    -0.029 A 
ATOM     19  C   UNL     1       7.170   0.075  -8.583  0.00  0.00    +0.006 A 
ATOM     20  C   UNL     1       6.674  -0.348  -9.802  0.00  0.00    +0.020 A 
ATOM     21  C   UNL     1       5.336  -0.169 -10.108  0.00  0.00    +0.043 A 
ATOM     22  C   UNL     1       4.491   0.428  -9.191  0.00  0.00    +0.043 A 
ATOM     23  C   UNL     1       4.988   0.858  -7.968  0.00  0.00    +0.038 A 
ATOM     24 CL   UNL     1       4.718  -0.700 -11.640  0.00  0.00    -0.083 Cl
ENDBRANCH  13  23
ENDBRANCH   1  14
BRANCH   3  25
ATOM     25  N   UNL     1       1.695   2.921  -2.814  0.00  0.00    -0.285 N 
ATOM     26  C   UNL     1       1.326   3.916  -1.982  0.00  0.00    +0.221 C 
ATOM     27  O   UNL     1       0.680   4.851  -2.405  0.00  0.00    -0.275 OA
ATOM     28  H   UNL     1       2.150   2.139  -2.463  0.00  0.00    +0.155 HD
BRANCH  26  29
ATOM     29  C   UNL     1       1.717   3.866  -0.527  0.00  0.00    +0.093 C 
ATOM     30  C   UNL     1       0.592   4.454   0.327  0.00  0.00    +0.040 C 
ATOM     31  C   UNL     1       0.505   5.937   0.117  0.00  0.00    -0.030 C 
ATOM     32  C   UNL     1       1.445   6.651  -0.414  0.00  0.00    -0.030 C 
ATOM     33  C   UNL     1       2.754   6.095  -0.893  0.00  0.00    +0.042 C 
ATOM     34  C   UNL     1       2.984   4.701  -0.304  0.00  0.00    +0.118 C 
BRANCH  34  35
ATOM     35  C   UNL     1       4.152   4.043  -0.991  0.00  0.00    +0.360 C 
ATOM     36  O   UNL     1       3.993   3.010  -1.598  0.00  0.00    -0.246 OA
ATOM     37  O   UNL     1       5.370   4.603  -0.928  0.00  0.00    -0.246 OA
ENDBRANCH  34  35
ENDBRANCH  26  29
ENDBRANCH   3  25
TORSDOF 6
