REMARK  Name = ZINC41702271
REMARK  2 active torsions:
REMARK  status: ('A' for Active; 'I' for Inactive)
REMARK    1  A    between atoms: C_6  and  C_7
REMARK    2  A    between atoms: C_11  and  N_16
REMARK                            x       y       z     vdW  Elec       q    Type
REMARK                         _______ _______ _______ _____ _____    ______ ____
ROOT
ATOM      1  C   UNL     1      -0.017   1.388   0.010  0.00  0.00    +0.014 A 
ATOM      2  C   UNL     1       1.140   2.106   0.003  0.00  0.00    +0.029 A 
ATOM      3  C   UNL     1       2.376   1.437  -0.013  0.00  0.00    +0.073 A 
ATOM      4  C   UNL     1       2.391   0.022  -0.021  0.00  0.00    +0.023 A 
ATOM      5  C   UNL     1       1.182  -0.686  -0.013  0.00  0.00    +0.024 A 
ATOM      6  C   UNL     1       0.002  -0.004   0.002  0.00  0.00    +0.056 A 
ATOM      7  C   UNL     1       3.637  -0.649  -0.036  0.00  0.00    +0.049 A 
ATOM      8  C   UNL     1       4.789   0.122  -0.043  0.00  0.00    +0.057 A 
ATOM      9  C   UNL     1       4.690   1.507  -0.035  0.00  0.00    +0.128 A 
ATOM     10  N   UNL     1       3.528   2.118  -0.020  0.00  0.00    -0.254 NA
ATOM     11 BR   UNL     1       6.488  -0.708  -0.063  0.00  0.00    -0.047 Br
ENDROOT
BRANCH   6  12
ATOM     12  C   UNL     1      -1.298  -0.766   0.011  0.00  0.00    +0.417 C 
ATOM     13  F   UNL     1      -2.367   0.136   0.026  0.00  0.00    -0.166 F 
ATOM     14  F   UNL     1      -1.378  -1.565  -1.135  0.00  0.00    -0.166 F 
ATOM     15  F   UNL     1      -1.356  -1.577   1.149  0.00  0.00    -0.166 F 
ENDBRANCH   6  12
BRANCH   7  16
ATOM     16  N   UNL     1       3.704  -2.035  -0.044  0.00  0.00    -0.357 N 
ATOM     17  H   UNL     1       2.888  -2.560  -0.038  0.00  0.00    +0.142 HD
ATOM     18  H   UNL     1       4.566  -2.479  -0.054  0.00  0.00    +0.142 HD
ENDBRANCH   7  16
TORSDOF 2
