REMARK  Name = ZINC17071664
REMARK  7 active torsions:
REMARK  status: ('A' for Active; 'I' for Inactive)
REMARK    1  A    between atoms: C_1  and  C_2
REMARK    2  A    between atoms: N_7  and  N_10
REMARK    3  A    between atoms: C_11  and  C_13
REMARK    4  A    between atoms: C_13  and  C_14
REMARK    5  A    between atoms: C_14  and  C_16
REMARK    6  A    between atoms: C_14  and  O_17
REMARK    7  A    between atoms: C_20  and  C_21
REMARK                            x       y       z     vdW  Elec       q    Type
REMARK                         _______ _______ _______ _____ _____    ______ ____
ROOT
ATOM      1  C   UNL     1       3.835   3.062  -0.005  0.00  0.00    +0.046 C 
ATOM      2  C   UNL     1       2.487   3.736   0.004  0.00  0.00    -0.015 A 
ATOM      3  C   UNL     1       2.402   5.129   0.008  0.00  0.00    +0.075 A 
ATOM      4  C   UNL     1       1.091   5.665   0.023  0.00  0.00    +0.093 A 
ATOM      5  N   UNL     1       0.868   6.969   0.033  0.00  0.00    -0.328 N 
ATOM      6  C   UNL     1       1.859   7.838   0.029  0.00  0.00    +0.179 A 
ATOM      7  N   UNL     1       3.162   7.437   0.014  0.00  0.00    -0.200 N 
ATOM      8  C   UNL     1       3.491   6.130   0.003  0.00  0.00    +0.280 A 
ATOM      9  O   UNL     1       4.658   5.782  -0.010  0.00  0.00    -0.265 OA
ATOM     10  S   UNL     1       1.491   9.561   0.042  0.00  0.00    -0.011 S 
ATOM     11  S   UNL     1       0.060   4.221   0.025  0.00  0.00    -0.064 S 
ATOM     12  C   UNL     1       1.347   2.985   0.005  0.00  0.00    +0.106 A 
ATOM     13  H   UNL     1      -0.164   7.351   0.045  0.00  0.00    +0.168 HD
ENDROOT
BRANCH   7  14
ATOM     14  N   UNL     1       4.178   8.401   0.009  0.00  0.00    -0.218 N 
ATOM     15  C   UNL     1       4.470   9.078   1.138  0.00  0.00    +0.234 C 
ATOM     16  O   UNL     1       3.853   8.851   2.157  0.00  0.00    -0.274 OA
ATOM     17  H   UNL     1       4.737   8.607  -0.915  0.00  0.00    +0.176 HD
BRANCH  15  18
ATOM     18  C   UNL     1       5.563  10.115   1.133  0.00  0.00    +0.128 C 
BRANCH  18  19
ATOM     19  C   UNL     1       5.689  10.729   2.529  0.00  0.00    +0.120 C 
ATOM     20  C   UNL     1       6.711  11.867   2.494  0.00  0.00    +0.038 C 
BRANCH  19  21
ATOM     21  O   UNL     1       6.122   9.728   3.452  0.00  0.00    -0.392 OA
ATOM     22  H   UNL     1       6.271   9.984   4.511  0.00  0.00    +0.210 HD
ENDBRANCH  19  21
ENDBRANCH  18  19
ENDBRANCH  15  18
ENDBRANCH   7  14
BRANCH  12  23
ATOM     23  C   UNL     1       1.214   1.528  -0.001  0.00  0.00    +0.393 C 
ATOM     24  O   UNL     1       2.208   0.827  -0.015  0.00  0.00    -0.240 OA
ATOM     25  O   UNL     1      -0.011   0.963   0.007  0.00  0.00    -0.240 OA
ENDBRANCH  12  23
TORSDOF 5
