REMARK  Name = ZINC09642534
REMARK  5 active torsions:
REMARK  status: ('A' for Active; 'I' for Inactive)
REMARK    1  A    between atoms: C_1  and  C_2
REMARK    2  A    between atoms: C_5  and  N_8
REMARK    3  A    between atoms: C_9  and  C_35
REMARK    4  A    between atoms: C_11  and  C_34
REMARK    5  A    between atoms: N_25  and  C_26
REMARK                            x       y       z     vdW  Elec       q    Type
REMARK                         _______ _______ _______ _____ _____    ______ ____
ROOT
ATOM      1  N   UNL     1       0.178   1.817  -0.826  0.00  0.00    -0.236 N 
ATOM      2  C   UNL     1       1.185   2.677  -0.594  0.00  0.00    +0.051 A 
ATOM      3  C   UNL     1       0.634   3.874  -0.192  0.00  0.00    +0.049 A 
ATOM      4  C   UNL     1       1.110   5.146   0.192  0.00  0.00    +0.072 A 
ATOM      5  N   UNL     1       0.256   6.081   0.523  0.00  0.00    -0.152 NA
ATOM      6  N   UNL     1      -1.014   5.946   0.531  0.00  0.00    -0.132 NA
ATOM      7  C   UNL     1      -1.639   4.830   0.202  0.00  0.00    +0.172 A 
ATOM      8  C   UNL     1      -0.829   3.679  -0.195  0.00  0.00    +0.137 A 
ATOM      9  N   UNL     1      -1.050   2.445  -0.584  0.00  0.00    -0.163 NA
ATOM     10  N   UNL     1      -3.022   4.753   0.233  0.00  0.00    -0.309 N 
ATOM     11  C   UNL     1      -3.555   4.330  -1.069  0.00  0.00    +0.125 C 
ATOM     12  C   UNL     1      -5.062   4.081  -0.944  0.00  0.00    +0.128 C 
ATOM     13  N   UNL     1      -5.689   5.285  -0.377  0.00  0.00    -0.282 N 
ATOM     14  C   UNL     1      -5.121   5.849   0.857  0.00  0.00    +0.128 C 
ATOM     15  C   UNL     1      -3.612   6.028   0.661  0.00  0.00    +0.125 C 
ATOM     16  C   UNL     1      -6.755   5.856  -0.972  0.00  0.00    +0.307 C 
ATOM     17  O   UNL     1      -7.212   6.894  -0.534  0.00  0.00    -0.252 OA
ATOM     18  N   UNL     1      -7.314   5.276  -2.053  0.00  0.00    -0.267 N 
ATOM     19  C   UNL     1       2.590   5.426   0.222  0.00  0.00    +0.068 C 
ATOM     20  C   UNL     1       2.656   2.384  -0.745  0.00  0.00    +0.066 C 
ATOM     21  H   UNL     1      -6.919   4.476  -2.433  0.00  0.00    +0.156 HD
ENDROOT
BRANCH  18  22
ATOM     22  C   UNL     1      -8.466   5.829  -2.627  0.00  0.00    +0.073 A 
ATOM     23  C   UNL     1      -8.761   7.171  -2.436  0.00  0.00    +0.064 A 
ATOM     24  C   UNL     1      -9.897   7.716  -3.009  0.00  0.00    +0.125 A 
ATOM     25  C   UNL     1     -10.744   6.920  -3.762  0.00  0.00    +0.041 A 
ATOM     26  C   UNL     1     -10.454   5.581  -3.950  0.00  0.00    +0.043 A 
ATOM     27  C   UNL     1      -9.317   5.033  -3.384  0.00  0.00    +0.145 A 
ATOM     28  F   UNL     1      -9.035   3.724  -3.568  0.00  0.00    -0.204 F 
ATOM     29  F   UNL     1     -10.184   9.024  -2.827  0.00  0.00    -0.205 F 
ENDBRANCH  18  22
BRANCH   1  34
ATOM     30  C   UNL     1       0.811  -3.551  -2.554  0.00  0.00    +0.044 C 
ATOM     31  C   UNL     1       0.643  -2.126  -2.095  0.00  0.00    -0.050 A 
ATOM     32  C   UNL     1      -0.383  -1.796  -1.228  0.00  0.00    +0.005 A 
ATOM     33  C   UNL     1      -0.539  -0.491  -0.806  0.00  0.00    +0.028 A 
ATOM     34  C   UNL     1       0.335   0.492  -1.253  0.00  0.00    +0.066 A 
ATOM     35  C   UNL     1       1.360   0.159  -2.128  0.00  0.00    +0.028 A 
ATOM     36  C   UNL     1       1.514  -1.150  -2.543  0.00  0.00    +0.005 A 
ENDBRANCH   1  34
TORSDOF 2
