REMARK  Name = ZINC39325569
REMARK  10 active torsions:
REMARK  status: ('A' for Active; 'I' for Inactive)
REMARK    1  A    between atoms: C_1  and  C_2
REMARK    2  A    between atoms: C_6  and  C_15
REMARK    3  A    between atoms: C_13  and  C_14
REMARK    4  A    between atoms: C_15  and  N_16
REMARK    5  A    between atoms: N_16  and  C_17
REMARK    6  A    between atoms: N_16  and  S_26
REMARK    7  A    between atoms: C_17  and  C_18
REMARK    8  A    between atoms: C_21  and  O_24
REMARK    9  A    between atoms: O_24  and  C_25
REMARK   10  A    between atoms: S_26  and  C_29
REMARK                            x       y       z     vdW  Elec       q    Type
REMARK                         _______ _______ _______ _____ _____    ______ ____
ROOT
ATOM      1  N   UNL     1      -1.072  -6.333  -3.117  0.00  0.00    -0.171 NA
ENDROOT
BRANCH   1   2
ATOM      2  S   UNL     1      -0.250  -6.985  -4.398  0.00  0.00    +0.061 S 
ATOM      3  O   UNL     1      -0.798  -8.278  -4.616  0.00  0.00    -0.153 OA
ATOM      4  O   UNL     1      -0.220  -5.989  -5.411  0.00  0.00    -0.153 OA
BRANCH   2   5
ATOM      5  C   UNL     1       1.417  -7.226  -3.878  0.00  0.00    +0.109 A 
ATOM      6  C   UNL     1       2.346  -6.218  -4.052  0.00  0.00    +0.032 A 
ATOM      7  C   UNL     1       3.654  -6.403  -3.647  0.00  0.00    +0.051 A 
ATOM      8  C   UNL     1       4.038  -7.602  -3.064  0.00  0.00    +0.162 A 
ATOM      9  C   UNL     1       3.103  -8.615  -2.888  0.00  0.00    +0.164 A 
ATOM     10  C   UNL     1       1.791  -8.421  -3.293  0.00  0.00    +0.078 A 
ATOM     11  O   UNL     1       3.456  -9.796  -2.311  0.00  0.00    -0.485 OA
ATOM     12  C   UNL     1       4.856 -10.091  -2.253  0.00  0.00    +0.270 C 
ATOM     13  C   UNL     1       5.590  -8.839  -1.755  0.00  0.00    +0.270 C 
ATOM     14  O   UNL     1       5.331  -7.772  -2.674  0.00  0.00    -0.485 OA
ENDBRANCH   2   5
ENDBRANCH   1   2
BRANCH   1  15
ATOM     15  C   UNL     1      -1.257  -4.882  -3.027  0.00  0.00    +0.126 C 
BRANCH  15  21
ATOM     16  C   UNL     1      -0.519   1.408   0.275  0.00  0.00    +0.044 C 
ATOM     17  C   UNL     1      -0.337  -0.084   0.165  0.00  0.00    -0.047 A 
ATOM     18  C   UNL     1      -0.373  -0.668  -1.060  0.00  0.00    +0.013 A 
ATOM     19  C   UNL     1      -0.194  -2.118  -1.156  0.00  0.00    -0.007 A 
ATOM     20  C   UNL     1      -0.222  -2.748  -2.364  0.00  0.00    -0.003 C 
ATOM     21  C   UNL     1      -0.028  -4.252  -2.369  0.00  0.00    +0.114 C 
ATOM     22  C   UNL     1       0.181  -4.929  -1.033  0.00  0.00    +0.225 C 
ATOM     23  O   UNL     1       0.343  -6.134  -0.978  0.00  0.00    -0.275 OA
ATOM     24  N   UNL     1       0.188  -4.208   0.075  0.00  0.00    -0.284 N 
ATOM     25  C   UNL     1       0.018  -2.886   0.083  0.00  0.00    +0.041 A 
ATOM     26  C   UNL     1       0.037  -2.182   1.302  0.00  0.00    +0.027 A 
ATOM     27  C   UNL     1      -0.130  -0.834   1.322  0.00  0.00    -0.046 A 
ATOM     28  C   UNL     1      -0.095  -0.121   2.650  0.00  0.00    +0.044 C 
ATOM     29  H   UNL     1       0.324  -4.662   0.921  0.00  0.00    +0.155 HD
ENDBRANCH  15  21
ENDBRANCH   1  15
BRANCH   1  30
ATOM     30  C   UNL     1      -1.616  -7.206  -2.074  0.00  0.00    +0.144 C 
BRANCH  30  31
ATOM     31  C   UNL     1      -3.052  -7.535  -2.392  0.00  0.00    -0.031 A 
ATOM     32  C   UNL     1      -4.066  -6.721  -1.923  0.00  0.00    +0.008 A 
ATOM     33  C   UNL     1      -5.383  -7.021  -2.213  0.00  0.00    +0.046 A 
ATOM     34  C   UNL     1      -5.688  -8.139  -2.975  0.00  0.00    +0.120 A 
ATOM     35  C   UNL     1      -4.668  -8.954  -3.444  0.00  0.00    +0.046 A 
ATOM     36  C   UNL     1      -3.352  -8.647  -3.156  0.00  0.00    +0.008 A 
BRANCH  34  37
ATOM     37  O   UNL     1      -6.982  -8.437  -3.261  0.00  0.00    -0.495 OA
ATOM     38  C   UNL     1      -7.221  -9.603  -4.050  0.00  0.00    +0.277 C 
ENDBRANCH  34  37
ENDBRANCH  30  31
ENDBRANCH   1  30
TORSDOF 7
