REMARK  Name = ZINC04665583
REMARK  7 active torsions:
REMARK  status: ('A' for Active; 'I' for Inactive)
REMARK    1  A    between atoms: C_1  and  C_2
REMARK    2  A    between atoms: C_2  and  C_30
REMARK    3  A    between atoms: C_8  and  C_19
REMARK    4  A    between atoms: C_16  and  C_17
REMARK    5  A    between atoms: C_16  and  C_18
REMARK    6  A    between atoms: C_19  and  S_20
REMARK    7  A    between atoms: S_20  and  C_21
REMARK                            x       y       z     vdW  Elec       q    Type
REMARK                         _______ _______ _______ _____ _____    ______ ____
ROOT
ATOM      1  C   UNL     1       2.345   7.194  -3.017  0.00  0.00    -0.010 C 
ATOM      2  C   UNL     1       1.206   6.655  -3.989  0.00  0.00    -0.069 C 
ATOM      3  C   UNL     1       0.318   5.686  -3.174  0.00  0.00    +0.024 C 
ATOM      4  C   UNL     1      -0.928   5.260  -3.971  0.00  0.00    -0.027 A 
ATOM      5  C   UNL     1      -1.628   4.003  -3.808  0.00  0.00    +0.055 A 
ATOM      6  C   UNL     1      -1.414   2.924  -2.850  0.00  0.00    +0.168 A 
ATOM      7  N   UNL     1      -0.469   2.804  -1.858  0.00  0.00    -0.210 NA
ATOM      8  C   UNL     1      -0.775   1.608  -1.268  0.00  0.00    +0.162 A 
ATOM      9  N   UNL     1      -1.815   1.052  -1.801  0.00  0.00    -0.148 NA
ATOM     10  N   UNL     1      -2.245   1.864  -2.854  0.00  0.00    -0.201 N 
ATOM     11  C   UNL     1      -3.167   1.802  -3.722  0.00  0.00    +0.226 A 
ATOM     12  N   UNL     1      -3.397   2.646  -4.658  0.00  0.00    -0.228 NA
ATOM     13  C   UNL     1      -2.650   3.807  -4.700  0.00  0.00    +0.114 A 
ATOM     14  S   UNL     1      -2.656   5.191  -5.749  0.00  0.00    -0.075 S 
ATOM     15  C   UNL     1      -1.260   6.070  -4.976  0.00  0.00    -0.016 A 
ATOM     16  C   UNL     1      -0.708   7.388  -5.366  0.00  0.00    -0.041 C 
ATOM     17  C   UNL     1      -1.818   8.485  -5.046  0.00  0.00    -0.005 C 
ATOM     18  C   UNL     1      -0.353   7.461  -6.799  0.00  0.00    -0.005 C 
ATOM     19  C   UNL     1       1.924   5.779  -5.091  0.00  0.00    -0.010 C 
ATOM     20  N   UNL     1       0.434   7.776  -4.517  0.00  0.00    +0.389 N 
ATOM     21  H   UNL     1       1.064   8.364  -5.075  0.00  0.00    -0.084 HD
ATOM     22  H   UNL     1       0.074   8.318  -3.723  0.00  0.00    -0.084 HD
ENDROOT
BRANCH   8  23
ATOM     23  C   UNL     1      -0.013   1.086   0.008  0.00  0.00    +0.157 C 
BRANCH  23  24
ATOM     24  S   UNL     1      -0.860   1.669   1.497  0.00  0.00    -0.059 S 
BRANCH  24  25
ATOM     25  C   UNL     1       0.174   0.961   2.735  0.00  0.00    +0.258 A 
ATOM     26  N   UNL     1      -0.006   1.086   4.026  0.00  0.00    -0.203 NA
ATOM     27  C   UNL     1       0.981   0.408   4.673  0.00  0.00    +0.110 A 
ATOM     28  C   UNL     1       1.285   0.200   6.019  0.00  0.00    +0.031 A 
ATOM     29  C   UNL     1       2.384  -0.556   6.362  0.00  0.00    +0.002 A 
ATOM     30  C   UNL     1       3.189  -1.110   5.379  0.00  0.00    +0.004 A 
ATOM     31  C   UNL     1       2.900  -0.913   4.044  0.00  0.00    +0.048 A 
ATOM     32  C   UNL     1       1.798  -0.155   3.681  0.00  0.00    +0.156 A 
ATOM     33  O   UNL     1       1.261   0.206   2.493  0.00  0.00    -0.431 OA
ENDBRANCH  24  25
ENDBRANCH  23  24
ENDBRANCH   8  23
TORSDOF 3
