REMARK  Name = ZINC26717323
REMARK  12 active torsions:
REMARK  status: ('A' for Active; 'I' for Inactive)
REMARK    1  A    between atoms: C_1  and  C_2
REMARK    2  A    between atoms: C_2  and  C_3
REMARK    3  A    between atoms: C_2  and  C_4
REMARK    4  A    between atoms: C_5  and  C_23
REMARK    5  A    between atoms: C_6  and  C_16
REMARK    6  A    between atoms: C_8  and  C_10
REMARK    7  A    between atoms: C_24  and  P_25
REMARK    8  A    between atoms: P_25  and  C_27
REMARK    9  A    between atoms: C_27  and  C_28
REMARK   10  A    between atoms: C_28  and  C_30
REMARK   11  A    between atoms: C_28  and  O_34
REMARK   12  A    between atoms: C_30  and  C_31
REMARK                            x       y       z     vdW  Elec       q    Type
REMARK                         _______ _______ _______ _____ _____    ______ ____
ROOT
ATOM      1  C   UNL     1      -1.259   3.450   0.033  0.00  0.00    +0.060 A 
ATOM      2  C   UNL     1      -0.106   4.234   0.026  0.00  0.00    +0.055 A 
ATOM      3  C   UNL     1       1.150   3.593   0.010  0.00  0.00    +0.001 A 
ATOM      4  C   UNL     1       1.174   2.196   0.003  0.00  0.00    +0.033 A 
ATOM      5  C   UNL     1      -0.018   1.503   0.010  0.00  0.00    +0.045 A 
ATOM      6  N   UNL     1      -1.177   2.135   0.019  0.00  0.00    -0.255 NA
ENDROOT
BRANCH   3   7
ATOM      7  C   UNL     1       2.406   4.377   0.003  0.00  0.00    -0.016 A 
ATOM      8  C   UNL     1       2.583   5.407  -0.921  0.00  0.00    +0.011 A 
ATOM      9  C   UNL     1       3.753   6.138  -0.921  0.00  0.00    +0.039 A 
ATOM     10  C   UNL     1       4.756   5.844  -0.011  0.00  0.00    +0.123 A 
ATOM     11  C   UNL     1       4.587   4.818   0.905  0.00  0.00    +0.039 A 
ATOM     12  C   UNL     1       3.419   4.085   0.916  0.00  0.00    +0.011 A 
ATOM     13  F   UNL     1       5.902   6.559  -0.018  0.00  0.00    -0.205 F 
ENDBRANCH   3   7
BRANCH   5  14
ATOM     14  C   UNL     1       0.002  -0.004   0.002  0.00  0.00    +0.038 C 
ATOM     15  C   UNL     1       1.198  -0.502   0.815  0.00  0.00    +0.010 C 
ATOM     16  C   UNL     1       1.219  -2.032   0.807  0.00  0.00    +0.001 C 
ATOM     17  C   UNL     1       1.338  -2.533  -0.634  0.00  0.00    +0.000 C 
ATOM     18  C   UNL     1       0.142  -2.034  -1.447  0.00  0.00    +0.001 C 
ATOM     19  C   UNL     1       0.121  -0.505  -1.439  0.00  0.00    +0.010 C 
ENDBRANCH   5  14
BRANCH   1  21
ATOM     20  C   UNL     1      -3.399   3.696  -1.195  0.00  0.00    +0.014 C 
ATOM     21  C   UNL     1      -2.612   4.113   0.049  0.00  0.00    +0.033 C 
ATOM     22  C   UNL     1      -3.375   3.683   1.303  0.00  0.00    +0.014 C 
ENDBRANCH   1  21
BRANCH   2  23
ATOM     23  C   UNL     1      -0.196   5.663   0.034  0.00  0.00    -0.054 C 
ATOM     24  C   UNL     1      -0.269   6.835   0.041  0.00  0.00    -0.003 C 
BRANCH  24  25
ATOM     25  P   UNL     1      -0.383   8.645   0.051  0.00  0.00    +0.307 P 
ATOM     26  O   UNL     1      -1.806   9.050   0.067  0.00  0.00    -0.274 OA
ATOM     27  O   UNL     1       0.354   9.222   1.361  0.00  0.00    -0.155 OA
BRANCH  25  28
ATOM     28  C   UNL     1       0.422   9.313  -1.442  0.00  0.00    +0.144 C 
BRANCH  28  29
ATOM     29  C   UNL     1       0.218  10.828  -1.497  0.00  0.00    +0.135 C 
BRANCH  29  30
ATOM     30  O   UNL     1      -1.172  11.116  -1.657  0.00  0.00    -0.391 OA
ATOM     31  H   UNL     1      -1.514  12.160  -1.717  0.00  0.00    +0.210 HD
ENDBRANCH  29  30
BRANCH  29  32
ATOM     32  C   UNL     1       0.998  11.405  -2.681  0.00  0.00    +0.157 C 
BRANCH  32  33
ATOM     33  C   UNL     1       0.898  12.909  -2.663  0.00  0.00    +0.358 C 
ATOM     34  O   UNL     1       0.268  13.462  -1.793  0.00  0.00    -0.246 OA
ATOM     35  O   UNL     1       1.508  13.633  -3.614  0.00  0.00    -0.246 OA
ENDBRANCH  32  33
ENDBRANCH  29  32
ENDBRANCH  28  29
ENDBRANCH  25  28
ENDBRANCH  24  25
ENDBRANCH   2  23
TORSDOF 10
