REMARK  Name = ZINC15586256
REMARK  5 active torsions:
REMARK  status: ('A' for Active; 'I' for Inactive)
REMARK    1  A    between atoms: C_1  and  C_2
REMARK    2  A    between atoms: C_5  and  C_8
REMARK    3  A    between atoms: C_14  and  C_16
REMARK    4  A    between atoms: C_16  and  C_17
REMARK    5  A    between atoms: C_28  and  C_30
REMARK                            x       y       z     vdW  Elec       q    Type
REMARK                         _______ _______ _______ _____ _____    ______ ____
ROOT
ATOM      1  C   UNL     1      -2.778   0.021   6.555  0.00  0.00    +0.080 A 
ATOM      2  C   UNL     1      -3.779   0.714   5.932  0.00  0.00    +0.076 A 
ATOM      3  S   UNL     1      -3.155   0.763   4.257  0.00  0.00    -0.060 S 
ATOM      4  C   UNL     1      -1.644  -0.144   4.555  0.00  0.00    +0.165 A 
ATOM      5  N   UNL     1      -1.736  -0.390   5.849  0.00  0.00    -0.225 NA
ATOM      6  N   UNL     1      -0.637  -0.492   3.663  0.00  0.00    -0.265 N 
ATOM      7  C   UNL     1      -0.735  -0.141   2.366  0.00  0.00    +0.221 C 
ATOM      8  O   UNL     1      -1.702   0.479   1.977  0.00  0.00    -0.275 OA
ATOM      9  H   UNL     1       0.137  -0.988   3.974  0.00  0.00    +0.157 HD
ENDROOT
BRANCH   1  14
ATOM     10  C   UNL     1      -3.094  -1.101  12.194  0.00  0.00    +0.044 C 
ATOM     11  C   UNL     1      -3.011  -0.807  10.719  0.00  0.00    -0.050 A 
ATOM     12  C   UNL     1      -1.918  -1.240   9.990  0.00  0.00    +0.004 A 
ATOM     13  C   UNL     1      -1.837  -0.975   8.638  0.00  0.00    +0.010 A 
ATOM     14  C   UNL     1      -2.859  -0.268   8.007  0.00  0.00    +0.001 A 
ATOM     15  C   UNL     1      -3.956   0.171   8.748  0.00  0.00    +0.010 A 
ATOM     16  C   UNL     1      -4.029  -0.105  10.098  0.00  0.00    +0.004 A 
ENDBRANCH   1  14
BRANCH   7  17
ATOM     17  C   UNL     1       0.357  -0.519   1.398  0.00  0.00    +0.123 C 
BRANCH  17  18
ATOM     18  C   UNL     1       0.002  -0.004   0.002  0.00  0.00    +0.120 C 
ATOM     19  C   UNL     1       1.036  -0.476  -0.990  0.00  0.00    -0.019 A 
ATOM     20  C   UNL     1       0.902  -1.694  -1.619  0.00  0.00    +0.006 A 
ATOM     21  C   UNL     1       1.868  -2.118  -2.515  0.00  0.00    +0.000 A 
ATOM     22  C   UNL     1       2.971  -1.327  -2.782  0.00  0.00    +0.001 A 
ATOM     23  C   UNL     1       3.114  -0.101  -2.163  0.00  0.00    +0.008 A 
ATOM     24  C   UNL     1       2.139   0.335  -1.266  0.00  0.00    -0.019 A 
ATOM     25  C   UNL     1       2.245   1.658  -0.622  0.00  0.00    +0.023 C 
ATOM     26  C   UNL     1       1.178   2.170   0.003  0.00  0.00    +0.079 C 
ATOM     27  N   UNL     1      -0.018   1.463   0.010  0.00  0.00    -0.270 N 
ATOM     28  C   UNL     1      -1.193   2.123   0.019  0.00  0.00    +0.217 C 
ATOM     29  O   UNL     1      -2.236   1.504   0.021  0.00  0.00    -0.276 OA
ATOM     30  C   UNL     1      -1.211   3.630   0.028  0.00  0.00    +0.109 C 
ENDBRANCH  17  18
ENDBRANCH   7  17
TORSDOF 3
