REMARK  Name = ZINC09505314
REMARK  3 active torsions:
REMARK  status: ('A' for Active; 'I' for Inactive)
REMARK    1  A    between atoms: C_5  and  S_6
REMARK    2  A    between atoms: S_6  and  N_9
REMARK    3  A    between atoms: C_12  and  C_15
REMARK                            x       y       z     vdW  Elec       q    Type
REMARK                         _______ _______ _______ _____ _____    ______ ____
ROOT
ATOM      1  C   UNL     1      -0.840  -2.217  -0.002  0.00  0.00    +0.222 C 
ATOM      2  O   UNL     1       0.296  -2.639  -0.015  0.00  0.00    -0.275 OA
ATOM      3  N   UNL     1      -1.066  -0.888   0.007  0.00  0.00    -0.264 N 
ATOM      4  C   UNL     1       0.002  -0.004   0.002  0.00  0.00    +0.165 A 
ATOM      5  N   UNL     1       1.288  -0.266  -0.012  0.00  0.00    -0.224 NA
ATOM      6  C   UNL     1       2.228   0.705  -0.015  0.00  0.00    +0.084 A 
ATOM      7  C   UNL     1       3.634   0.557  -0.028  0.00  0.00    +0.078 A 
ATOM      8  C   UNL     1       4.463   1.656  -0.028  0.00  0.00    +0.164 A 
ATOM      9  C   UNL     1       3.938   2.949  -0.018  0.00  0.00    +0.163 A 
ATOM     10  C   UNL     1       2.564   3.126  -0.006  0.00  0.00    +0.066 A 
ATOM     11  C   UNL     1       1.737   2.030  -0.004  0.00  0.00    +0.044 A 
ATOM     12  S   UNL     1      -0.022   1.783   0.012  0.00  0.00    -0.052 S 
ATOM     13  O   UNL     1       4.753   4.038  -0.025  0.00  0.00    -0.485 OA
ATOM     14  C   UNL     1       6.121   3.820   0.338  0.00  0.00    +0.270 C 
ATOM     15  C   UNL     1       6.623   2.580  -0.414  0.00  0.00    +0.270 C 
ATOM     16  O   UNL     1       5.814   1.464  -0.031  0.00  0.00    -0.485 OA
ATOM     17  H   UNL     1      -1.975  -0.550   0.017  0.00  0.00    +0.157 HD
ENDROOT
BRANCH   1  21
ATOM     18  N   UNL     1      -3.548  -5.283   1.088  0.00  0.00    -0.176 NA
ATOM     19  C   UNL     1      -2.656  -5.588  -0.038  0.00  0.00    +0.110 C 
ATOM     20  C   UNL     1      -1.474  -4.614  -0.009  0.00  0.00    +0.030 C 
ATOM     21  C   UNL     1      -2.001  -3.178   0.003  0.00  0.00    +0.078 C 
ATOM     22  C   UNL     1      -2.843  -2.953   1.261  0.00  0.00    +0.030 C 
ATOM     23  C   UNL     1      -4.041  -3.908   1.246  0.00  0.00    +0.110 C 
BRANCH  18  24
ATOM     24  S   UNL     1      -3.990  -6.466   2.159  0.00  0.00    +0.067 S 
ATOM     25  O   UNL     1      -5.217  -6.049   2.742  0.00  0.00    -0.152 OA
ATOM     26  O   UNL     1      -3.853  -7.704   1.476  0.00  0.00    -0.152 OA
BRANCH  24  31
ATOM     27  C   UNL     1      -2.792  -5.772   4.615  0.00  0.00    +0.038 A 
ATOM     28  C   UNL     1      -1.736  -5.935   5.493  0.00  0.00    +0.030 A 
ATOM     29  C   UNL     1      -0.734  -6.789   5.165  0.00  0.00    +0.080 A 
ATOM     30  S   UNL     1      -1.275  -7.400   3.578  0.00  0.00    -0.057 S 
ATOM     31  C   UNL     1      -2.794  -6.470   3.454  0.00  0.00    +0.144 A 
ATOM     32 CL   UNL     1       0.698  -7.190   6.061  0.00  0.00    -0.076 Cl
ENDBRANCH  24  31
ENDBRANCH  18  24
ENDBRANCH   1  21
TORSDOF 3
