REMARK  Name = ZINC02400582
REMARK  10 active torsions:
REMARK  status: ('A' for Active; 'I' for Inactive)
REMARK    1  A    between atoms: C_1  and  C_2
REMARK    2  A    between atoms: C_2  and  C_3
REMARK    3  A    between atoms: C_3  and  C_4
REMARK    4  A    between atoms: C_4  and  C_5
REMARK    5  A    between atoms: C_5  and  N_6
REMARK    6  A    between atoms: C_7  and  C_9
REMARK    7  A    between atoms: N_20  and  C_23
REMARK    8  A    between atoms: C_21  and  N_22
REMARK    9  A    between atoms: C_26  and  S_29
REMARK   10  A    between atoms: S_29  and  N_32
REMARK                            x       y       z     vdW  Elec       q    Type
REMARK                         _______ _______ _______ _____ _____    ______ ____
ROOT
ATOM      1  C   UNL     1      -3.821   3.066   6.957  0.00  0.00    +0.104 A 
ATOM      2  C   UNL     1      -4.514   4.139   6.226  0.00  0.00    +0.123 A 
ATOM      3  C   UNL     1      -3.991   4.079   4.859  0.00  0.00    +0.166 A 
ATOM      4  N   UNL     1      -4.438   4.928   3.958  0.00  0.00    -0.225 NA
ATOM      5  C   UNL     1      -5.356   5.841   4.298  0.00  0.00    +0.092 A 
ATOM      6  C   UNL     1      -5.834   6.756   3.343  0.00  0.00    +0.030 A 
ATOM      7  C   UNL     1      -6.767   7.681   3.698  0.00  0.00    +0.002 A 
ATOM      8  C   UNL     1      -7.259   7.739   5.000  0.00  0.00    +0.002 A 
ATOM      9  C   UNL     1      -6.820   6.872   5.952  0.00  0.00    +0.030 A 
ATOM     10  C   UNL     1      -5.856   5.901   5.623  0.00  0.00    +0.090 A 
ATOM     11  N   UNL     1      -5.417   5.042   6.551  0.00  0.00    -0.241 NA
ATOM     12  N   UNL     1      -3.078   3.043   4.822  0.00  0.00    -0.280 N 
ATOM     13  C   UNL     1      -2.972   2.450   6.044  0.00  0.00    +0.117 A 
ENDROOT
BRANCH  12  14
ATOM     14  C   UNL     1      -2.355   2.659   3.684  0.00  0.00    +0.050 A 
ATOM     15  C   UNL     1      -2.560   1.408   3.119  0.00  0.00    +0.028 A 
ATOM     16  C   UNL     1      -1.846   1.032   1.999  0.00  0.00    +0.030 A 
ATOM     17  C   UNL     1      -0.927   1.900   1.439  0.00  0.00    +0.105 A 
ATOM     18  C   UNL     1      -0.716   3.145   2.003  0.00  0.00    +0.030 A 
ATOM     19  C   UNL     1      -1.431   3.529   3.121  0.00  0.00    +0.028 A 
BRANCH  17  20
ATOM     20  S   UNL     1      -0.017   1.417   0.010  0.00  0.00    +0.056 S 
ATOM     21  O   UNL     1       0.002  -0.004   0.002  0.00  0.00    -0.153 OA
ATOM     22  O   UNL     1       1.172   2.195   0.003  0.00  0.00    -0.153 OA
BRANCH  20  23
ATOM     23  N   UNL     1      -0.897   1.885  -1.312  0.00  0.00    -0.204 NA
ATOM     24  H   UNL     1      -1.747   2.338  -1.194  0.00  0.00    +0.144 HD
ATOM     25  H   UNL     1      -0.563   1.708  -2.205  0.00  0.00    +0.144 HD
ENDBRANCH  20  23
ENDBRANCH  17  20
ENDBRANCH  12  14
BRANCH   1  27
ATOM     26  N   UNL     1      -4.921   1.808   8.727  0.00  0.00    -0.311 N 
ATOM     27  C   UNL     1      -3.992   2.716   8.366  0.00  0.00    +0.250 C 
ATOM     28  O   UNL     1      -3.295   3.244   9.213  0.00  0.00    -0.270 OA
ATOM     29  H   UNL     1      -5.476   1.388   8.052  0.00  0.00    +0.149 HD
BRANCH  26  30
ATOM     30  C   UNL     1      -5.092   1.457  10.139  0.00  0.00    +0.104 C 
BRANCH  30  31
ATOM     31  C   UNL     1      -6.202   0.413  10.274  0.00  0.00    +0.019 C 
BRANCH  31  32
ATOM     32  C   UNL     1      -6.381   0.046  11.748  0.00  0.00    +0.001 C 
BRANCH  32  34
ATOM     33  C   UNL     1      -7.670  -1.364  13.358  0.00  0.00    +0.004 C 
ATOM     34  C   UNL     1      -7.491  -0.998  11.883  0.00  0.00    -0.003 C 
ENDBRANCH  32  34
ENDBRANCH  31  32
ENDBRANCH  30  31
ENDBRANCH  26  30
ENDBRANCH   1  27
BRANCH  13  35
ATOM     35  N   UNL     1      -2.144   1.396   6.333  0.00  0.00    -0.343 N 
ATOM     36  H   UNL     1      -1.579   1.020   5.641  0.00  0.00    +0.144 HD
ATOM     37  H   UNL     1      -2.125   1.027   7.230  0.00  0.00    +0.144 HD
ENDBRANCH  13  35
TORSDOF 9
