REMARK  Name = ZINC36522769
REMARK  21 active torsions:
REMARK  status: ('A' for Active; 'I' for Inactive)
REMARK    1  A    between atoms: C_1  and  C_2
REMARK    2  A    between atoms: C_2  and  C_3
REMARK    3  A    between atoms: C_3  and  C_4
REMARK    4  A    between atoms: C_4  and  C_5
REMARK    5  A    between atoms: C_5  and  C_6
REMARK    6  A    between atoms: C_6  and  N_7
REMARK    7  A    between atoms: N_7  and  C_8
REMARK    8  A    between atoms: C_8  and  C_10
REMARK    9  A    between atoms: C_8  and  C_16
REMARK   10  A    between atoms: N_18  and  C_19
REMARK   11  A    between atoms: C_19  and  C_20
REMARK   12  A    between atoms: C_19  and  C_21
REMARK   13  A    between atoms: C_19  and  C_22
REMARK   14  A    between atoms: C_22  and  C_23
REMARK   15  A    between atoms: C_23  and  C_24
REMARK   16  A    between atoms: C_23  and  C_25
REMARK   17  A    between atoms: C_23  and  C_26
REMARK   18  A    between atoms: C_27  and  C_29
REMARK   19  A    between atoms: C_29  and  C_30
REMARK   20  A    between atoms: C_30  and  C_31
REMARK   21  A    between atoms: C_31  and  C_32
REMARK                            x       y       z     vdW  Elec       q    Type
REMARK                         _______ _______ _______ _____ _____    ______ ____
ROOT
ATOM      1  C   UNL     1       4.128  -4.788  -5.062  0.00  0.00    +0.165 C 
ENDROOT
BRANCH   1   2
ATOM      2  C   UNL     1       4.509  -6.242  -5.350  0.00  0.00    +0.018 C 
ATOM      3  C   UNL     1       3.852  -7.155  -4.313  0.00  0.00    +0.006 C 
ATOM      4  C   UNL     1       4.233  -8.609  -4.601  0.00  0.00    +0.000 C 
ATOM      5  C   UNL     1       5.753  -8.762  -4.526  0.00  0.00    +0.000 C 
ATOM      6  C   UNL     1       6.410  -7.849  -5.562  0.00  0.00    +0.000 C 
ATOM      7  C   UNL     1       6.030  -6.395  -5.274  0.00  0.00    +0.006 C 
ENDBRANCH   1   2
BRANCH   1   8
ATOM      8  C   UNL     1       4.828  -3.882  -6.042  0.00  0.00    +0.234 C 
ATOM      9  O   UNL     1       4.219  -3.424  -6.986  0.00  0.00    -0.274 OA
ATOM     10  N   UNL     1       6.131  -3.581  -5.870  0.00  0.00    -0.309 N 
ATOM     11  H   UNL     1       6.646  -4.032  -5.183  0.00  0.00    +0.149 HD
BRANCH  10  12
ATOM     12  C   UNL     1       6.768  -2.573  -6.721  0.00  0.00    +0.030 C 
ATOM     13  C   UNL     1       7.014  -3.162  -8.112  0.00  0.00    +0.031 C 
ATOM     14  C   UNL     1       5.854  -1.353  -6.839  0.00  0.00    +0.031 C 
BRANCH  12  15
ATOM     15  C   UNL     1       8.103  -2.153  -6.102  0.00  0.00    +0.031 C 
BRANCH  15  16
ATOM     16  C   UNL     1       7.931  -1.976  -4.592  0.00  0.00    -0.036 C 
ATOM     17  C   UNL     1       7.583  -3.324  -3.957  0.00  0.00    +0.010 C 
ATOM     18  C   UNL     1       9.235  -1.450  -3.989  0.00  0.00    +0.010 C 
ATOM     19  C   UNL     1       6.803  -0.979  -4.320  0.00  0.00    +0.010 C 
ENDBRANCH  15  16
ENDBRANCH  12  15
ENDBRANCH  10  12
ENDBRANCH   1   8
BRANCH   1  20
ATOM     20  N   UNL     1       2.679  -4.627  -5.197  0.00  0.00    -0.290 N 
ATOM     21  C   UNL     1       2.078  -4.894  -6.374  0.00  0.00    +0.216 C 
ATOM     22  O   UNL     1       2.738  -5.268  -7.321  0.00  0.00    -0.276 OA
BRANCH  20  23
ATOM     23  C   UNL     1       1.882  -4.175  -4.054  0.00  0.00    +0.108 C 
BRANCH  23  24
ATOM     24  C   UNL     1       1.795  -2.648  -4.064  0.00  0.00    +0.019 C 
BRANCH  24  25
ATOM     25  C   UNL     1       0.963  -2.176  -2.870  0.00  0.00    +0.002 C 
BRANCH  25  26
ATOM     26  C   UNL     1       0.876  -0.649  -2.881  0.00  0.00    -0.000 C 
BRANCH  26  28
ATOM     27  C   UNL     1      -0.043   1.351  -1.697  0.00  0.00    +0.004 C 
ATOM     28  C   UNL     1       0.044  -0.177  -1.687  0.00  0.00    -0.003 C 
ENDBRANCH  26  28
ENDBRANCH  25  26
ENDBRANCH  24  25
ENDBRANCH  23  24
ENDBRANCH  20  23
BRANCH  21  29
ATOM     29  C   UNL     1       0.587  -4.728  -6.513  0.00  0.00    +0.096 C 
BRANCH  29  30
ATOM     30  C   UNL     1       0.164  -5.094  -7.937  0.00  0.00    +0.009 C 
BRANCH  30  31
ATOM     31  C   UNL     1      -1.351  -4.926  -8.079  0.00  0.00    -0.003 C 
ATOM     32  C   UNL     1      -1.774  -5.292  -9.503  0.00  0.00    +0.004 C 
ENDBRANCH  30  31
ENDBRANCH  29  30
ENDBRANCH  21  29
ENDBRANCH   1  20
TORSDOF 14
