REMARK  Name = ZINC36568433
REMARK  21 active torsions:
REMARK  status: ('A' for Active; 'I' for Inactive)
REMARK    1  A    between atoms: C_1  and  C_2
REMARK    2  A    between atoms: C_2  and  C_3
REMARK    3  A    between atoms: C_3  and  N_4
REMARK    4  A    between atoms: N_4  and  C_5
REMARK    5  A    between atoms: C_5  and  C_7
REMARK    6  A    between atoms: C_5  and  C_12
REMARK    7  A    between atoms: C_7  and  C_8
REMARK    8  A    between atoms: C_7  and  C_10
REMARK    9  A    between atoms: C_8  and  C_9
REMARK   10  A    between atoms: C_10  and  C_11
REMARK   11  A    between atoms: N_14  and  C_15
REMARK   12  A    between atoms: C_15  and  C_16
REMARK   13  A    between atoms: C_15  and  C_17
REMARK   14  A    between atoms: C_15  and  C_18
REMARK   15  A    between atoms: C_18  and  C_19
REMARK   16  A    between atoms: C_19  and  C_20
REMARK   17  A    between atoms: C_19  and  C_21
REMARK   18  A    between atoms: C_19  and  C_22
REMARK   19  A    between atoms: C_23  and  C_25
REMARK   20  A    between atoms: C_28  and  O_31
REMARK   21  A    between atoms: O_31  and  C_32
REMARK                            x       y       z     vdW  Elec       q    Type
REMARK                         _______ _______ _______ _____ _____    ______ ____
ROOT
ATOM      1  C   UNL     1       0.517  -3.126   0.922  0.00  0.00    +0.165 C 
ENDROOT
BRANCH   1   2
ATOM      2  C   UNL     1       1.254  -2.339  -0.131  0.00  0.00    +0.234 C 
ATOM      3  O   UNL     1       1.149  -1.131  -0.170  0.00  0.00    -0.274 OA
ATOM      4  N   UNL     1       2.030  -2.977  -1.030  0.00  0.00    -0.309 N 
ATOM      5  H   UNL     1       2.074  -3.946  -1.032  0.00  0.00    +0.149 HD
BRANCH   4   6
ATOM      6  C   UNL     1       2.806  -2.207  -2.005  0.00  0.00    +0.030 C 
ATOM      7  C   UNL     1       1.854  -1.421  -2.909  0.00  0.00    +0.031 C 
ATOM      8  C   UNL     1       3.729  -1.234  -1.268  0.00  0.00    +0.031 C 
BRANCH   6   9
ATOM      9  C   UNL     1       3.646  -3.161  -2.856  0.00  0.00    +0.031 C 
BRANCH   9  10
ATOM     10  C   UNL     1       4.707  -3.828  -1.978  0.00  0.00    -0.036 C 
ATOM     11  C   UNL     1       4.091  -4.200  -0.628  0.00  0.00    +0.010 C 
ATOM     12  C   UNL     1       5.221  -5.091  -2.671  0.00  0.00    +0.010 C 
ATOM     13  C   UNL     1       5.870  -2.858  -1.758  0.00  0.00    +0.010 C 
ENDBRANCH   9  10
ENDBRANCH   6   9
ENDBRANCH   4   6
ENDBRANCH   1   2
BRANCH   1  14
ATOM     14  N   UNL     1      -0.922  -2.882   0.796  0.00  0.00    -0.286 N 
ATOM     15  C   UNL     1      -1.757  -3.904   0.524  0.00  0.00    +0.247 C 
ATOM     16  O   UNL     1      -2.959  -3.721   0.518  0.00  0.00    -0.270 OA
BRANCH  15  17
ATOM     17  C   UNL     1      -1.213  -5.245   0.234  0.00  0.00    +0.037 A 
ATOM     18  C   UNL     1      -1.788  -6.376   0.819  0.00  0.00    +0.016 A 
ATOM     19  C   UNL     1      -1.278  -7.625   0.545  0.00  0.00    +0.046 A 
ATOM     20  C   UNL     1      -0.193  -7.762  -0.312  0.00  0.00    +0.120 A 
ATOM     21  C   UNL     1       0.382  -6.639  -0.896  0.00  0.00    +0.046 A 
ATOM     22  C   UNL     1      -0.126  -5.387  -0.632  0.00  0.00    +0.016 A 
BRANCH  20  23
ATOM     23  O   UNL     1       0.308  -8.995  -0.579  0.00  0.00    -0.495 OA
ATOM     24  C   UNL     1       1.424  -9.063  -1.468  0.00  0.00    +0.277 C 
ENDBRANCH  20  23
ENDBRANCH  15  17
BRANCH  14  25
ATOM     25  C   UNL     1      -1.452  -1.527   0.966  0.00  0.00    +0.108 C 
BRANCH  25  27
ATOM     26  C   UNL     1      -2.311   0.488  -0.236  0.00  0.00    +0.005 C 
ATOM     27  C   UNL     1      -1.642  -0.878  -0.406  0.00  0.00    +0.016 C 
ENDBRANCH  25  27
ENDBRANCH  14  25
ENDBRANCH   1  14
BRANCH   1  28
ATOM     28  C   UNL     1       0.990  -2.688   2.309  0.00  0.00    +0.018 C 
BRANCH  28  29
ATOM     29  C   UNL     1       0.251  -3.497   3.378  0.00  0.00    +0.002 C 
ATOM     30  C   UNL     1      -1.225  -3.094   3.392  0.00  0.00    +0.004 C 
ENDBRANCH  28  29
BRANCH  28  31
ATOM     31  C   UNL     1       2.495  -2.932   2.436  0.00  0.00    +0.002 C 
ATOM     32  C   UNL     1       3.255  -1.798   1.744  0.00  0.00    +0.004 C 
ENDBRANCH  28  31
ENDBRANCH   1  28
TORSDOF 12
