REMARK  Name = ZINC02656575
REMARK  3 active torsions:
REMARK  status: ('A' for Active; 'I' for Inactive)
REMARK    1  A    between atoms: C_16  and  C_19
REMARK    2  A    between atoms: C_21  and  C_30
REMARK    3  A    between atoms: C_22  and  N_24
REMARK                            x       y       z     vdW  Elec       q    Type
REMARK                         _______ _______ _______ _____ _____    ______ ____
ROOT
ATOM      1  C   UNL     1      -1.551  -1.115  -6.843  0.00  0.00    +0.000 C 
ATOM      2  C   UNL     1      -0.685  -0.083  -6.116  0.00  0.00    +0.004 C 
ATOM      3  C   UNL     1      -1.440   1.245  -6.028  0.00  0.00    +0.045 C 
ATOM      4  C   UNL     1      -2.748   1.040  -5.264  0.00  0.00    +0.099 C 
ATOM      5  C   UNL     1      -3.612   0.006  -5.984  0.00  0.00    +0.045 C 
ATOM      6  C   UNL     1      -2.855  -1.321  -6.070  0.00  0.00    +0.004 C 
ATOM      7  N   UNL     1      -2.454   0.571  -3.902  0.00  0.00    -0.308 N 
ATOM      8  C   UNL     1      -1.959   1.487  -2.988  0.00  0.00    +0.133 A 
ATOM      9  C   UNL     1      -2.247   2.852  -3.198  0.00  0.00    +0.062 A 
ATOM     10  C   UNL     1      -1.766   3.818  -2.282  0.00  0.00    +0.018 A 
ATOM     11  C   UNL     1      -2.065   5.155  -2.519  0.00  0.00    +0.025 A 
ATOM     12  C   UNL     1      -2.808   5.505  -3.635  0.00  0.00    +0.198 A 
ATOM     13  C   UNL     1      -3.006   3.281  -4.305  0.00  0.00    +0.112 A 
ATOM     14  N   UNL     1      -3.476   2.316  -5.185  0.00  0.00    -0.309 N 
ATOM     15  O   UNL     1      -2.972   6.855  -3.707  0.00  0.00    -0.473 OA
ATOM     16  C   UNL     1      -2.733   7.434  -2.414  0.00  0.00    +0.194 C 
ATOM     17  C   UNL     1      -1.743   6.434  -1.772  0.00  0.00    +0.087 C 
ATOM     18  C   UNL     1      -0.984   3.338  -1.143  0.00  0.00    +0.100 A 
ATOM     19  C   UNL     1      -0.758   1.955  -1.048  0.00  0.00    +0.142 A 
ATOM     20  N   UNL     1      -1.242   1.107  -1.949  0.00  0.00    -0.215 NA
ATOM     21  H   UNL     1      -2.603  -0.354  -3.650  0.00  0.00    +0.150 HD
ATOM     22  H   UNL     1      -4.260   2.479  -5.732  0.00  0.00    +0.149 HD
ATOM     23  N   UNL     1      -3.296   4.586  -4.547  0.00  0.00    -0.314 N 
ATOM     24  H   UNL     1      -3.849   4.875  -5.363  0.00  0.00    +0.170 HD
ENDROOT
BRANCH  19  25
ATOM     25  N   UNL     1      -0.018   1.464   0.010  0.00  0.00    -0.314 N 
ATOM     26  C   UNL     1       1.202   0.799  -0.465  0.00  0.00    +0.106 C 
ATOM     27  C   UNL     1       2.065   0.398   0.734  0.00  0.00    +0.019 C 
ATOM     28  C   UNL     1       1.266  -0.544   1.639  0.00  0.00    +0.003 C 
ATOM     29  C   UNL     1      -0.022   0.155   2.081  0.00  0.00    +0.019 C 
ATOM     30  C   UNL     1      -0.825   0.563   0.843  0.00  0.00    +0.106 C 
ENDBRANCH  19  25
BRANCH  16  31
ATOM     31  C   UNL     1      -4.029   7.509  -1.605  0.00  0.00    +0.153 C 
ATOM     32 CL   UNL     1      -5.096   8.788  -2.296  0.00  0.00    -0.122 Cl
ENDBRANCH  16  31
BRANCH  18  33
ATOM     33  C   UNL     1      -0.465   4.245  -0.164  0.00  0.00    +0.103 C 
ATOM     34  N   UNL     1      -0.053   4.964   0.613  0.00  0.00    -0.191 NA
ENDBRANCH  18  33
TORSDOF 3
