REMARK  Name = ZINC38546297
REMARK  12 active torsions:
REMARK  status: ('A' for Active; 'I' for Inactive)
REMARK    1  A    between atoms: C_1  and  C_2
REMARK    2  A    between atoms: C_2  and  C_3
REMARK    3  A    between atoms: C_5  and  C_16
REMARK    4  A    between atoms: C_6  and  N_8
REMARK    5  A    between atoms: C_9  and  C_11
REMARK    6  A    between atoms: C_16  and  C_18
REMARK    7  A    between atoms: C_16  and  N_28
REMARK    8  A    between atoms: C_21  and  O_26
REMARK    9  A    between atoms: C_23  and  O_24
REMARK   10  A    between atoms: O_24  and  C_25
REMARK   11  A    between atoms: O_26  and  C_27
REMARK   12  A    between atoms: C_31  and  C_34
REMARK                            x       y       z     vdW  Elec       q    Type
REMARK                         _______ _______ _______ _____ _____    ______ ____
ROOT
ATOM      1  C   UNL     1       3.897  -1.493  -2.929  0.00  0.00    -0.001 C 
ENDROOT
BRANCH   1   2
ATOM      2  N   UNL     1       4.747  -1.925  -1.810  0.00  0.00    +0.387 N 
ATOM      3  C   UNL     1       6.047  -2.367  -2.328  0.00  0.00    -0.077 C 
ATOM      4  C   UNL     1       6.964  -2.742  -1.162  0.00  0.00    -0.015 C 
ATOM      5  C   UNL     1       6.320  -3.875  -0.357  0.00  0.00    -0.018 C 
ATOM      6  C   UNL     1       4.934  -3.429   0.115  0.00  0.00    -0.015 C 
ATOM      7  C   UNL     1       4.092  -3.029  -1.099  0.00  0.00    -0.077 C 
ATOM      8  C   UNL     1       7.194  -4.201   0.856  0.00  0.00    +0.007 C 
ATOM      9  H   UNL     1       4.885  -1.152  -1.176  0.00  0.00    -0.080 HD
ENDBRANCH   1   2
BRANCH   1  10
ATOM     10  C   UNL     1       4.568  -0.359  -3.660  0.00  0.00    -0.015 A 
ATOM     11  C   UNL     1       5.412   0.498  -2.980  0.00  0.00    +0.009 A 
ATOM     12  C   UNL     1       6.029   1.538  -3.648  0.00  0.00    +0.046 A 
ATOM     13  C   UNL     1       5.802   1.725  -5.005  0.00  0.00    +0.124 A 
ATOM     14  C   UNL     1       4.956   0.866  -5.689  0.00  0.00    +0.091 A 
ATOM     15  C   UNL     1       4.343  -0.180  -5.018  0.00  0.00    +0.125 A 
BRANCH  15  16
ATOM     16  O   UNL     1       3.517  -1.027  -5.687  0.00  0.00    -0.495 OA
ATOM     17  C   UNL     1       3.419  -0.854  -7.102  0.00  0.00    +0.277 C 
ENDBRANCH  15  16
BRANCH  13  18
ATOM     18  O   UNL     1       6.409   2.748  -5.661  0.00  0.00    -0.495 OA
ATOM     19  C   UNL     1       7.267   3.594  -4.893  0.00  0.00    +0.277 C 
ENDBRANCH  13  18
ENDBRANCH   1  10
BRANCH   1  22
ATOM     20  C   UNL     1       1.265   0.010  -0.726  0.00  0.00    -0.008 A 
ATOM     21  C   UNL     1       2.478  -0.394  -1.173  0.00  0.00    +0.015 A 
ATOM     22  C   UNL     1       2.565  -1.030  -2.398  0.00  0.00    -0.028 A 
ATOM     23  C   UNL     1       1.425  -1.229  -3.116  0.00  0.00    +0.074 A 
ATOM     24  S   UNL     1       0.186  -0.514  -2.048  0.00  0.00    -0.078 S 
BRANCH  23  25
ATOM     25  N   UNL     1       1.265  -1.839  -4.362  0.00  0.00    -0.273 N 
ATOM     26  C   UNL     1       0.062  -1.828  -4.969  0.00  0.00    +0.284 C 
ATOM     27  O   UNL     1      -0.865  -1.215  -4.472  0.00  0.00    -0.266 OA
ATOM     28  H   UNL     1       2.021  -2.272  -4.790  0.00  0.00    +0.156 HD
BRANCH  26  29
ATOM     29  C   UNL     1      -0.130  -2.553  -6.229  0.00  0.00    +0.189 A 
ATOM     30  C   UNL     1      -1.312  -2.703  -6.896  0.00  0.00    +0.054 A 
ATOM     31  C   UNL     1      -1.034  -3.461  -8.044  0.00  0.00    +0.042 A 
ATOM     32  C   UNL     1       0.288  -3.737  -8.028  0.00  0.00    +0.196 A 
ATOM     33  O   UNL     1       0.831  -3.184  -6.935  0.00  0.00    -0.458 OA
ENDBRANCH  26  29
ENDBRANCH  23  25
BRANCH  20  35
ATOM     34  C   UNL     1       0.975   2.229   0.344  0.00  0.00    +0.009 C 
ATOM     35  C   UNL     1       0.915   0.715   0.560  0.00  0.00    +0.039 C 
ENDBRANCH  20  35
ENDBRANCH   1  22
TORSDOF 8
