REMARK  Name = ZINC09404292
REMARK  6 active torsions:
REMARK  status: ('A' for Active; 'I' for Inactive)
REMARK    1  A    between atoms: C_1  and  C_2
REMARK    2  A    between atoms: C_15  and  C_17
REMARK    3  A    between atoms: C_20  and  S_23
REMARK    4  A    between atoms: S_23  and  N_26
REMARK    5  A    between atoms: C_28  and  C_35
REMARK    6  A    between atoms: C_31  and  C_34
REMARK                            x       y       z     vdW  Elec       q    Type
REMARK                         _______ _______ _______ _____ _____    ______ ____
ROOT
ATOM      1  C   UNL     1      -1.167  -0.956   0.008  0.00  0.00    +0.073 C 
ATOM      2  C   UNL     1       0.002  -0.004   0.002  0.00  0.00    +0.076 A 
ATOM      3  N   UNL     1       1.274  -0.285  -0.012  0.00  0.00    -0.243 NA
ATOM      4  C   UNL     1       2.231   0.667  -0.016  0.00  0.00    +0.094 A 
ATOM      5  C   UNL     1       1.734   1.991  -0.004  0.00  0.00    +0.040 A 
ATOM      6  S   UNL     1      -0.021   1.732   0.012  0.00  0.00    -0.072 S 
ATOM      7  C   UNL     1       2.572   3.083  -0.006  0.00  0.00    +0.019 A 
ATOM      8  C   UNL     1       3.924   2.934  -0.020  0.00  0.00    +0.030 A 
ATOM      9  C   UNL     1       4.505   1.637  -0.032  0.00  0.00    +0.082 A 
ATOM     10  C   UNL     1       3.628   0.541  -0.030  0.00  0.00    +0.067 A 
ATOM     11  S   UNL     1       4.740  -0.844  -0.047  0.00  0.00    -0.050 S 
ATOM     12  C   UNL     1       6.261   0.094  -0.057  0.00  0.00    +0.166 A 
ATOM     13  N   UNL     1       5.824   1.331  -0.046  0.00  0.00    -0.224 NA
ATOM     14  N   UNL     1       7.568  -0.367  -0.072  0.00  0.00    -0.261 N 
ATOM     15  C   UNL     1       8.592   0.509  -0.077  0.00  0.00    +0.250 C 
ATOM     16  O   UNL     1       8.369   1.704  -0.069  0.00  0.00    -0.270 OA
ATOM     17  H   UNL     1       7.746  -1.321  -0.078  0.00  0.00    +0.157 HD
ENDROOT
BRANCH  15  18
ATOM     18  C   UNL     1       9.985   0.017  -0.093  0.00  0.00    +0.037 A 
ATOM     19  C   UNL     1      10.245  -1.355  -0.097  0.00  0.00    +0.015 A 
ATOM     20  C   UNL     1      11.548  -1.807  -0.117  0.00  0.00    +0.029 A 
ATOM     21  C   UNL     1      12.597  -0.904  -0.123  0.00  0.00    +0.106 A 
ATOM     22  C   UNL     1      12.347   0.456  -0.114  0.00  0.00    +0.029 A 
ATOM     23  C   UNL     1      11.048   0.922  -0.099  0.00  0.00    +0.015 A 
BRANCH  21  24
ATOM     24  S   UNL     1      14.258  -1.491  -0.143  0.00  0.00    +0.061 S 
ATOM     25  O   UNL     1      14.221  -2.798  -0.700  0.00  0.00    -0.153 OA
ATOM     26  O   UNL     1      15.050  -0.449  -0.696  0.00  0.00    -0.153 OA
BRANCH  24  27
ATOM     27  N   UNL     1      14.735  -1.662   1.433  0.00  0.00    -0.176 NA
ATOM     28  C   UNL     1      15.378  -0.549   2.146  0.00  0.00    +0.112 C 
ATOM     29  C   UNL     1      14.606  -0.294   3.450  0.00  0.00    +0.002 C 
ATOM     30  C   UNL     1      14.529  -1.594   4.254  0.00  0.00    +0.009 C 
ATOM     31  C   UNL     1      13.773  -2.652   3.446  0.00  0.00    +0.002 C 
ATOM     32  C   UNL     1      14.530  -2.932   2.144  0.00  0.00    +0.112 C 
ATOM     33  C   UNL     1      13.669  -3.941   4.263  0.00  0.00    +0.009 C 
ATOM     34  C   UNL     1      13.191   0.189   3.124  0.00  0.00    +0.009 C 
ENDBRANCH  24  27
ENDBRANCH  21  24
ENDBRANCH  15  18
TORSDOF 3
