REMARK  Name = ZINC08685671
REMARK  7 active torsions:
REMARK  status: ('A' for Active; 'I' for Inactive)
REMARK    1  A    between atoms: C_1  and  C_2
REMARK    2  A    between atoms: C_3  and  C_17
REMARK    3  A    between atoms: C_4  and  O_16
REMARK    4  A    between atoms: N_5  and  C_7
REMARK    5  A    between atoms: N_18  and  C_19
REMARK    6  A    between atoms: C_22  and  S_25
REMARK    7  A    between atoms: S_25  and  N_28
REMARK                            x       y       z     vdW  Elec       q    Type
REMARK                         _______ _______ _______ _____ _____    ______ ____
ROOT
ATOM      1  C   UNL     1      -2.459  -0.365  -0.680  0.00  0.00    +0.068 C 
ATOM      2  C   UNL     1      -1.077  -0.834  -0.306  0.00  0.00    +0.073 A 
ATOM      3  C   UNL     1       0.030  -0.004  -0.008  0.00  0.00    +0.077 A 
ATOM      4  C   UNL     1       1.100  -0.842   0.288  0.00  0.00    +0.225 A 
ATOM      5  N   UNL     1       0.656  -2.112   0.168  0.00  0.00    -0.197 N 
ATOM      6  N   UNL     1      -0.693  -2.076  -0.204  0.00  0.00    -0.168 NA
ENDROOT
BRANCH   5   7
ATOM      7  C   UNL     1       1.417  -3.270   0.381  0.00  0.00    +0.106 A 
ATOM      8  C   UNL     1       2.594  -3.470  -0.330  0.00  0.00    +0.069 A 
ATOM      9  C   UNL     1       3.344  -4.611  -0.116  0.00  0.00    +0.042 A 
ATOM     10  C   UNL     1       2.920  -5.558   0.800  0.00  0.00    +0.044 A 
ATOM     11  C   UNL     1       1.745  -5.364   1.506  0.00  0.00    +0.042 A 
ATOM     12  C   UNL     1       0.993  -4.223   1.298  0.00  0.00    +0.069 A 
ATOM     13 CL   UNL     1      -0.480  -3.981   2.184  0.00  0.00    -0.081 Cl
ATOM     14 CL   UNL     1       3.862  -6.992   1.063  0.00  0.00    -0.083 Cl
ATOM     15 CL   UNL     1       3.123  -2.286  -1.484  0.00  0.00    -0.081 Cl
ENDBRANCH   5   7
BRANCH   4  16
ATOM     16  O   UNL     1       2.352  -0.458   0.633  0.00  0.00    -0.492 OA
ATOM     17  H   UNL     1       2.503  -0.419   1.587  0.00  0.00    +0.294 HD
ENDBRANCH   4  16
BRANCH   3  18
ATOM     18  C   UNL     1       0.044   1.462  -0.006  0.00  0.00    +0.126 C 
ATOM     19  N   UNL     1       1.141   2.104   0.295  0.00  0.00    -0.255 NA
BRANCH  19  20
ATOM     20  C   UNL     1       1.155   3.473   0.296  0.00  0.00    +0.064 A 
ATOM     21  C   UNL     1       0.571   4.181  -0.756  0.00  0.00    +0.029 A 
ATOM     22  C   UNL     1       0.584   5.561  -0.746  0.00  0.00    +0.030 A 
ATOM     23  C   UNL     1       1.183   6.242   0.299  0.00  0.00    +0.106 A 
ATOM     24  C   UNL     1       1.769   5.547   1.342  0.00  0.00    +0.030 A 
ATOM     25  C   UNL     1       1.758   4.168   1.347  0.00  0.00    +0.029 A 
BRANCH  23  26
ATOM     26  S   UNL     1       1.201   8.004   0.301  0.00  0.00    +0.061 S 
ATOM     27  O   UNL     1       0.111   8.422  -0.510  0.00  0.00    -0.153 OA
ATOM     28  O   UNL     1       1.340   8.408   1.656  0.00  0.00    -0.153 OA
BRANCH  26  29
ATOM     29  N   UNL     1       2.581   8.481  -0.480  0.00  0.00    -0.172 NA
ATOM     30  C   UNL     1       3.834   8.698   0.262  0.00  0.00    +0.137 C 
ATOM     31  C   UNL     1       4.952   7.918  -0.449  0.00  0.00    +0.177 C 
ATOM     32  O   UNL     1       4.965   8.273  -1.833  0.00  0.00    -0.377 OA
ATOM     33  C   UNL     1       3.767   7.931  -2.536  0.00  0.00    +0.177 C 
ATOM     34  C   UNL     1       2.590   8.707  -1.934  0.00  0.00    +0.137 C 
ENDBRANCH  26  29
ENDBRANCH  23  26
ENDBRANCH  19  20
ENDBRANCH   3  18
TORSDOF 6
