REMARK  Name = ZINC08842101
REMARK  9 active torsions:
REMARK  status: ('A' for Active; 'I' for Inactive)
REMARK    1  A    between atoms: C_1  and  C_2
REMARK    2  A    between atoms: N_10  and  C_11
REMARK    3  A    between atoms: C_11  and  C_13
REMARK    4  A    between atoms: N_18  and  S_19
REMARK    5  A    between atoms: S_19  and  C_22
REMARK    6  A    between atoms: N_29  and  C_30
REMARK    7  A    between atoms: C_30  and  C_31
REMARK    8  A    between atoms: C_31  and  O_33
REMARK    9  A    between atoms: O_33  and  C_34
REMARK                            x       y       z     vdW  Elec       q    Type
REMARK                         _______ _______ _______ _____ _____    ______ ____
ROOT
ATOM      1  C   UNL     1      -5.042   3.501   6.775  0.00  0.00    +0.257 C 
ATOM      2  O   UNL     1      -3.896   3.265   7.105  0.00  0.00    -0.272 OA
ENDROOT
BRANCH   1  12
ATOM      3  C   UNL     1      -5.785  -4.114   3.093  0.00  0.00    +0.044 C 
ATOM      4  C   UNL     1      -5.650  -2.832   3.874  0.00  0.00    -0.049 A 
ATOM      5  C   UNL     1      -5.345  -2.864   5.224  0.00  0.00    +0.005 A 
ATOM      6  C   UNL     1      -5.216  -1.706   5.953  0.00  0.00    +0.027 A 
ATOM      7  C   UNL     1      -5.392  -0.452   5.346  0.00  0.00    +0.058 A 
ATOM      8  C   UNL     1      -5.700  -0.451   3.978  0.00  0.00    +0.039 A 
ATOM      9  C   UNL     1      -5.822  -1.610   3.248  0.00  0.00    +0.020 A 
ATOM     10  S   UNL     1      -5.841   1.276   3.594  0.00  0.00    -0.052 S 
ATOM     11  C   UNL     1      -5.506   1.914   5.171  0.00  0.00    +0.167 A 
ATOM     12  N   UNL     1      -5.460   3.189   5.553  0.00  0.00    -0.155 NA
ATOM     13  N   UNL     1      -5.302   0.801   5.923  0.00  0.00    -0.310 N 
BRANCH  13  14
ATOM     14  C   UNL     1      -4.985   0.929   7.348  0.00  0.00    +0.244 C 
BRANCH  14  15
ATOM     15  C   UNL     1      -3.490   0.896   7.535  0.00  0.00    +0.327 C 
ATOM     16  O   UNL     1      -2.762   0.853   6.572  0.00  0.00    -0.249 OA
BRANCH  15  17
ATOM     17  O   UNL     1      -2.968   0.914   8.771  0.00  0.00    -0.467 OA
ATOM     18  C   UNL     1      -1.522   0.996   8.875  0.00  0.00    +0.280 C 
ENDBRANCH  15  17
ENDBRANCH  14  15
ENDBRANCH  13  14
ENDBRANCH   1  12
BRANCH   1  19
ATOM     19  C   UNL     1      -5.989   4.148   7.753  0.00  0.00    +0.167 C 
ATOM     20  C   UNL     1      -7.078   3.139   8.197  0.00  0.00    +0.031 C 
ATOM     21  C   UNL     1      -8.226   4.090   8.626  0.00  0.00    +0.019 C 
ATOM     22  C   UNL     1      -8.107   5.254   7.620  0.00  0.00    +0.110 C 
ATOM     23  N   UNL     1      -6.730   5.244   7.101  0.00  0.00    -0.165 NA
BRANCH  23  24
ATOM     24  S   UNL     1      -6.114   6.288   5.973  0.00  0.00    +0.062 S 
ATOM     25  O   UNL     1      -6.788   7.525   6.154  0.00  0.00    -0.153 OA
ATOM     26  O   UNL     1      -4.699   6.174   6.044  0.00  0.00    -0.153 OA
BRANCH  24  27
ATOM     27  C   UNL     1      -6.589   5.682   4.388  0.00  0.00    +0.106 A 
ATOM     28  C   UNL     1      -5.698   4.938   3.637  0.00  0.00    +0.030 A 
ATOM     29  C   UNL     1      -6.072   4.458   2.396  0.00  0.00    +0.022 A 
ATOM     30  C   UNL     1      -7.335   4.732   1.901  0.00  0.00    +0.041 A 
ATOM     31  C   UNL     1      -8.224   5.481   2.651  0.00  0.00    +0.022 A 
ATOM     32  C   UNL     1      -7.851   5.956   3.894  0.00  0.00    +0.030 A 
ATOM     33 CL   UNL     1      -7.803   4.135   0.340  0.00  0.00    -0.084 Cl
ENDBRANCH  24  27
ENDBRANCH  23  24
ENDBRANCH   1  19
TORSDOF 7
