REMARK  Name = ZINC09580170
REMARK  4 active torsions:
REMARK  status: ('A' for Active; 'I' for Inactive)
REMARK    1  A    between atoms: C_6  and  C_7
REMARK    2  A    between atoms: C_7  and  C_8
REMARK    3  A    between atoms: C_8  and  N_10
REMARK    4  A    between atoms: N_12  and  C_23
REMARK                            x       y       z     vdW  Elec       q    Type
REMARK                         _______ _______ _______ _____ _____    ______ ____
ROOT
ATOM      1  N   UNL     1      -2.690  -2.166  -1.628  0.00  0.00    -0.159 NA
ATOM      2  C   UNL     1      -3.161  -2.135  -2.870  0.00  0.00    +0.154 C 
ATOM      3  N   UNL     1      -4.401  -2.580  -3.321  0.00  0.00    -0.276 N 
ATOM      4  C   UNL     1      -4.533  -2.650  -4.743  0.00  0.00    +0.116 C 
ATOM      5  C   UNL     1      -5.853  -2.856  -5.467  0.00  0.00    +0.190 C 
ATOM      6  S   UNL     1      -5.348  -2.421  -7.195  0.00  0.00    -0.028 S 
ATOM      7  O   UNL     1      -6.154  -1.347  -7.657  0.00  0.00    -0.174 OA
ATOM      8  O   UNL     1      -5.258  -3.612  -7.966  0.00  0.00    -0.174 OA
ATOM      9  C   UNL     1      -3.637  -1.792  -6.851  0.00  0.00    +0.182 C 
ATOM     10  C   UNL     1      -3.848  -1.379  -5.378  0.00  0.00    +0.097 C 
ATOM     11  S   UNL     1      -2.341  -1.503  -4.341  0.00  0.00    -0.086 S 
ENDROOT
BRANCH   3  12
ATOM     12  C   UNL     1      -5.439  -2.933  -2.449  0.00  0.00    +0.039 A 
ATOM     13  C   UNL     1      -5.855  -4.255  -2.364  0.00  0.00    +0.027 A 
ATOM     14  C   UNL     1      -6.878  -4.605  -1.504  0.00  0.00    +0.051 A 
ATOM     15  C   UNL     1      -7.492  -3.638  -0.724  0.00  0.00    +0.166 A 
ATOM     16  C   UNL     1      -7.077  -2.311  -0.807  0.00  0.00    +0.168 A 
ATOM     17  C   UNL     1      -6.047  -1.962  -1.666  0.00  0.00    +0.073 A 
ATOM     18  O   UNL     1      -7.830  -1.563   0.051  0.00  0.00    -0.453 OA
ATOM     19  C   UNL     1      -8.981  -2.372   0.358  0.00  0.00    +0.466 C 
ATOM     20  O   UNL     1      -8.506  -3.721   0.187  0.00  0.00    -0.453 OA
ENDBRANCH   3  12
BRANCH   1  21
ATOM     21  C   UNL     1      -1.476  -1.691  -1.365  0.00  0.00    +0.243 C 
ATOM     22  O   UNL     1      -0.797  -1.228  -2.261  0.00  0.00    -0.273 OA
BRANCH  21  23
ATOM     23  C   UNL     1      -0.942  -1.726   0.044  0.00  0.00    +0.133 C 
BRANCH  23  29
ATOM     24  C   UNL     1       0.609   0.224   0.287  0.00  0.00    +0.007 A 
ATOM     25  C   UNL     1       1.879   0.769   0.312  0.00  0.00    +0.038 A 
ATOM     26  C   UNL     1       2.984  -0.042   0.120  0.00  0.00    +0.123 A 
ATOM     27  C   UNL     1       2.817  -1.399  -0.097  0.00  0.00    +0.038 A 
ATOM     28  C   UNL     1       1.546  -1.942  -0.121  0.00  0.00    +0.007 A 
ATOM     29  C   UNL     1       0.443  -1.132   0.071  0.00  0.00    -0.038 A 
ATOM     30  F   UNL     1       4.226   0.491   0.144  0.00  0.00    -0.205 F 
ENDBRANCH  23  29
ENDBRANCH  21  23
ENDBRANCH   1  21
TORSDOF 4
