REMARK  Name = ZINC13059983
REMARK  6 active torsions:
REMARK  status: ('A' for Active; 'I' for Inactive)
REMARK    1  A    between atoms: N_10  and  C_11
REMARK    2  A    between atoms: C_11  and  C_12
REMARK    3  A    between atoms: N_14  and  N_15
REMARK    4  A    between atoms: N_15  and  S_16
REMARK    5  A    between atoms: S_16  and  C_19
REMARK    6  A    between atoms: C_21  and  C_26
REMARK                            x       y       z     vdW  Elec       q    Type
REMARK                         _______ _______ _______ _____ _____    ______ ____
ROOT
ATOM      1  C   UNL     1       1.603   0.180  -2.281  0.00  0.00    +0.245 C 
ATOM      2  O   UNL     1       1.708   1.321  -2.678  0.00  0.00    -0.273 OA
ATOM      3  N   UNL     1       1.322  -0.812  -3.149  0.00  0.00    -0.231 N 
ATOM      4  H   UNL     1       1.238  -1.725  -2.832  0.00  0.00    +0.171 HD
ENDROOT
BRANCH   3   5
ATOM      5  N   UNL     1       1.152  -0.525  -4.510  0.00  0.00    -0.108 NA
ATOM      6  H   UNL     1       0.497   0.133  -4.788  0.00  0.00    +0.172 HD
BRANCH   5   7
ATOM      7  S   UNL     1       2.069  -1.311  -5.643  0.00  0.00    +0.075 S 
ATOM      8  O   UNL     1       1.498  -1.009  -6.908  0.00  0.00    -0.152 OA
ATOM      9  O   UNL     1       3.427  -1.029  -5.333  0.00  0.00    -0.152 OA
BRANCH   7  10
ATOM     10  C   UNL     1       1.843  -3.040  -5.388  0.00  0.00    +0.121 A 
ATOM     11  C   UNL     1       2.914  -3.826  -5.016  0.00  0.00    +0.044 A 
ATOM     12  C   UNL     1       2.732  -5.195  -4.810  0.00  0.00    +0.065 A 
ATOM     13  C   UNL     1       1.468  -5.761  -4.993  0.00  0.00    +0.016 A 
ATOM     14  C   UNL     1       0.407  -4.965  -5.370  0.00  0.00    +0.018 A 
ATOM     15  C   UNL     1       0.593  -3.607  -5.568  0.00  0.00    +0.044 A 
ATOM     16 BR   UNL     1      -0.867  -2.523  -6.084  0.00  0.00    -0.048 Br
BRANCH  12  17
ATOM     17  C   UNL     1       3.872  -6.042  -4.406  0.00  0.00    +0.387 C 
ATOM     18  O   UNL     1       4.970  -5.547  -4.247  0.00  0.00    -0.241 OA
ATOM     19  O   UNL     1       3.695  -7.363  -4.212  0.00  0.00    -0.241 OA
ENDBRANCH  12  17
ENDBRANCH   7  10
ENDBRANCH   5   7
ENDBRANCH   3   5
BRANCH   1  20
ATOM     20  C   UNL     1       1.786  -0.129  -0.818  0.00  0.00    +0.202 C 
BRANCH  20  30
ATOM     21  C   UNL     1      -1.230   3.658  -0.348  0.00  0.00    +0.000 A 
ATOM     22  C   UNL     1      -1.396   2.285  -0.307  0.00  0.00    +0.002 A 
ATOM     23  C   UNL     1      -0.296   1.461  -0.220  0.00  0.00    +0.023 A 
ATOM     24  C   UNL     1       0.991   2.001  -0.184  0.00  0.00    +0.033 A 
ATOM     25  C   UNL     1       1.153   3.374  -0.236  0.00  0.00    -0.026 A 
ATOM     26  C   UNL     1       0.040   4.198  -0.315  0.00  0.00    +0.005 A 
ATOM     27  C   UNL     1       2.515   4.021  -0.211  0.00  0.00    +0.038 C 
ATOM     28  C   UNL     1       3.558   3.006   0.264  0.00  0.00    +0.024 C 
ATOM     29  C   UNL     1       3.335   1.702  -0.511  0.00  0.00    +0.106 C 
ATOM     30  N   UNL     1       2.063   1.115  -0.086  0.00  0.00    -0.321 N 
ENDBRANCH  20  30
ENDBRANCH   1  20
TORSDOF 6
