REMARK  Name = ZINC44095124
REMARK  5 active torsions:
REMARK  status: ('A' for Active; 'I' for Inactive)
REMARK    1  A    between atoms: C_1  and  C_2
REMARK    2  A    between atoms: C_2  and  C_3
REMARK    3  A    between atoms: C_2  and  C_4
REMARK    4  A    between atoms: C_6  and  C_9
REMARK    5  A    between atoms: C_21  and  C_23
REMARK                            x       y       z     vdW  Elec       q    Type
REMARK                         _______ _______ _______ _____ _____    ______ ____
ROOT
ATOM      1  C   UNL     1      -4.103  -2.404  -1.435  0.00  0.00    +0.038 A 
ATOM      2  C   UNL     1      -5.399  -2.524  -0.917  0.00  0.00    +0.016 A 
ATOM      3  C   UNL     1      -6.314  -3.290  -1.611  0.00  0.00    +0.042 A 
ATOM      4  C   UNL     1      -5.923  -3.913  -2.793  0.00  0.00    +0.099 A 
ATOM      5  N   UNL     1      -4.689  -3.780  -3.255  0.00  0.00    -0.349 N 
ATOM      6  C   UNL     1      -3.788  -3.053  -2.626  0.00  0.00    +0.095 A 
ATOM      7  N   UNL     1      -6.838  -4.686  -3.495  0.00  0.00    -0.314 N 
ATOM      8  C   UNL     1      -6.485  -5.260  -4.801  0.00  0.00    +0.125 C 
ATOM      9  C   UNL     1      -6.707  -6.776  -4.747  0.00  0.00    +0.127 C 
ATOM     10  N   UNL     1      -8.046  -7.035  -4.198  0.00  0.00    -0.295 N 
ATOM     11  C   UNL     1      -8.398  -6.461  -2.892  0.00  0.00    +0.127 C 
ATOM     12  C   UNL     1      -8.174  -4.949  -2.944  0.00  0.00    +0.125 C 
ATOM     13  C   UNL     1      -8.934  -7.785  -4.880  0.00  0.00    +0.248 C 
ATOM     14  O   UNL     1      -8.607  -8.314  -5.924  0.00  0.00    -0.270 OA
ATOM     15  H   UNL     1      -4.443  -4.225  -4.081  0.00  0.00    +0.167 HD
ENDROOT
BRANCH  13  16
ATOM     16  C   UNL     1     -10.305  -7.963  -4.358  0.00  0.00    +0.056 A 
ATOM     17  C   UNL     1     -10.505  -8.455  -3.067  0.00  0.00    +0.029 A 
ATOM     18  C   UNL     1     -11.788  -8.620  -2.586  0.00  0.00    +0.019 A 
ATOM     19  C   UNL     1     -12.876  -8.298  -3.382  0.00  0.00    +0.017 A 
ATOM     20  C   UNL     1     -12.685  -7.811  -4.661  0.00  0.00    +0.022 A 
ATOM     21  C   UNL     1     -11.406  -7.635  -5.153  0.00  0.00    +0.053 A 
ATOM     22 CL   UNL     1     -11.168  -7.016  -6.757  0.00  0.00    -0.083 Cl
ATOM     23 BR   UNL     1     -12.062  -9.286  -0.838  0.00  0.00    -0.050 Br
ENDBRANCH  13  16
BRANCH   1  26
ATOM     24  C   UNL     1      -2.176  -0.316   0.773  0.00  0.00    +0.230 A 
ATOM     25  N   UNL     1      -3.273  -0.924   0.425  0.00  0.00    -0.191 NA
ATOM     26  C   UNL     1      -3.083  -1.593  -0.728  0.00  0.00    +0.203 A 
ATOM     27  N   UNL     1      -1.847  -1.407  -1.120  0.00  0.00    -0.056 NA
ATOM     28  O   UNL     1      -1.239  -0.567  -0.150  0.00  0.00    -0.337 OA
BRANCH  24  30
ATOM     29  C   UNL     1      -0.884  -0.061   2.874  0.00  0.00    +0.017 C 
ATOM     30  C   UNL     1      -1.993   0.534   2.004  0.00  0.00    +0.072 C 
ATOM     31  C   UNL     1      -1.608   1.956   1.589  0.00  0.00    +0.017 C 
ENDBRANCH  24  30
ENDBRANCH   1  26
TORSDOF 3
