REMARK  Name = ZINC19894308
REMARK  3 active torsions:
REMARK  status: ('A' for Active; 'I' for Inactive)
REMARK    1  A    between atoms: C_4  and  N_23
REMARK    2  A    between atoms: C_5  and  C_10
REMARK    3  A    between atoms: N_15  and  C_16
REMARK                            x       y       z     vdW  Elec       q    Type
REMARK                         _______ _______ _______ _____ _____    ______ ____
ROOT
ATOM      1  C   UNL     1      -2.617  -0.490   0.011  0.00  0.00    +0.178 A 
ATOM      2  N   UNL     1      -1.675  -1.397  -0.004  0.00  0.00    -0.127 NA
ATOM      3  N   UNL     1      -2.287  -2.657  -0.003  0.00  0.00    -0.121 NA
ATOM      4  C   UNL     1      -3.622  -2.462   0.005  0.00  0.00    +0.207 A 
ATOM      5  S   UNL     1      -4.820  -3.685   0.005  0.00  0.00    -0.009 SA
ATOM      6  N   UNL     1      -3.843  -1.133   0.014  0.00  0.00    -0.269 N 
ENDROOT
BRANCH   1  11
ATOM      7  C   UNL     1      -0.455   5.367   0.035  0.00  0.00    +0.020 A 
ATOM      8  C   UNL     1      -0.187   4.018   0.025  0.00  0.00    +0.014 A 
ATOM      9  C   UNL     1      -1.268   3.103   0.031  0.00  0.00    +0.029 A 
ATOM     10  C   UNL     1      -1.232   1.649   0.017  0.00  0.00    +0.052 A 
ATOM     11  C   UNL     1      -2.410   0.965   0.019  0.00  0.00    +0.080 A 
ATOM     12  S   UNL     1      -3.639   2.255   0.032  0.00  0.00    -0.064 S 
ATOM     13  C   UNL     1      -2.565   3.669   0.035  0.00  0.00    +0.111 A 
ATOM     14  N   UNL     1      -2.769   4.967   0.044  0.00  0.00    -0.248 NA
ATOM     15  C   UNL     1      -1.765   5.822   0.044  0.00  0.00    +0.112 A 
BRANCH  10  16
ATOM     16  N   UNL     1      -0.011   0.966   0.007  0.00  0.00    -0.356 N 
ATOM     17  H   UNL     1       0.004  -0.134  -0.003  0.00  0.00    +0.142 HD
ATOM     18  H   UNL     1       0.934   1.529   0.011  0.00  0.00    +0.142 HD
ENDBRANCH  10  16
ENDBRANCH   1  11
BRANCH   6  19
ATOM     19  C   UNL     1      -5.098  -0.509   0.024  0.00  0.00    +0.051 A 
ATOM     20  C   UNL     1      -5.491   0.244   1.122  0.00  0.00    +0.029 A 
ATOM     21  C   UNL     1      -6.726   0.862   1.128  0.00  0.00    +0.040 A 
ATOM     22  C   UNL     1      -7.577   0.722   0.045  0.00  0.00    +0.124 A 
ATOM     23  C   UNL     1      -7.188  -0.032  -1.050  0.00  0.00    +0.040 A 
ATOM     24  C   UNL     1      -5.952  -0.647  -1.062  0.00  0.00    +0.029 A 
ATOM     25  F   UNL     1      -8.787   1.323   0.055  0.00  0.00    -0.205 F 
ENDBRANCH   6  19
TORSDOF 3
