REMARK  Name = ZINC29836339
REMARK  9 active torsions:
REMARK  status: ('A' for Active; 'I' for Inactive)
REMARK    1  A    between atoms: C_1  and  C_2
REMARK    2  A    between atoms: C_3  and  C_15
REMARK    3  A    between atoms: N_5  and  C_7
REMARK    4  A    between atoms: N_17  and  C_18
REMARK    5  A    between atoms: C_18  and  C_19
REMARK    6  A    between atoms: C_19  and  C_21
REMARK    7  A    between atoms: C_19  and  N_28
REMARK    8  A    between atoms: N_28  and  C_29
REMARK    9  A    between atoms: N_28  and  C_30
REMARK                            x       y       z     vdW  Elec       q    Type
REMARK                         _______ _______ _______ _____ _____    ______ ____
ROOT
ATOM      1  C   UNL     1      -0.981   2.146   2.649  0.00  0.00    +0.249 C 
ATOM      2  O   UNL     1       0.153   1.961   3.047  0.00  0.00    -0.270 OA
ATOM      3  N   UNL     1      -1.269   1.995   1.341  0.00  0.00    -0.312 N 
ATOM      4  H   UNL     1      -2.295   2.162   0.981  0.00  0.00    +0.149 HD
ENDROOT
BRANCH   1   7
ATOM      5  C   UNL     1      -1.768   5.117   3.436  0.00  0.00    +0.068 C 
ATOM      6  C   UNL     1      -2.401   3.853   3.956  0.00  0.00    +0.074 A 
ATOM      7  C   UNL     1      -2.040   2.534   3.596  0.00  0.00    +0.096 A 
ATOM      8  C   UNL     1      -2.871   1.678   4.295  0.00  0.00    +0.145 A 
ATOM      9  N   UNL     1      -3.688   2.439   5.047  0.00  0.00    -0.220 N 
ATOM     10  N   UNL     1      -3.379   3.784   4.816  0.00  0.00    -0.170 NA
ATOM     11 CL   UNL     1      -2.859  -0.056   4.220  0.00  0.00    -0.061 Cl
BRANCH   9  12
ATOM     12  C   UNL     1      -4.685   1.963   5.912  0.00  0.00    +0.067 A 
ATOM     13  C   UNL     1      -5.403   0.821   5.583  0.00  0.00    +0.030 A 
ATOM     14  C   UNL     1      -6.380   0.352   6.438  0.00  0.00    +0.040 A 
ATOM     15  C   UNL     1      -6.652   1.025   7.618  0.00  0.00    +0.124 A 
ATOM     16  C   UNL     1      -5.940   2.168   7.944  0.00  0.00    +0.040 A 
ATOM     17  C   UNL     1      -4.958   2.637   7.094  0.00  0.00    +0.030 A 
ATOM     18  F   UNL     1      -7.612   0.568   8.450  0.00  0.00    -0.205 F 
ENDBRANCH   9  12
ENDBRANCH   1   7
BRANCH   3  19
ATOM     19  C   UNL     1      -0.216   1.608   0.399  0.00  0.00    +0.094 C 
BRANCH  19  20
ATOM     20  C   UNL     1      -0.780   1.604  -1.024  0.00  0.00    -0.021 C 
BRANCH  20  21
ATOM     21  C   UNL     1       0.340   1.382  -2.008  0.00  0.00    -0.057 A 
ATOM     22  C   UNL     1       0.289   0.313  -2.882  0.00  0.00    +0.002 A 
ATOM     23  C   UNL     1       1.315   0.108  -3.786  0.00  0.00    +0.003 A 
ATOM     24  C   UNL     1       2.393   0.972  -3.815  0.00  0.00    +0.038 A 
ATOM     25  C   UNL     1       2.445   2.043  -2.939  0.00  0.00    +0.124 A 
ATOM     26  C   UNL     1       1.414   2.251  -2.039  0.00  0.00    +0.040 A 
ATOM     27  F   UNL     1       3.498   2.889  -2.968  0.00  0.00    -0.205 F 
ENDBRANCH  20  21
BRANCH  20  28
ATOM     28  N   UNL     1      -1.425   2.895  -1.298  0.00  0.00    +0.382 N 
ATOM     29  C   UNL     1      -0.704   3.994  -0.641  0.00  0.00    -0.096 C 
ATOM     30  C   UNL     1      -1.537   3.131  -2.744  0.00  0.00    -0.096 C 
ATOM     31  H   UNL     1      -2.442   2.861  -0.881  0.00  0.00    -0.082 HD
ENDBRANCH  20  28
ENDBRANCH  19  20
ENDBRANCH   3  19
TORSDOF 6
