REMARK  Name = ZINC12499112
REMARK  8 active torsions:
REMARK  status: ('A' for Active; 'I' for Inactive)
REMARK    1  A    between atoms: C_1  and  C_2
REMARK    2  A    between atoms: C_5  and  C_9
REMARK    3  A    between atoms: N_11  and  C_12
REMARK    4  A    between atoms: C_12  and  N_14
REMARK    5  A    between atoms: N_14  and  C_15
REMARK    6  A    between atoms: C_17  and  N_23
REMARK    7  A    between atoms: C_20  and  O_21
REMARK    8  A    between atoms: O_21  and  C_22
REMARK                            x       y       z     vdW  Elec       q    Type
REMARK                         _______ _______ _______ _____ _____    ______ ____
ROOT
ATOM      1  C   UNL     1      -4.856   3.803   0.313  0.00  0.00    +0.141 C 
ATOM      2  S   UNL     1      -4.861   5.480   0.655  0.00  0.00    -0.018 S 
ENDROOT
BRANCH   1   5
ATOM      3  C   UNL     1      -2.531   3.768   0.521  0.00  0.00    +0.250 C 
ATOM      4  O   UNL     1      -2.535   4.958   0.763  0.00  0.00    -0.270 OA
ATOM      5  N   UNL     1      -3.692   3.125   0.283  0.00  0.00    -0.264 N 
ATOM      6  H   UNL     1      -3.689   2.174   0.089  0.00  0.00    +0.157 HD
BRANCH   3  11
ATOM      7  C   UNL     1       2.440   0.871   0.389  0.00  0.00    +0.045 C 
ATOM      8  C   UNL     1       1.138   1.630   0.423  0.00  0.00    -0.036 A 
ATOM      9  C   UNL     1      -0.052   0.968   0.178  0.00  0.00    +0.005 A 
ATOM     10  C   UNL     1      -1.246   1.657   0.203  0.00  0.00    +0.013 A 
ATOM     11  C   UNL     1      -1.254   3.024   0.487  0.00  0.00    +0.038 A 
ATOM     12  C   UNL     1      -0.051   3.687   0.733  0.00  0.00    +0.028 A 
ATOM     13  C   UNL     1       1.138   2.986   0.700  0.00  0.00    +0.021 A 
ATOM     14 BR   UNL     1       2.771   3.881   1.033  0.00  0.00    -0.050 Br
ENDBRANCH   3  11
ENDBRANCH   1   5
BRANCH   1  15
ATOM     15  N   UNL     1      -6.016   3.160   0.075  0.00  0.00    -0.294 N 
ATOM     16  H   UNL     1      -6.009   2.224  -0.179  0.00  0.00    +0.154 HD
BRANCH  15  17
ATOM     17  C   UNL     1      -7.233   3.843   0.196  0.00  0.00    +0.077 A 
ATOM     18  C   UNL     1      -7.390   5.092  -0.387  0.00  0.00    +0.059 A 
ATOM     19  C   UNL     1      -8.594   5.762  -0.272  0.00  0.00    +0.128 A 
ATOM     20  C   UNL     1      -9.639   5.196   0.434  0.00  0.00    +0.036 A 
ATOM     21  C   UNL     1      -9.488   3.954   1.022  0.00  0.00    +0.050 A 
ATOM     22  C   UNL     1      -8.287   3.273   0.906  0.00  0.00    +0.141 A 
BRANCH  19  23
ATOM     23  N   UNL     1      -8.761   7.092  -0.899  0.00  0.00    +0.056 N 
ATOM     24  O   UNL     1      -9.819   7.687  -0.793  0.00  0.00    -0.126 OA
ATOM     25  O   UNL     1      -7.841   7.593  -1.521  0.00  0.00    -0.126 OA
ENDBRANCH  19  23
BRANCH  22  26
ATOM     26  O   UNL     1      -8.137   2.051   1.485  0.00  0.00    -0.493 OA
ATOM     27  C   UNL     1      -9.260   1.529   2.198  0.00  0.00    +0.277 C 
ENDBRANCH  22  26
ENDBRANCH  15  17
ENDBRANCH   1  15
TORSDOF 6
