REMARK  Name = ZINC65524528
REMARK  8 active torsions:
REMARK  status: ('A' for Active; 'I' for Inactive)
REMARK    1  A    between atoms: C_1  and  C_2
REMARK    2  A    between atoms: C_2  and  C_27
REMARK    3  A    between atoms: C_4  and  N_10
REMARK    4  A    between atoms: C_6  and  C_8
REMARK    5  A    between atoms: C_6  and  C_9
REMARK    6  A    between atoms: C_11  and  C_13
REMARK    7  A    between atoms: N_15  and  C_16
REMARK    8  A    between atoms: C_20  and  C_22
REMARK                            x       y       z     vdW  Elec       q    Type
REMARK                         _______ _______ _______ _____ _____    ______ ____
ROOT
ATOM      1  N   UNL     1      -3.539  -0.925   1.011  0.00  0.00    -0.305 N 
ATOM      2  C   UNL     1      -4.544  -0.478   1.789  0.00  0.00    +0.300 C 
ATOM      3  O   UNL     1      -4.330   0.374   2.626  0.00  0.00    -0.265 OA
ATOM      4  H   UNL     1      -3.710  -1.607   0.342  0.00  0.00    +0.149 HD
ENDROOT
BRANCH   1   8
ATOM      5  C   UNL     1      -0.007   1.518   0.035  0.00  0.00    -0.010 C 
ATOM      6  C   UNL     1       0.008  -0.014   0.017  0.00  0.00    -0.072 C 
ATOM      7  C   UNL     1      -1.414  -0.542  -0.135  0.00  0.00    +0.009 C 
ATOM      8  C   UNL     1      -2.185  -0.382   1.176  0.00  0.00    +0.071 C 
ATOM      9  C   UNL     1      -1.453  -1.174   2.259  0.00  0.00    +0.009 C 
ATOM     10  C   UNL     1      -0.030  -0.651   2.429  0.00  0.00    -0.072 C 
ATOM     11  N   UNL     1       0.699  -0.548   1.178  0.00  0.00    +0.386 N 
ATOM     12  C   UNL     1       0.725  -1.653   3.333  0.00  0.00    -0.010 C 
ATOM     13  C   UNL     1      -0.056   0.690   3.170  0.00  0.00    -0.010 C 
ATOM     14  C   UNL     1       0.798  -0.445  -1.240  0.00  0.00    -0.010 C 
ATOM     15  H   UNL     1       1.055  -1.479   0.938  0.00  0.00    -0.084 HD
ATOM     16  H   UNL     1       1.538   0.017   1.340  0.00  0.00    -0.084 HD
ENDBRANCH   1   8
BRANCH   2  17
ATOM     17  C   UNL     1      -5.921  -1.031   1.621  0.00  0.00    +0.303 C 
ATOM     18  O   UNL     1      -6.135  -1.883   0.784  0.00  0.00    -0.265 OA
ATOM     19  N   UNL     1      -6.927  -0.583   2.399  0.00  0.00    -0.278 N 
ATOM     20  H   UNL     1      -6.744   0.048   3.113  0.00  0.00    +0.155 HD
BRANCH  19  21
ATOM     21  C   UNL     1      -8.233  -1.029   2.178  0.00  0.00    +0.035 A 
ATOM     22  C   UNL     1      -8.462  -2.335   1.765  0.00  0.00    +0.026 A 
ATOM     23  C   UNL     1      -9.754  -2.773   1.547  0.00  0.00    +0.041 A 
ATOM     24  C   UNL     1     -10.820  -1.911   1.740  0.00  0.00    +0.135 A 
ATOM     25  C   UNL     1     -10.594  -0.608   2.152  0.00  0.00    +0.092 A 
ATOM     26  C   UNL     1      -9.305  -0.168   2.377  0.00  0.00    +0.038 A 
ATOM     27  F   UNL     1     -12.083  -2.341   1.526  0.00  0.00    -0.205 F 
BRANCH  25  28
ATOM     28  C   UNL     1     -11.757   0.328   2.362  0.00  0.00    +0.420 C 
ATOM     29  F   UNL     1     -11.281   1.577   2.774  0.00  0.00    -0.166 F 
ATOM     30  F   UNL     1     -12.463   0.470   1.162  0.00  0.00    -0.166 F 
ATOM     31  F   UNL     1     -12.606  -0.195   3.343  0.00  0.00    -0.166 F 
ENDBRANCH  25  28
ENDBRANCH  19  21
ENDBRANCH   2  17
TORSDOF 4
