REMARK  Name = ZINC44499814
REMARK  6 active torsions:
REMARK  status: ('A' for Active; 'I' for Inactive)
REMARK    1  A    between atoms: C_1  and  C_2
REMARK    2  A    between atoms: C_5  and  O_33
REMARK    3  A    between atoms: C_17  and  C_32
REMARK    4  A    between atoms: C_21  and  S_25
REMARK    5  A    between atoms: S_25  and  C_26
REMARK    6  A    between atoms: N_30  and  C_31
REMARK                            x       y       z     vdW  Elec       q    Type
REMARK                         _______ _______ _______ _____ _____    ______ ____
ROOT
ATOM      1  C   UNL     1       0.014   1.500  -0.180  0.00  0.00    +0.016 C 
ATOM      2  C   UNL     1       0.021  -0.037  -0.176  0.00  0.00    -0.008 C 
ATOM      3  C   UNL     1       0.734  -0.499  -1.448  0.00  0.00    +0.014 C 
ATOM      4  C   UNL     1       2.205  -0.087  -1.428  0.00  0.00    +0.032 C 
ATOM      5  C   UNL     1       2.917  -0.691  -0.219  0.00  0.00    +0.119 C 
ATOM      6  C   UNL     1       2.284  -0.155   1.071  0.00  0.00    +0.062 C 
ATOM      7  C   UNL     1       0.799  -0.479   1.023  0.00  0.00    -0.065 C 
ATOM      8  C   UNL     1       0.287  -1.156   2.004  0.00  0.00    -0.027 C 
ATOM      9  C   UNL     1      -1.133  -1.621   2.018  0.00  0.00    +0.031 C 
ATOM     10  C   UNL     1      -2.034  -0.690   1.189  0.00  0.00    +0.001 C 
ATOM     11  C   UNL     1      -1.433  -0.463  -0.188  0.00  0.00    +0.003 C 
ATOM     12  C   UNL     1      -1.714  -1.592  -1.160  0.00  0.00    +0.005 C 
ATOM     13  C   UNL     1      -3.211  -1.826  -1.389  0.00  0.00    +0.015 C 
ATOM     14  C   UNL     1      -4.039  -1.188  -0.303  0.00  0.00    +0.030 C 
ATOM     15  C   UNL     1      -3.367  -1.399   1.064  0.00  0.00    +0.007 C 
ATOM     16  C   UNL     1      -4.470  -0.928   2.025  0.00  0.00    +0.027 C 
ATOM     17  C   UNL     1      -5.748  -1.524   1.373  0.00  0.00    +0.121 C 
ATOM     18  C   UNL     1      -5.385  -1.859  -0.069  0.00  0.00    +0.153 C 
ATOM     19  O   UNL     1      -6.009  -2.509  -0.863  0.00  0.00    -0.296 OA
ATOM     20  C   UNL     1      -4.332   0.280  -0.608  0.00  0.00    +0.019 C 
ENDROOT
BRANCH   5  21
ATOM     21  O   UNL     1       4.301  -0.333  -0.253  0.00  0.00    -0.391 OA
ATOM     22  H   UNL     1       4.816  -0.683   0.487  0.00  0.00    +0.210 HD
ENDBRANCH   5  21
BRANCH  17  23
ATOM     23  S   UNL     1      -7.093  -0.308   1.417  0.00  0.00    -0.077 S 
BRANCH  23  24
ATOM     24  C   UNL     1      -8.483  -1.187   0.783  0.00  0.00    +0.169 A 
ATOM     25  N   UNL     1      -8.486  -2.439   0.391  0.00  0.00    -0.230 NA
ATOM     26  C   UNL     1      -9.718  -2.770  -0.030  0.00  0.00    +0.131 A 
ATOM     27  C   UNL     1     -10.513  -1.694   0.102  0.00  0.00    +0.107 A 
ATOM     28  N   UNL     1      -9.737  -0.684   0.624  0.00  0.00    -0.329 N 
ATOM     29  C   UNL     1     -10.178   0.676   0.943  0.00  0.00    +0.151 C 
ENDBRANCH  23  24
ENDBRANCH  17  23
TORSDOF 3
