REMARK  Name = ZINC16009637
REMARK  3 active torsions:
REMARK  status: ('A' for Active; 'I' for Inactive)
REMARK    1  A    between atoms: C_1  and  C_2
REMARK    2  A    between atoms: N_25  and  C_28
REMARK    3  A    between atoms: C_31  and  N_34
REMARK                            x       y       z     vdW  Elec       q    Type
REMARK                         _______ _______ _______ _____ _____    ______ ____
ROOT
ATOM      1  C   UNL     1      -0.095   6.524   1.487  0.00  0.00    +0.044 C 
ATOM      2  C   UNL     1      -0.792   5.210   1.733  0.00  0.00    -0.049 A 
ATOM      3  C   UNL     1      -0.168   4.021   1.400  0.00  0.00    +0.008 A 
ATOM      4  C   UNL     1      -0.806   2.822   1.625  0.00  0.00    -0.026 A 
ATOM      5  C   UNL     1      -2.077   2.789   2.188  0.00  0.00    +0.054 A 
ATOM      6  C   UNL     1      -2.700   3.991   2.520  0.00  0.00    +0.063 A 
ATOM      7  C   UNL     1      -2.057   5.191   2.292  0.00  0.00    +0.025 A 
ATOM      8 CL   UNL     1      -4.287   3.979   3.223  0.00  0.00    -0.082 Cl
ATOM      9  N   UNL     1      -2.513   1.469   2.319  0.00  0.00    -0.285 N 
ATOM     10  C   UNL     1      -1.600   0.587   1.875  0.00  0.00    +0.212 C 
ATOM     11  O   UNL     1      -1.707  -0.622   1.870  0.00  0.00    -0.277 OA
ATOM     12  C   UNL     1      -0.418   1.385   1.383  0.00  0.00    +0.053 C 
ATOM     13  C   UNL     1      -0.013   1.086   0.008  0.00  0.00    +0.089 C 
ATOM     14  C   UNL     1       1.517   1.489  -0.004  0.00  0.00    +0.074 C 
ATOM     15  C   UNL     1       1.901   0.741   1.272  0.00  0.00    -0.054 C 
ATOM     16  N   UNL     1       0.780   1.064   2.223  0.00  0.00    +0.395 N 
ATOM     17  C   UNL     1       0.481  -0.199   2.965  0.00  0.00    -0.076 C 
ATOM     18  C   UNL     1       1.446  -1.290   2.461  0.00  0.00    -0.020 C 
ATOM     19  C   UNL     1       1.843  -0.781   1.050  0.00  0.00    -0.016 C 
ATOM     20  C   UNL     1       1.821   0.887  -1.351  0.00  0.00    +0.228 C 
ATOM     21  O   UNL     1       2.848   0.343  -1.695  0.00  0.00    -0.275 OA
ATOM     22  N   UNL     1       0.700   1.082  -2.106  0.00  0.00    -0.210 N 
ATOM     23  C   UNL     1      -0.402   1.395  -1.350  0.00  0.00    +0.229 C 
ATOM     24  O   UNL     1      -1.465   1.833  -1.735  0.00  0.00    -0.275 OA
ATOM     25  H   UNL     1      -3.504   1.257   2.747  0.00  0.00    +0.155 HD
ATOM     26  H   UNL     1       1.027   1.889   2.907  0.00  0.00    -0.079 HD
ENDROOT
BRANCH  22  27
ATOM     27  C   UNL     1       0.676   0.975  -3.504  0.00  0.00    +0.044 A 
ATOM     28  C   UNL     1      -0.508   1.183  -4.198  0.00  0.00    +0.026 A 
ATOM     29  C   UNL     1      -0.526   1.083  -5.575  0.00  0.00    +0.034 A 
ATOM     30  C   UNL     1       0.631   0.763  -6.262  0.00  0.00    +0.126 A 
ATOM     31  C   UNL     1       1.810   0.549  -5.573  0.00  0.00    +0.034 A 
ATOM     32  C   UNL     1       1.836   0.654  -4.196  0.00  0.00    +0.026 A 
BRANCH  30  33
ATOM     33  N   UNL     1       0.607   0.650  -7.738  0.00  0.00    +0.056 N 
ATOM     34  O   UNL     1       1.625   0.368  -8.344  0.00  0.00    -0.126 OA
ATOM     35  O   UNL     1      -0.432   0.839  -8.346  0.00  0.00    -0.126 OA
ENDBRANCH  30  33
ENDBRANCH  22  27
TORSDOF 2
