REMARK  Name = ZINC34832175
REMARK  12 active torsions:
REMARK  status: ('A' for Active; 'I' for Inactive)
REMARK    1  A    between atoms: C_1  and  C_2
REMARK    2  A    between atoms: C_2  and  C_3
REMARK    3  A    between atoms: C_3  and  C_5
REMARK    4  A    between atoms: C_3  and  N_6
REMARK    5  A    between atoms: N_6  and  C_7
REMARK    6  A    between atoms: C_7  and  C_8
REMARK    7  A    between atoms: C_9  and  C_28
REMARK    8  A    between atoms: N_11  and  C_21
REMARK    9  A    between atoms: C_12  and  N_13
REMARK   10  A    between atoms: N_16  and  C_19
REMARK   11  A    between atoms: C_19  and  C_20
REMARK   12  A    between atoms: N_31  and  C_32
REMARK                            x       y       z     vdW  Elec       q    Type
REMARK                         _______ _______ _______ _____ _____    ______ ____
ROOT
ATOM      1  C   UNL     1       4.207   1.087   3.829  0.00  0.00    +0.032 A 
ATOM      2  C   UNL     1       3.818   0.133   4.774  0.00  0.00    +0.067 A 
ATOM      3  N   UNL     1       4.894  -0.421   5.272  0.00  0.00    -0.170 NA
ATOM      4  N   UNL     1       6.013   0.161   4.663  0.00  0.00    -0.218 N 
ATOM      5  C   UNL     1       5.567   1.087   3.771  0.00  0.00    +0.130 A 
ATOM      6  C   UNL     1       2.398  -0.202   5.154  0.00  0.00    +0.068 C 
ENDROOT
BRANCH   5   7
ATOM      7  N   UNL     1       6.357   1.888   2.951  0.00  0.00    -0.318 N 
ATOM      8  C   UNL     1       6.817   3.210   3.403  0.00  0.00    +0.088 C 
ATOM      9  C   UNL     1       8.330   3.301   3.177  0.00  0.00    -0.060 C 
ATOM     10  N   UNL     1       8.633   3.001   1.772  0.00  0.00    +0.382 N 
ATOM     11  C   UNL     1       8.271   1.611   1.469  0.00  0.00    -0.060 C 
ATOM     12  C   UNL     1       6.761   1.433   1.612  0.00  0.00    +0.088 C 
ATOM     13  H   UNL     1       8.107   3.622   1.176  0.00  0.00    -0.082 HD
BRANCH  10  14
ATOM     14  C   UNL     1      10.069   3.195   1.531  0.00  0.00    -0.082 C 
ATOM     15  C   UNL     1      10.367   3.005   0.042  0.00  0.00    -0.017 C 
ENDBRANCH  10  14
ENDBRANCH   5   7
BRANCH   4  16
ATOM     16  C   UNL     1       7.353  -0.158   4.923  0.00  0.00    +0.070 A 
ATOM     17  C   UNL     1       8.214  -0.453   3.873  0.00  0.00    +0.028 A 
ATOM     18  C   UNL     1       9.534  -0.766   4.131  0.00  0.00    +0.005 A 
ATOM     19  C   UNL     1      10.001  -0.787   5.432  0.00  0.00    +0.038 A 
ATOM     20  C   UNL     1       9.145  -0.495   6.482  0.00  0.00    +0.125 A 
ATOM     21  C   UNL     1       7.823  -0.175   6.228  0.00  0.00    +0.066 A 
ATOM     22  F   UNL     1       9.604  -0.517   7.752  0.00  0.00    -0.205 F 
ENDBRANCH   4  16
BRANCH   1  23
ATOM     23  C   UNL     1       3.284   1.958   3.015  0.00  0.00    +0.150 C 
BRANCH  23  24
ATOM     24  N   UNL     1       2.646   1.151   1.972  0.00  0.00    -0.278 N 
ATOM     25  C   UNL     1       3.159   1.134   0.726  0.00  0.00    +0.307 C 
ATOM     26  O   UNL     1       4.205   1.708   0.491  0.00  0.00    -0.252 OA
ATOM     27  N   UNL     1       2.513   0.481  -0.260  0.00  0.00    -0.269 N 
ATOM     28  H   UNL     1       1.642   0.088  -0.092  0.00  0.00    +0.156 HD
BRANCH  27  29
ATOM     29  C   UNL     1       3.097   0.371  -1.527  0.00  0.00    +0.036 A 
ATOM     30  C   UNL     1       4.479   0.404  -1.661  0.00  0.00    +0.023 A 
ATOM     31  C   UNL     1       5.054   0.294  -2.912  0.00  0.00    +0.003 A 
ATOM     32  C   UNL     1       4.255   0.152  -4.031  0.00  0.00    +0.020 A 
ATOM     33  C   UNL     1       2.877   0.119  -3.902  0.00  0.00    +0.043 A 
ATOM     34  C   UNL     1       2.297   0.222  -2.651  0.00  0.00    +0.043 A 
ATOM     35 CL   UNL     1       1.878  -0.059  -5.310  0.00  0.00    -0.083 Cl
ENDBRANCH  27  29
BRANCH  24  36
ATOM     36  C   UNL     1       1.451   0.364   2.283  0.00  0.00    +0.075 C 
ATOM     37  C   UNL     1       1.683  -1.095   1.882  0.00  0.00    +0.028 C 
BRANCH  36  39
ATOM     38  C   UNL     1      -0.057   2.336   2.002  0.00  0.00    +0.006 C 
ATOM     39  C   UNL     1       0.256   0.922   1.507  0.00  0.00    +0.019 C 
ENDBRANCH  36  39
ENDBRANCH  24  36
ENDBRANCH  23  24
ENDBRANCH   1  23
TORSDOF 8
