REMARK  Name = ZINC27639599
REMARK  18 active torsions:
REMARK  status: ('A' for Active; 'I' for Inactive)
REMARK    1  A    between atoms: C_1  and  C_2
REMARK    2  A    between atoms: C_2  and  C_3
REMARK    3  A    between atoms: C_4  and  C_5
REMARK    4  A    between atoms: C_5  and  C_6
REMARK    5  A    between atoms: C_6  and  C_8
REMARK    6  A    between atoms: C_6  and  O_30
REMARK    7  A    between atoms: C_9  and  C_10
REMARK    8  A    between atoms: C_11  and  C_12
REMARK    9  A    between atoms: C_13  and  C_14
REMARK   10  A    between atoms: C_15  and  C_16
REMARK   11  A    between atoms: C_16  and  C_18
REMARK   12  A    between atoms: C_16  and  O_29
REMARK   13  A    between atoms: C_18  and  C_20
REMARK   14  A    between atoms: C_18  and  O_28
REMARK   15  A    between atoms: C_20  and  C_21
REMARK   16  A    between atoms: C_22  and  C_23
REMARK   17  A    between atoms: C_23  and  C_24
REMARK   18  A    between atoms: C_24  and  C_25
REMARK                            x       y       z     vdW  Elec       q    Type
REMARK                         _______ _______ _______ _____ _____    ______ ____
ROOT
ATOM      1  C   UNL     1       0.469   1.384  -3.523  0.00  0.00    -0.002 C 
ATOM      2  C   UNL     1      -0.021   0.464  -2.691  0.00  0.00    +0.006 C 
ENDROOT
BRANCH   1   4
ATOM      3  C   UNL     1       2.388   2.674  -4.303  0.00  0.00    -0.000 C 
ATOM      4  C   UNL     1       1.903   1.674  -3.530  0.00  0.00    -0.000 C 
BRANCH   3   6
ATOM      5  C   UNL     1       1.994   4.438  -5.877  0.00  0.00    -0.000 C 
ATOM      6  C   UNL     1       1.509   3.438  -5.103  0.00  0.00    -0.000 C 
BRANCH   5   8
ATOM      7  C   UNL     1       1.562   6.215  -7.467  0.00  0.00    +0.004 C 
ATOM      8  C   UNL     1       1.084   5.229  -6.705  0.00  0.00    -0.002 C 
BRANCH   7   9
ATOM      9  C   UNL     1       0.625   7.030  -8.320  0.00  0.00    +0.141 C 
BRANCH   9  10
ATOM     10  O   UNL     1       0.996   6.900  -9.694  0.00  0.00    -0.387 OA
ATOM     11  H   UNL     1       0.998   5.909 -10.172  0.00  0.00    +0.210 HD
ENDBRANCH   9  10
BRANCH   9  12
ATOM     12  C   UNL     1       0.706   8.501  -7.907  0.00  0.00    +0.062 C 
BRANCH  12  14
ATOM     13  C   UNL     1      -1.169  10.059  -8.033  0.00  0.00    -0.031 C 
ATOM     14  C   UNL     1      -0.318   9.296  -8.674  0.00  0.00    -0.028 C 
BRANCH  13  16
ATOM     15  C   UNL     1      -0.997  11.781  -6.258  0.00  0.00    +0.008 C 
ATOM     16  C   UNL     1      -1.015  10.280  -6.551  0.00  0.00    +0.023 C 
ENDBRANCH  13  16
ENDBRANCH  12  14
ENDBRANCH   9  12
ENDBRANCH   7   9
ENDBRANCH   5   8
ENDBRANCH   3   6
ENDBRANCH   1   4
BRANCH   2  17
ATOM     17  C   UNL     1       0.873  -0.170  -1.656  0.00  0.00    +0.166 C 
BRANCH  17  18
ATOM     18  O   UNL     1       0.414   0.185  -0.349  0.00  0.00    -0.385 OA
ATOM     19  H   UNL     1       0.946  -0.187   0.539  0.00  0.00    +0.210 HD
ENDBRANCH  17  18
BRANCH  17  20
ATOM     20  C   UNL     1       0.837  -1.691  -1.813  0.00  0.00    +0.151 C 
BRANCH  20  21
ATOM     21  O   UNL     1      -0.517  -2.145  -1.751  0.00  0.00    -0.389 OA
ATOM     22  H   UNL     1      -0.742  -3.217  -1.846  0.00  0.00    +0.210 HD
ENDBRANCH  20  21
BRANCH  20  23
ATOM     23  C   UNL     1       1.644  -2.339  -0.687  0.00  0.00    +0.061 C 
BRANCH  23  24
ATOM     24  C   UNL     1       1.712  -3.828  -0.910  0.00  0.00    -0.028 C 
ATOM     25  C   UNL     1       2.871  -4.438  -0.910  0.00  0.00    -0.030 C 
BRANCH  25  26
ATOM     26  C   UNL     1       4.119  -3.685  -0.529  0.00  0.00    +0.038 C 
BRANCH  26  27
ATOM     27  C   UNL     1       4.849  -4.438   0.585  0.00  0.00    +0.129 C 
BRANCH  27  28
ATOM     28  C   UNL     1       6.098  -3.684   0.966  0.00  0.00    +0.356 C 
ATOM     29  O   UNL     1       6.375  -2.651   0.405  0.00  0.00    -0.246 OA
ATOM     30  O   UNL     1       6.902  -4.161   1.930  0.00  0.00    -0.246 OA
ENDBRANCH  27  28
ENDBRANCH  26  27
ENDBRANCH  25  26
ENDBRANCH  23  24
ENDBRANCH  20  23
ENDBRANCH  17  20
ENDBRANCH   2  17
TORSDOF 17
