REMARK  Name = ZINC39994362
REMARK  9 active torsions:
REMARK  status: ('A' for Active; 'I' for Inactive)
REMARK    1  A    between atoms: C_1  and  C_2
REMARK    2  A    between atoms: C_5  and  C_39
REMARK    3  A    between atoms: C_6  and  N_8
REMARK    4  A    between atoms: C_9  and  C_11
REMARK    5  A    between atoms: C_11  and  C_37
REMARK    6  A    between atoms: C_12  and  C_13
REMARK    7  A    between atoms: C_14  and  N_25
REMARK    8  A    between atoms: C_17  and  C_24
REMARK    9  A    between atoms: N_28  and  C_31
REMARK                            x       y       z     vdW  Elec       q    Type
REMARK                         _______ _______ _______ _____ _____    ______ ____
ROOT
ATOM      1  C   UNL     1       0.378  -3.294   6.995  0.00  0.00    +0.081 A 
ATOM      2  C   UNL     1       0.487  -2.780   8.313  0.00  0.00    +0.136 A 
ATOM      3  N   UNL     1       0.548  -3.618   9.336  0.00  0.00    -0.213 NA
ATOM      4  C   UNL     1       0.510  -4.940   9.163  0.00  0.00    +0.145 A 
ATOM      5  C   UNL     1       0.579  -5.778  10.290  0.00  0.00    -0.007 A 
ATOM      6  C   UNL     1       0.541  -7.132  10.126  0.00  0.00    +0.008 A 
ATOM      7  C   UNL     1       0.434  -7.668   8.835  0.00  0.00    +0.019 A 
ATOM      8  C   UNL     1       0.369  -6.846   7.763  0.00  0.00    +0.096 A 
ATOM      9  N   UNL     1       0.406  -5.493   7.918  0.00  0.00    -0.267 N 
ATOM     10  C   UNL     1       0.333  -4.702   6.825  0.00  0.00    +0.267 A 
ATOM     11  O   UNL     1       0.235  -5.189   5.713  0.00  0.00    -0.267 OA
ATOM     12  C   UNL     1       0.695  -5.185  11.671  0.00  0.00    +0.047 C 
ENDROOT
BRANCH   2  13
ATOM     13  N   UNL     1       0.529  -1.421   8.526  0.00  0.00    -0.312 N 
ATOM     14  C   UNL     1      -0.278  -0.510   7.704  0.00  0.00    +0.125 C 
ATOM     15  C   UNL     1      -1.149   0.346   8.631  0.00  0.00    +0.124 C 
ATOM     16  N   UNL     1      -0.297   0.912   9.686  0.00  0.00    -0.327 N 
ATOM     17  C   UNL     1       0.511   0.000  10.509  0.00  0.00    +0.124 C 
ATOM     18  C   UNL     1       1.377  -0.856   9.585  0.00  0.00    +0.125 C 
BRANCH  16  19
ATOM     19  C   UNL     1      -0.254   2.291   9.902  0.00  0.00    +0.030 A 
ATOM     20  C   UNL     1      -1.109   3.133   9.202  0.00  0.00    +0.023 A 
ATOM     21  C   UNL     1      -1.064   4.496   9.419  0.00  0.00    +0.002 A 
ATOM     22  C   UNL     1      -0.170   5.023  10.332  0.00  0.00    +0.000 A 
ATOM     23  C   UNL     1       0.683   4.189  11.031  0.00  0.00    +0.002 A 
ATOM     24  C   UNL     1       0.640   2.824  10.823  0.00  0.00    +0.023 A 
ENDBRANCH  16  19
ENDBRANCH   2  13
BRANCH   1  26
ATOM     25  C   UNL     1      -0.758  -2.518   5.005  0.00  0.00    +0.114 C 
ATOM     26  C   UNL     1       0.310  -2.431   5.888  0.00  0.00    +0.040 C 
BRANCH  25  28
ATOM     27  N   UNL     1      -1.806  -1.787   2.928  0.00  0.00    -0.281 N 
ATOM     28  C   UNL     1      -0.769  -1.703   3.786  0.00  0.00    +0.259 C 
ATOM     29  O   UNL     1       0.158  -0.951   3.548  0.00  0.00    -0.269 OA
ATOM     30  H   UNL     1      -2.584  -2.317   3.159  0.00  0.00    +0.155 HD
BRANCH  27  36
ATOM     31  C   UNL     1       0.838   0.234  -0.690  0.00  0.00    +0.044 C 
ATOM     32  C   UNL     1      -0.491  -0.117  -0.071  0.00  0.00    -0.049 A 
ATOM     33  C   UNL     1      -1.665   0.231  -0.713  0.00  0.00    +0.004 A 
ATOM     34  C   UNL     1      -2.886  -0.090  -0.148  0.00  0.00    +0.005 A 
ATOM     35  C   UNL     1      -2.936  -0.759   1.059  0.00  0.00    -0.029 A 
ATOM     36  C   UNL     1      -1.759  -1.110   1.706  0.00  0.00    +0.037 A 
ATOM     37  C   UNL     1      -0.534  -0.791   1.133  0.00  0.00    +0.027 A 
ATOM     38  C   UNL     1      -4.267  -1.107   1.674  0.00  0.00    +0.045 C 
ENDBRANCH  27  36
ENDBRANCH  25  28
BRANCH  25  39
ATOM     39  C   UNL     1      -1.849  -3.402   5.285  0.00  0.00    +0.104 C 
ATOM     40  N   UNL     1      -2.714  -4.104   5.507  0.00  0.00    -0.191 NA
ENDBRANCH  25  39
ENDBRANCH   1  26
TORSDOF 6
