REMARK  Name = ZINC24337712
REMARK  7 active torsions:
REMARK  status: ('A' for Active; 'I' for Inactive)
REMARK    1  A    between atoms: C_1  and  C_2
REMARK    2  A    between atoms: C_4  and  N_11
REMARK    3  A    between atoms: C_6  and  C_8
REMARK    4  A    between atoms: C_8  and  C_9
REMARK    5  A    between atoms: C_8  and  C_10
REMARK    6  A    between atoms: N_14  and  C_17
REMARK    7  A    between atoms: C_17  and  C_18
REMARK                            x       y       z     vdW  Elec       q    Type
REMARK                         _______ _______ _______ _____ _____    ______ ____
ROOT
ATOM      1  N   UNL     1       3.487  -0.772  -0.036  0.00  0.00    -0.313 N 
ATOM      2  C   UNL     1       4.322  -0.385  -1.182  0.00  0.00    +0.122 C 
ATOM      3  C   UNL     1       5.651  -1.141  -1.119  0.00  0.00    +0.103 C 
ATOM      4  N   UNL     1       5.391  -2.587  -1.125  0.00  0.00    -0.295 NA
ATOM      5  C   UNL     1       4.556  -2.974   0.021  0.00  0.00    +0.103 C 
ATOM      6  C   UNL     1       3.226  -2.218  -0.042  0.00  0.00    +0.122 C 
ENDROOT
BRANCH   1  10
ATOM      7  C   UNL     1       1.074   3.518   0.010  0.00  0.00    +0.063 C 
ATOM      8  C   UNL     1       1.111   2.012   0.002  0.00  0.00    +0.017 A 
ATOM      9  C   UNL     1       2.319   1.342  -0.013  0.00  0.00    +0.064 A 
ATOM     10  C   UNL     1       2.302  -0.054  -0.020  0.00  0.00    +0.125 A 
ATOM     11  N   UNL     1       1.131  -0.684  -0.012  0.00  0.00    -0.219 NA
ATOM     12  C   UNL     1       0.002  -0.004   0.002  0.00  0.00    +0.112 A 
ATOM     13  N   UNL     1      -0.016   1.314   0.009  0.00  0.00    -0.347 N 
ATOM     14  H   UNL     1      -0.985   1.834   0.021  0.00  0.00    +0.167 HD
BRANCH  12  15
ATOM     15  C   UNL     1      -1.305  -0.754   0.011  0.00  0.00    +0.049 C 
ATOM     16  C   UNL     1      -2.094  -0.390   1.270  0.00  0.00    +0.015 C 
ATOM     17  C   UNL     1      -2.119  -0.376  -1.228  0.00  0.00    +0.015 C 
ENDBRANCH  12  15
ENDBRANCH   1  10
BRANCH   4  18
ATOM     18  C   UNL     1       6.647  -3.348  -1.141  0.00  0.00    +0.121 C 
BRANCH  18  19
ATOM     19  C   UNL     1       7.361  -3.111  -2.447  0.00  0.00    -0.016 A 
ATOM     20  C   UNL     1       8.470  -2.287  -2.487  0.00  0.00    +0.055 A 
ATOM     21  C   UNL     1       9.130  -2.067  -3.686  0.00  0.00    +0.162 A 
ATOM     22  C   UNL     1       8.674  -2.679  -4.849  0.00  0.00    +0.163 A 
ATOM     23  C   UNL     1       7.560  -3.503  -4.803  0.00  0.00    +0.065 A 
ATOM     24  C   UNL     1       6.909  -3.722  -3.602  0.00  0.00    +0.026 A 
ATOM     25 BR   UNL     1       5.394  -4.853  -3.542  0.00  0.00    -0.050 Br
ATOM     26  O   UNL     1       9.309  -2.480  -6.036  0.00  0.00    -0.485 OA
ATOM     27  C   UNL     1      10.192  -1.355  -6.112  0.00  0.00    +0.270 C 
ATOM     28  C   UNL     1      11.073  -1.349  -4.855  0.00  0.00    +0.270 C 
ATOM     29  O   UNL     1      10.219  -1.250  -3.710  0.00  0.00    -0.485 OA
ENDBRANCH  18  19
ENDBRANCH   4  18
TORSDOF 4
