REMARK  Name = ZINC41587046
REMARK  8 active torsions:
REMARK  status: ('A' for Active; 'I' for Inactive)
REMARK    1  A    between atoms: C_1  and  C_2
REMARK    2  A    between atoms: C_10  and  C_11
REMARK    3  A    between atoms: C_14  and  O_19
REMARK    4  A    between atoms: C_15  and  O_17
REMARK    5  A    between atoms: O_17  and  C_18
REMARK    6  A    between atoms: O_19  and  C_20
REMARK    7  A    between atoms: N_24  and  C_27
REMARK    8  A    between atoms: C_27  and  C_28
REMARK                            x       y       z     vdW  Elec       q    Type
REMARK                         _______ _______ _______ _____ _____    ______ ____
ROOT
ATOM      1  C   UNL     1      -0.611   1.279  -0.710  0.00  0.00    +0.051 C 
ATOM      2  C   UNL     1      -0.694  -0.224  -0.792  0.00  0.00    +0.034 A 
ATOM      3  C   UNL     1      -0.535  -0.859  -2.015  0.00  0.00    +0.133 A 
ATOM      4  C   UNL     1      -0.608  -2.246  -2.103  0.00  0.00    +0.010 A 
ATOM      5  C   UNL     1      -0.841  -2.993  -0.980  0.00  0.00    +0.024 A 
ATOM      6  C   UNL     1      -1.003  -2.366   0.255  0.00  0.00    +0.068 A 
ATOM      7  C   UNL     1      -0.923  -0.968   0.358  0.00  0.00    +0.146 A 
ATOM      8  O   UNL     1      -1.102  -0.595   1.644  0.00  0.00    -0.451 OA
ATOM      9  C   UNL     1      -1.301  -1.661   2.454  0.00  0.00    +0.176 C 
ATOM     10  C   UNL     1      -1.512  -1.621   3.795  0.00  0.00    +0.058 C 
ATOM     11  C   UNL     1      -1.260  -2.869   1.617  0.00  0.00    +0.231 C 
ATOM     12  O   UNL     1      -1.394  -4.027   1.971  0.00  0.00    -0.283 OA
ATOM     13  C   UNL     1      -0.429  -2.945  -3.426  0.00  0.00    +0.126 C 
ATOM     14  N   UNL     1      -0.605  -1.980  -4.521  0.00  0.00    -0.262 NA
ATOM     15  C   UNL     1       0.208  -0.779  -4.274  0.00  0.00    +0.319 C 
ATOM     16  O   UNL     1      -0.309  -0.106  -3.124  0.00  0.00    -0.476 OA
ENDROOT
BRANCH  10  17
ATOM     17  C   UNL     1      -1.453  -0.341   4.509  0.00  0.00    -0.018 A 
ATOM     18  C   UNL     1      -1.310   0.856   3.796  0.00  0.00    +0.012 A 
ATOM     19  C   UNL     1      -1.255   2.056   4.469  0.00  0.00    +0.050 A 
ATOM     20  C   UNL     1      -1.340   2.083   5.855  0.00  0.00    +0.162 A 
ATOM     21  C   UNL     1      -1.481   0.896   6.573  0.00  0.00    +0.162 A 
ATOM     22  C   UNL     1      -1.544  -0.311   5.907  0.00  0.00    +0.057 A 
BRANCH  21  23
ATOM     23  O   UNL     1      -1.563   0.928   7.930  0.00  0.00    -0.491 OA
ATOM     24  C   UNL     1      -1.707  -0.325   8.601  0.00  0.00    +0.277 C 
ENDBRANCH  21  23
BRANCH  20  25
ATOM     25  O   UNL     1      -1.284   3.270   6.513  0.00  0.00    -0.491 OA
ATOM     26  C   UNL     1      -1.138   4.448   5.717  0.00  0.00    +0.277 C 
ENDBRANCH  20  25
ENDBRANCH  10  17
BRANCH  14  27
ATOM     27  C   UNL     1      -0.270  -2.587  -5.816  0.00  0.00    +0.124 C 
BRANCH  27  28
ATOM     28  C   UNL     1      -0.824  -1.734  -6.929  0.00  0.00    -0.015 A 
ATOM     29  C   UNL     1       0.024  -0.942  -7.680  0.00  0.00    +0.008 A 
ATOM     30  C   UNL     1      -0.483  -0.160  -8.700  0.00  0.00    +0.020 A 
ATOM     31  C   UNL     1      -1.840  -0.169  -8.970  0.00  0.00    +0.042 A 
ATOM     32  C   UNL     1      -2.689  -0.962  -8.219  0.00  0.00    +0.040 A 
ATOM     33  C   UNL     1      -2.180  -1.748  -7.201  0.00  0.00    +0.047 A 
ATOM     34 CL   UNL     1      -3.244  -2.748  -6.262  0.00  0.00    -0.083 Cl
ATOM     35 CL   UNL     1      -2.477   0.814 -10.252  0.00  0.00    -0.083 Cl
ENDBRANCH  27  28
ENDBRANCH  14  27
TORSDOF 5
