REMARK  Name = ZINC08738609
REMARK  5 active torsions:
REMARK  status: ('A' for Active; 'I' for Inactive)
REMARK    1  A    between atoms: C_1  and  N_50
REMARK    2  A    between atoms: C_3  and  C_25
REMARK    3  A    between atoms: C_5  and  C_18
REMARK    4  A    between atoms: C_18  and  C_20
REMARK    5  A    between atoms: C_29  and  N_31
REMARK                            x       y       z     vdW  Elec       q    Type
REMARK                         _______ _______ _______ _____ _____    ______ ____
ROOT
ATOM      1  C   UNL     1       2.301   3.637   2.249  0.00  0.00    -0.094 C 
ATOM      2  C   UNL     1       4.232   3.603   0.764  0.00  0.00    -0.068 C 
ATOM      3  C   UNL     1       4.525   4.161  -0.652  0.00  0.00    +0.013 C 
ATOM      4  C   UNL     1       3.110   4.363  -1.245  0.00  0.00    +0.071 C 
ATOM      5  C   UNL     1       2.184   4.462  -0.027  0.00  0.00    +0.051 C 
ATOM      6  C   UNL     1       1.129   3.389  -0.061  0.00  0.00    -0.025 A 
ATOM      7  C   UNL     1       1.182   2.013  -0.070  0.00  0.00    +0.043 A 
ATOM      8  C   UNL     1       0.010   1.275  -0.105  0.00  0.00    +0.124 A 
ATOM      9  C   UNL     1      -1.212   1.927  -0.138  0.00  0.00    +0.040 A 
ATOM     10  C   UNL     1      -1.267   3.305  -0.123  0.00  0.00    +0.026 A 
ATOM     11  C   UNL     1      -0.093   4.053  -0.088  0.00  0.00    +0.036 A 
ATOM     12  N   UNL     1       0.109   5.436  -0.073  0.00  0.00    -0.286 N 
ATOM     13  C   UNL     1       1.415   5.758  -0.037  0.00  0.00    +0.212 C 
ATOM     14  O   UNL     1       1.884   6.876  -0.017  0.00  0.00    -0.277 OA
ATOM     15  F   UNL     1       0.059  -0.075  -0.114  0.00  0.00    -0.205 F 
ATOM     16  H   UNL     1      -0.609   6.088  -0.087  0.00  0.00    +0.155 HD
ATOM     17  N   UNL     1       3.030   4.350   1.156  0.00  0.00    +0.391 N 
ATOM     18  H   UNL     1       3.295   5.286   1.484  0.00  0.00    -0.080 HD
ENDROOT
BRANCH   3  19
ATOM     19  C   UNL     1       5.307   3.163  -1.467  0.00  0.00    -0.043 A 
ATOM     20  C   UNL     1       4.838   1.870  -1.612  0.00  0.00    +0.004 A 
ATOM     21  C   UNL     1       5.556   0.955  -2.360  0.00  0.00    +0.002 A 
ATOM     22  C   UNL     1       6.741   1.333  -2.962  0.00  0.00    +0.033 A 
ATOM     23  C   UNL     1       7.209   2.625  -2.818  0.00  0.00    +0.126 A 
ATOM     24  C   UNL     1       6.490   3.542  -2.074  0.00  0.00    +0.036 A 
BRANCH  23  25
ATOM     25  N   UNL     1       8.479   3.029  -3.462  0.00  0.00    +0.056 N 
ATOM     26  O   UNL     1       9.112   2.222  -4.120  0.00  0.00    -0.126 OA
ATOM     27  O   UNL     1       8.892   4.168  -3.335  0.00  0.00    -0.126 OA
ENDBRANCH  23  25
ENDBRANCH   3  19
BRANCH   4  28
ATOM     28  C   UNL     1       3.053   5.635  -2.051  0.00  0.00    +0.201 C 
ATOM     29  O   UNL     1       3.850   6.526  -1.836  0.00  0.00    -0.289 OA
BRANCH  28  30
ATOM     30  C   UNL     1       2.074   5.790  -3.058  0.00  0.00    +0.170 A 
ATOM     31  C   UNL     1       1.907   6.896  -3.868  0.00  0.00    +0.053 A 
ATOM     32  C   UNL     1       0.825   6.613  -4.711  0.00  0.00    +0.042 A 
ATOM     33  C   UNL     1       0.382   5.375  -4.392  0.00  0.00    +0.196 A 
ATOM     34  O   UNL     1       1.136   4.882  -3.403  0.00  0.00    -0.460 OA
ENDBRANCH  28  30
ENDBRANCH   4  28
TORSDOF 4
