REMARK  Name = ZINC41150064
REMARK  5 active torsions:
REMARK  status: ('A' for Active; 'I' for Inactive)
REMARK    1  A    between atoms: C_7  and  N_24
REMARK    2  A    between atoms: N_14  and  C_17
REMARK    3  A    between atoms: N_24  and  C_25
REMARK    4  A    between atoms: C_25  and  C_26
REMARK    5  A    between atoms: C_26  and  O_27
REMARK                            x       y       z     vdW  Elec       q    Type
REMARK                         _______ _______ _______ _____ _____    ______ ____
ROOT
ATOM      1  C   UNL     1      -0.025   1.344   0.001  0.00  0.00    +0.001 A 
ATOM      2  C   UNL     1       1.159   2.075  -0.018  0.00  0.00    +0.002 A 
ATOM      3  C   UNL     1       2.371   1.449  -0.033  0.00  0.00    +0.026 A 
ATOM      4  C   UNL     1       2.426   0.049  -0.030  0.00  0.00    +0.052 A 
ATOM      5  C   UNL     1       1.220  -0.693  -0.011  0.00  0.00    +0.038 A 
ATOM      6  C   UNL     1      -0.006  -0.020   0.004  0.00  0.00    +0.013 A 
ATOM      7  C   UNL     1       1.301  -2.108  -0.008  0.00  0.00    +0.132 A 
ATOM      8  N   UNL     1       2.502  -2.668  -0.023  0.00  0.00    -0.201 NA
ATOM      9  C   UNL     1       3.610  -1.933  -0.041  0.00  0.00    +0.198 A 
ATOM     10  N   UNL     1       3.592  -0.614  -0.044  0.00  0.00    -0.327 N 
ATOM     11  N   UNL     1       4.833  -2.579  -0.056  0.00  0.00    -0.298 N 
ATOM     12  C   UNL     1       6.081  -1.815  -0.187  0.00  0.00    +0.127 C 
ATOM     13  C   UNL     1       6.998  -2.167   0.991  0.00  0.00    +0.124 C 
ATOM     14  N   UNL     1       7.072  -3.630   1.107  0.00  0.00    -0.327 N 
ATOM     15  C   UNL     1       5.824  -4.395   1.239  0.00  0.00    +0.124 C 
ATOM     16  C   UNL     1       4.908  -4.042   0.066  0.00  0.00    +0.127 C 
ATOM     17  H   UNL     1       4.427  -0.121  -0.058  0.00  0.00    +0.169 HD
ENDROOT
BRANCH  14  18
ATOM     18  C   UNL     1       8.308  -4.283   1.093  0.00  0.00    +0.030 A 
ATOM     19  C   UNL     1       9.485  -3.545   1.096  0.00  0.00    +0.024 A 
ATOM     20  C   UNL     1      10.704  -4.192   1.082  0.00  0.00    +0.022 A 
ATOM     21  C   UNL     1      10.755  -5.575   1.064  0.00  0.00    +0.041 A 
ATOM     22  C   UNL     1       9.584  -6.313   1.060  0.00  0.00    +0.022 A 
ATOM     23  C   UNL     1       8.362  -5.671   1.080  0.00  0.00    +0.024 A 
ATOM     24 CL   UNL     1      12.290  -6.386   1.045  0.00  0.00    -0.084 Cl
ENDBRANCH  14  18
BRANCH   7  25
ATOM     25  N   UNL     1       0.160  -2.881   0.010  0.00  0.00    -0.326 N 
ATOM     26  H   UNL     1      -0.712  -2.458   0.021  0.00  0.00    +0.148 HD
BRANCH  25  27
ATOM     27  C   UNL     1       0.266  -4.342   0.013  0.00  0.00    +0.130 C 
BRANCH  27  28
ATOM     28  C   UNL     1      -1.136  -4.954   0.035  0.00  0.00    +0.174 C 
BRANCH  28  29
ATOM     29  O   UNL     1      -1.818  -4.627  -1.178  0.00  0.00    -0.393 OA
ATOM     30  H   UNL     1      -2.715  -4.983  -1.233  0.00  0.00    +0.209 HD
ENDBRANCH  28  29
ENDBRANCH  27  28
ENDBRANCH  25  27
ENDBRANCH   7  25
TORSDOF 5
