REMARK  Name = ZINC11416347
REMARK  11 active torsions:
REMARK  status: ('A' for Active; 'I' for Inactive)
REMARK    1  A    between atoms: C_1  and  C_2
REMARK    2  A    between atoms: C_5  and  C_35
REMARK    3  A    between atoms: C_6  and  N_8
REMARK    4  A    between atoms: C_9  and  C_11
REMARK    5  A    between atoms: C_11  and  C_13
REMARK    6  A    between atoms: C_11  and  S_14
REMARK    7  A    between atoms: S_14  and  C_15
REMARK    8  A    between atoms: C_18  and  C_27
REMARK    9  A    between atoms: N_19  and  C_20
REMARK   10  A    between atoms: C_27  and  C_29
REMARK   11  A    between atoms: C_27  and  N_66
REMARK                            x       y       z     vdW  Elec       q    Type
REMARK                         _______ _______ _______ _____ _____    ______ ____
ROOT
ATOM      1  C   UNL     1       7.551   1.405   0.228  0.00  0.00    +0.197 A 
ATOM      2  N   UNL     1       7.492   0.161  -0.186  0.00  0.00    -0.122 NA
ATOM      3  N   UNL     1       8.661  -0.370  -0.146  0.00  0.00    -0.135 NA
ATOM      4  C   UNL     1       9.531   0.492   0.300  0.00  0.00    +0.125 A 
ATOM      5  N   UNL     1       8.855   1.656   0.555  0.00  0.00    -0.275 N 
ENDROOT
BRANCH   5   6
ATOM      6  C   UNL     1       9.390   2.856   1.050  0.00  0.00    +0.050 A 
ATOM      7  C   UNL     1      10.311   3.569   0.295  0.00  0.00    +0.029 A 
ATOM      8  C   UNL     1      10.832   4.752   0.781  0.00  0.00    +0.040 A 
ATOM      9  C   UNL     1      10.444   5.221   2.025  0.00  0.00    +0.124 A 
ATOM     10  C   UNL     1       9.529   4.509   2.781  0.00  0.00    +0.040 A 
ATOM     11  C   UNL     1       9.002   3.328   2.296  0.00  0.00    +0.029 A 
ATOM     12  F   UNL     1      10.959   6.376   2.501  0.00  0.00    -0.205 F 
ENDBRANCH   5   6
BRANCH   4  13
ATOM     13  C   UNL     1      11.005   0.254   0.498  0.00  0.00    -0.002 C 
ATOM     14  C   UNL     1      11.709   0.250  -0.861  0.00  0.00    -0.005 C 
BRANCH  13  20
ATOM     15  C   UNL     1      10.462  -1.113   2.421  0.00  0.00    -0.078 C 
ATOM     16  C   UNL     1      10.577  -2.523   3.005  0.00  0.00    -0.019 C 
ATOM     17  C   UNL     1      12.053  -2.854   3.242  0.00  0.00    -0.004 C 
ATOM     18  C   UNL     1      12.815  -2.727   1.920  0.00  0.00    -0.019 C 
ATOM     19  C   UNL     1      12.635  -1.311   1.367  0.00  0.00    -0.078 C 
ATOM     20  N   UNL     1      11.196  -1.064   1.138  0.00  0.00    +0.386 N 
ATOM     21  H   UNL     1      10.828  -1.794   0.516  0.00  0.00    -0.081 HD
ENDBRANCH  13  20
ENDBRANCH   4  13
BRANCH   1  22
ATOM     22  S   UNL     1       6.205   2.536   0.347  0.00  0.00    -0.073 S 
BRANCH  22  23
ATOM     23  C   UNL     1       4.858   1.485  -0.251  0.00  0.00    +0.137 C 
ATOM     24  C   UNL     1       5.101   1.131  -1.719  0.00  0.00    +0.029 C 
BRANCH  23  26
ATOM     25  N   UNL     1       2.397   1.533  -0.012  0.00  0.00    -0.284 N 
ATOM     26  C   UNL     1       3.550   2.222  -0.121  0.00  0.00    +0.230 C 
ATOM     27  O   UNL     1       3.535   3.434  -0.115  0.00  0.00    -0.274 OA
ATOM     28  H   UNL     1       2.413   0.565   0.049  0.00  0.00    +0.155 HD
BRANCH  25  34
ATOM     29  C   UNL     1      -0.223   5.477   1.315  0.00  0.00    +0.044 C 
ATOM     30  C   UNL     1      -0.123   4.128   0.650  0.00  0.00    -0.049 A 
ATOM     31  C   UNL     1      -1.241   3.562   0.064  0.00  0.00    +0.004 A 
ATOM     32  C   UNL     1      -1.153   2.327  -0.551  0.00  0.00    +0.005 A 
ATOM     33  C   UNL     1       0.050   1.649  -0.573  0.00  0.00    -0.029 A 
ATOM     34  C   UNL     1       1.175   2.215   0.013  0.00  0.00    +0.037 A 
ATOM     35  C   UNL     1       1.084   3.458   0.626  0.00  0.00    +0.027 A 
ATOM     36  C   UNL     1       0.144   0.301  -1.239  0.00  0.00    +0.045 C 
ENDBRANCH  25  34
ENDBRANCH  23  26
ENDBRANCH  22  23
ENDBRANCH   1  22
TORSDOF 7
