REMARK  Name = ZINC67511098
REMARK  11 active torsions:
REMARK  status: ('A' for Active; 'I' for Inactive)
REMARK    1  A    between atoms: C_1  and  C_2
REMARK    2  A    between atoms: C_2  and  C_3
REMARK    3  A    between atoms: C_3  and  C_4
REMARK    4  A    between atoms: N_9  and  C_10
REMARK    5  A    between atoms: C_10  and  C_11
REMARK    6  A    between atoms: N_13  and  C_14
REMARK    7  A    between atoms: C_17  and  C_20
REMARK    8  A    between atoms: C_23  and  C_26
REMARK    9  A    between atoms: C_26  and  C_27
REMARK   10  A    between atoms: C_26  and  C_28
REMARK   11  A    between atoms: C_26  and  C_29
REMARK                            x       y       z     vdW  Elec       q    Type
REMARK                         _______ _______ _______ _____ _____    ______ ____
ROOT
ATOM      1  C   UNL     1       0.288  -2.350  -5.770  0.00  0.00    +0.249 A 
ATOM      2  N   UNL     1      -0.586  -1.997  -6.692  0.00  0.00    -0.190 NA
ATOM      3  H   UNL     1       2.320  -2.807  -5.963  0.00  0.00    +0.192 HD
ATOM      4  C   UNL     1       0.012  -1.962  -7.890  0.00  0.00    +0.183 A 
ATOM      5  N   UNL     1       1.276  -2.292  -7.749  0.00  0.00    -0.151 NA
ATOM      6  N   UNL     1       1.486  -2.544  -6.384  0.00  0.00    -0.243 N 
ENDROOT
BRANCH   4   7
ATOM      7  C   UNL     1      -0.648  -1.608  -9.171  0.00  0.00    +0.021 A 
ATOM      8  C   UNL     1      -2.000  -1.269  -9.191  0.00  0.00    +0.012 A 
ATOM      9  C   UNL     1      -2.608  -0.941 -10.385  0.00  0.00    +0.005 A 
ATOM     10  C   UNL     1      -1.879  -0.947 -11.561  0.00  0.00    -0.042 A 
ATOM     11  C   UNL     1      -0.538  -1.283 -11.547  0.00  0.00    +0.005 A 
ATOM     12  C   UNL     1       0.083  -1.607 -10.357  0.00  0.00    +0.012 A 
BRANCH  10  13
ATOM     13  C   UNL     1      -2.550  -0.588 -12.862  0.00  0.00    -0.013 C 
ATOM     14  C   UNL     1      -3.101   0.837 -12.775  0.00  0.00    +0.015 C 
ATOM     15  C   UNL     1      -1.531  -0.672 -14.001  0.00  0.00    +0.015 C 
ATOM     16  C   UNL     1      -3.697  -1.564 -13.131  0.00  0.00    +0.015 C 
ENDBRANCH  10  13
ENDBRANCH   4   7
BRANCH   1  19
ATOM     17  C   UNL     1      -1.160  -2.267  -3.973  0.00  0.00    +0.269 C 
ATOM     18  O   UNL     1      -2.149  -1.899  -4.811  0.00  0.00    -0.269 OA
ATOM     19  N   UNL     1       0.036  -2.489  -4.437  0.00  0.00    -0.174 NA
BRANCH  17  20
ATOM     20  C   UNL     1      -1.438  -2.421  -2.500  0.00  0.00    +0.226 C 
BRANCH  20  26
ATOM     21  C   UNL     1       0.739  -2.004  -1.265  0.00  0.00    +0.135 A 
ATOM     22  N   UNL     1       1.660  -2.767  -0.748  0.00  0.00    -0.133 NA
ATOM     23  N   UNL     1       1.364  -4.004  -0.933  0.00  0.00    -0.122 NA
ATOM     24  C   UNL     1       0.228  -4.098  -1.584  0.00  0.00    +0.203 A 
ATOM     25  S   UNL     1      -0.583  -5.586  -2.066  0.00  0.00    -0.009 SA
ATOM     26  N   UNL     1      -0.209  -2.825  -1.811  0.00  0.00    -0.296 N 
BRANCH  21  27
ATOM     27  C   UNL     1       0.718  -0.497  -1.257  0.00  0.00    +0.076 C 
BRANCH  27  29
ATOM     28  C   UNL     1      -0.019   1.526   0.010  0.00  0.00    +0.004 C 
ATOM     29  C   UNL     1       0.002  -0.004   0.002  0.00  0.00    +0.004 C 
ENDBRANCH  27  29
ENDBRANCH  21  27
ENDBRANCH  20  26
ENDBRANCH  17  20
ENDBRANCH   1  19
TORSDOF 7
