REMARK  Name = ZINC48553535
REMARK  9 active torsions:
REMARK  status: ('A' for Active; 'I' for Inactive)
REMARK    1  A    between atoms: C_4  and  C_7
REMARK    2  A    between atoms: C_7  and  C_9
REMARK    3  A    between atoms: C_7  and  C_11
REMARK    4  A    between atoms: C_11  and  C_21
REMARK    5  A    between atoms: N_12  and  N_13
REMARK    6  A    between atoms: N_18  and  N_19
REMARK    7  A    between atoms: C_21  and  C_23
REMARK    8  A    between atoms: C_23  and  C_25
REMARK    9  A    between atoms: C_23  and  C_27
REMARK                            x       y       z     vdW  Elec       q    Type
REMARK                         _______ _______ _______ _____ _____    ______ ____
ROOT
ATOM      1  C   UNL     1       3.761  -1.513  -1.247  0.00  0.00    +0.124 C 
ATOM      2  N   UNL     1       3.670  -2.806  -1.065  0.00  0.00    -0.179 NA
ENDROOT
BRANCH   2   3
ATOM      3  N   UNL     1       3.533  -3.591  -2.079  0.00  0.00    -0.204 N 
ATOM      4  C   UNL     1       3.330  -4.949  -1.882  0.00  0.00    +0.254 A 
ATOM      5  N   UNL     1       3.252  -5.565  -0.728  0.00  0.00    -0.109 NA
ATOM      6  N   UNL     1       3.060  -6.822  -0.912  0.00  0.00    -0.118 NA
ATOM      7  C   UNL     1       3.004  -7.085  -2.196  0.00  0.00    +0.220 A 
ATOM      8  N   UNL     1       3.169  -5.899  -2.858  0.00  0.00    -0.210 N 
ATOM      9  S   UNL     1       2.756  -8.668  -2.930  0.00  0.00    -0.008 SA
ATOM     10  H   UNL     1       3.571  -3.232  -2.980  0.00  0.00    +0.178 HD
BRANCH   8  11
ATOM     11  N   UNL     1       3.173  -5.702  -4.210  0.00  0.00    -0.294 N 
ATOM     12  H   UNL     1       4.106  -5.791  -4.585  0.00  0.00    +0.163 HD
ATOM     13  H   UNL     1       2.537  -6.336  -4.670  0.00  0.00    +0.163 HD
ENDBRANCH   8  11
ENDBRANCH   2   3
BRANCH   1  14
ATOM     14  C   UNL     1       3.830  -0.989  -2.551  0.00  0.00    +0.201 C 
ATOM     15  O   UNL     1       2.819  -0.611  -3.108  0.00  0.00    -0.289 OA
BRANCH  14  16
ATOM     16  C   UNL     1       5.158  -0.896  -3.256  0.00  0.00    +0.193 C 
BRANCH  16  17
ATOM     17  C   UNL     1       4.942  -0.973  -4.746  0.00  0.00    -0.023 A 
ATOM     18  C   UNL     1       4.165  -0.023  -5.381  0.00  0.00    +0.005 A 
ATOM     19  C   UNL     1       3.967  -0.094  -6.748  0.00  0.00    +0.000 A 
ATOM     20  C   UNL     1       4.547  -1.114  -7.479  0.00  0.00    +0.000 A 
ATOM     21  C   UNL     1       5.325  -2.063  -6.843  0.00  0.00    +0.000 A 
ATOM     22  C   UNL     1       5.527  -1.990  -5.477  0.00  0.00    +0.005 A 
ENDBRANCH  16  17
BRANCH  16  23
ATOM     23  C   UNL     1       5.805   0.383  -2.920  0.00  0.00    +0.079 C 
ATOM     24  N   UNL     1       6.303   1.370  -2.660  0.00  0.00    -0.195 NA
ENDBRANCH  16  23
ENDBRANCH  14  16
ENDBRANCH   1  14
BRANCH   1  25
ATOM     25  C   UNL     1       3.792  -0.586  -0.059  0.00  0.00    +0.175 C 
BRANCH  25  29
ATOM     26  C   UNL     1       0.297   1.870  -0.081  0.00  0.00    +0.000 A 
ATOM     27  C   UNL     1       1.550   2.451  -0.142  0.00  0.00    +0.000 A 
ATOM     28  C   UNL     1       2.681   1.656  -0.135  0.00  0.00    +0.005 A 
ATOM     29  C   UNL     1       2.559   0.281  -0.066  0.00  0.00    -0.025 A 
ATOM     30  C   UNL     1       1.306  -0.300  -0.005  0.00  0.00    +0.005 A 
ATOM     31  C   UNL     1       0.175   0.495  -0.013  0.00  0.00    +0.000 A 
ENDBRANCH  25  29
BRANCH  25  32
ATOM     32  C   UNL     1       3.828  -1.378   1.181  0.00  0.00    +0.077 C 
ATOM     33  N   UNL     1       3.856  -1.989   2.138  0.00  0.00    -0.196 NA
ENDBRANCH  25  32
ENDBRANCH   1  25
TORSDOF 9
