REMARK  Name = ZINC08743042
REMARK  5 active torsions:
REMARK  status: ('A' for Active; 'I' for Inactive)
REMARK    1  A    between atoms: C_1  and  N_53
REMARK    2  A    between atoms: C_3  and  C_26
REMARK    3  A    between atoms: C_5  and  C_17
REMARK    4  A    between atoms: C_17  and  C_19
REMARK    5  A    between atoms: C_29  and  N_32
REMARK                            x       y       z     vdW  Elec       q    Type
REMARK                         _______ _______ _______ _____ _____    ______ ____
ROOT
ATOM      1  C   UNL     1       4.772   0.904  -0.188  0.00  0.00    -0.094 C 
ATOM      2  C   UNL     1       3.286   2.058   1.359  0.00  0.00    -0.068 C 
ATOM      3  C   UNL     1       1.751   2.257   1.449  0.00  0.00    +0.012 C 
ATOM      4  C   UNL     1       1.280   1.980   0.001  0.00  0.00    +0.068 C 
ATOM      5  C   UNL     1       2.399   1.137  -0.622  0.00  0.00    +0.050 C 
ATOM      6  C   UNL     1       2.976   1.815  -1.835  0.00  0.00    -0.027 A 
ATOM      7  C   UNL     1       3.600   3.026  -2.034  0.00  0.00    +0.004 A 
ATOM      8  C   UNL     1       4.034   3.382  -3.298  0.00  0.00    +0.000 A 
ATOM      9  C   UNL     1       3.839   2.519  -4.361  0.00  0.00    +0.002 A 
ATOM     10  C   UNL     1       3.214   1.304  -4.167  0.00  0.00    +0.023 A 
ATOM     11  C   UNL     1       2.774   0.939  -2.897  0.00  0.00    +0.036 A 
ATOM     12  N   UNL     1       2.123  -0.214  -2.454  0.00  0.00    -0.286 N 
ATOM     13  C   UNL     1       1.866  -0.177  -1.133  0.00  0.00    +0.212 C 
ATOM     14  O   UNL     1       1.312  -1.035  -0.479  0.00  0.00    -0.277 OA
ATOM     15  H   UNL     1       1.884  -0.956  -3.030  0.00  0.00    +0.155 HD
ATOM     16  N   UNL     1       3.405   0.939   0.415  0.00  0.00    +0.391 N 
ATOM     17  H   UNL     1       3.230   0.053   0.904  0.00  0.00    -0.080 HD
ENDROOT
BRANCH   3  18
ATOM     18  C   UNL     1       1.420   3.669   1.856  0.00  0.00    -0.045 A 
ATOM     19  C   UNL     1       1.946   4.734   1.149  0.00  0.00    +0.006 A 
ATOM     20  C   UNL     1       1.638   6.030   1.520  0.00  0.00    +0.033 A 
ATOM     21  C   UNL     1       0.811   6.261   2.604  0.00  0.00    +0.126 A 
ATOM     22  C   UNL     1       0.290   5.196   3.314  0.00  0.00    +0.033 A 
ATOM     23  C   UNL     1       0.594   3.900   2.940  0.00  0.00    +0.006 A 
BRANCH  21  24
ATOM     24  N   UNL     1       0.485   7.648   3.003  0.00  0.00    +0.056 N 
ATOM     25  O   UNL     1      -0.244   7.851   3.958  0.00  0.00    -0.126 OA
ATOM     26  O   UNL     1       0.945   8.586   2.378  0.00  0.00    -0.126 OA
ENDBRANCH  21  24
ENDBRANCH   3  18
BRANCH   4  27
ATOM     27  C   UNL     1      -0.014   1.208   0.009  0.00  0.00    +0.166 C 
ATOM     28  O   UNL     1      -0.314   0.537   0.973  0.00  0.00    -0.292 OA
BRANCH  27  29
ATOM     29  C   UNL     1      -0.911   1.265  -1.155  0.00  0.00    +0.018 A 
ATOM     30  C   UNL     1      -0.570   2.043  -2.268  0.00  0.00    +0.014 A 
ATOM     31  C   UNL     1      -1.412   2.086  -3.357  0.00  0.00    +0.039 A 
ATOM     32  C   UNL     1      -2.600   1.370  -3.349  0.00  0.00    +0.123 A 
ATOM     33  C   UNL     1      -2.947   0.602  -2.247  0.00  0.00    +0.039 A 
ATOM     34  C   UNL     1      -2.111   0.545  -1.153  0.00  0.00    +0.014 A 
ATOM     35  F   UNL     1      -3.424   1.422  -4.418  0.00  0.00    -0.205 F 
ENDBRANCH  27  29
ENDBRANCH   4  27
TORSDOF 4
