REMARK  Name = ZINC11782412
REMARK  8 active torsions:
REMARK  status: ('A' for Active; 'I' for Inactive)
REMARK    1  A    between atoms: C_1  and  C_2
REMARK    2  A    between atoms: C_2  and  C_4
REMARK    3  A    between atoms: C_2  and  N_60
REMARK    4  A    between atoms: C_4  and  C_5
REMARK    5  A    between atoms: C_10  and  N_60
REMARK    6  A    between atoms: N_13  and  C_16
REMARK    7  A    between atoms: C_19  and  N_22
REMARK    8  A    between atoms: C_23  and  C_25
REMARK                            x       y       z     vdW  Elec       q    Type
REMARK                         _______ _______ _______ _____ _____    ______ ____
ROOT
ATOM      1  C   UNL     1      -1.773   1.435  -7.424  0.00  0.00    +0.030 A 
ATOM      2  C   UNL     1      -2.009   0.386  -8.303  0.00  0.00    +0.025 A 
ATOM      3  C   UNL     1      -1.990   0.609  -9.665  0.00  0.00    +0.025 A 
ATOM      4  C   UNL     1      -1.722   1.880 -10.157  0.00  0.00    +0.034 A 
ATOM      5  C   UNL     1      -1.479   2.928  -9.278  0.00  0.00    +0.025 A 
ATOM      6  C   UNL     1      -1.505   2.706  -7.916  0.00  0.00    +0.025 A 
ENDROOT
BRANCH   1  10
ATOM      7  C   UNL     1      -0.971   0.052  -3.531  0.00  0.00    -0.069 C 
ATOM      8  C   UNL     1      -0.655   1.505  -3.898  0.00  0.00    +0.003 C 
ATOM      9  C   UNL     1      -0.537   1.629  -5.418  0.00  0.00    +0.103 C 
ATOM     10  N   UNL     1      -1.799   1.211  -6.043  0.00  0.00    -0.330 N 
ATOM     11  C   UNL     1      -2.099  -0.195  -5.745  0.00  0.00    +0.103 C 
ATOM     12  C   UNL     1      -2.263  -0.373  -4.234  0.00  0.00    +0.003 C 
BRANCH   7  13
ATOM     13  N   UNL     1      -1.152  -0.061  -2.072  0.00  0.00    +0.383 N 
ATOM     14  H   UNL     1      -1.592   0.797  -1.718  0.00  0.00    -0.085 HD
ATOM     15  H   UNL     1      -1.755  -0.865  -1.867  0.00  0.00    -0.085 HD
BRANCH  13  17
ATOM     16  C   UNL     1       0.520  -1.733  -1.413  0.00  0.00    -0.013 C 
ATOM     17  C   UNL     1       0.152  -0.248  -1.407  0.00  0.00    -0.070 C 
BRANCH  17  18
ATOM     18  C   UNL     1       0.055   0.247   0.037  0.00  0.00    +0.028 C 
BRANCH  18  19
ATOM     19  C   UNL     1      -0.186   1.735   0.043  0.00  0.00    +0.008 A 
ATOM     20  C   UNL     1      -1.355   2.424   0.029  0.00  0.00    +0.122 A 
ATOM     21  N   UNL     1      -1.306   3.740   0.042  0.00  0.00    -0.255 NA
ATOM     22  C   UNL     1      -0.161   4.383   0.058  0.00  0.00    +0.156 A 
ATOM     23  S   UNL     1       0.989   3.081   0.063  0.00  0.00    -0.080 S 
ENDBRANCH  18  19
ENDBRANCH  17  18
ENDBRANCH  13  17
ENDBRANCH   7  13
ENDBRANCH   1  10
BRANCH   4  24
ATOM     24  N   UNL     1      -1.697   2.105 -11.539  0.00  0.00    -0.281 N 
ATOM     25  C   UNL     1      -2.518   1.410 -12.351  0.00  0.00    +0.248 C 
ATOM     26  O   UNL     1      -3.348   0.658 -11.876  0.00  0.00    -0.270 OA
ATOM     27  H   UNL     1      -1.088   2.762 -11.913  0.00  0.00    +0.155 HD
BRANCH  25  28
ATOM     28  C   UNL     1      -2.412   1.561 -13.815  0.00  0.00    +0.041 A 
ATOM     29  C   UNL     1      -1.463   2.429 -14.362  0.00  0.00    +0.017 A 
ATOM     30  C   UNL     1      -1.361   2.565 -15.729  0.00  0.00    +0.050 A 
ATOM     31  C   UNL     1      -2.207   1.851 -16.567  0.00  0.00    +0.166 A 
ATOM     32  C   UNL     1      -3.160   0.986 -16.027  0.00  0.00    +0.167 A 
ATOM     33  C   UNL     1      -3.262   0.841 -14.657  0.00  0.00    +0.062 A 
ATOM     34  O   UNL     1      -3.855   0.410 -17.051  0.00  0.00    -0.453 OA
ATOM     35  C   UNL     1      -3.597   1.236 -18.202  0.00  0.00    +0.466 C 
ATOM     36  O   UNL     1      -2.307   1.814 -17.927  0.00  0.00    -0.453 OA
ENDBRANCH  25  28
ENDBRANCH   4  24
TORSDOF 7
