REMARK  Name = ZINC02963521
REMARK  3 active torsions:
REMARK  status: ('A' for Active; 'I' for Inactive)
REMARK    1  A    between atoms: C_1  and  C_2
REMARK    2  A    between atoms: C_6  and  N_8
REMARK    3  A    between atoms: C_15  and  C_24
REMARK                            x       y       z     vdW  Elec       q    Type
REMARK                         _______ _______ _______ _____ _____    ______ ____
ROOT
ATOM      1  N   UNL     1       3.812   2.317   1.614  0.00  0.00    -0.244 N 
ATOM      2  C   UNL     1       2.939   3.252   2.021  0.00  0.00    +0.141 C 
ATOM      3  S   UNL     1       2.700   3.481   3.700  0.00  0.00    -0.018 S 
ATOM      4  N   UNL     1       2.246   4.014   1.159  0.00  0.00    -0.319 N 
ATOM      5  C   UNL     1       2.379   3.784  -0.290  0.00  0.00    +0.111 C 
ATOM      6  C   UNL     1       3.845   3.417  -0.569  0.00  0.00    +0.096 C 
ATOM      7  C   UNL     1       4.134   2.121   0.203  0.00  0.00    +0.183 C 
ATOM      8  O   UNL     1       3.350   1.071  -0.356  0.00  0.00    -0.468 OA
ATOM      9  C   UNL     1       2.043   1.311  -0.638  0.00  0.00    +0.128 A 
ATOM     10  C   UNL     1       1.517   2.591  -0.638  0.00  0.00    +0.016 A 
ATOM     11  C   UNL     1       0.186   2.795  -0.950  0.00  0.00    +0.024 A 
ATOM     12  C   UNL     1      -0.628   1.720  -1.258  0.00  0.00    +0.018 A 
ATOM     13  C   UNL     1      -0.107   0.438  -1.258  0.00  0.00    +0.019 A 
ATOM     14  C   UNL     1       1.221   0.232  -0.945  0.00  0.00    +0.047 A 
ATOM     15 BR   UNL     1      -2.449   2.002  -1.685  0.00  0.00    -0.050 Br
ATOM     16  C   UNL     1       5.617   1.768   0.065  0.00  0.00    +0.079 C 
ATOM     17  H   UNL     1       1.661   4.713   1.489  0.00  0.00    +0.148 HD
ENDROOT
BRANCH   1  23
ATOM     18  C   UNL     1       3.950  -1.899   4.138  0.00  0.00    +0.044 C 
ATOM     19  C   UNL     1       4.520  -0.542   3.813  0.00  0.00    -0.049 A 
ATOM     20  C   UNL     1       5.658  -0.099   4.461  0.00  0.00    +0.003 A 
ATOM     21  C   UNL     1       6.185   1.145   4.166  0.00  0.00    +0.002 A 
ATOM     22  C   UNL     1       5.575   1.949   3.222  0.00  0.00    +0.023 A 
ATOM     23  C   UNL     1       4.432   1.506   2.570  0.00  0.00    +0.039 A 
ATOM     24  C   UNL     1       3.902   0.258   2.873  0.00  0.00    +0.027 A 
ENDBRANCH   1  23
TORSDOF 1
