REMARK  Name = ZINC59038324
REMARK  19 active torsions:
REMARK  status: ('A' for Active; 'I' for Inactive)
REMARK    1  A    between atoms: C_1  and  C_2
REMARK    2  A    between atoms: C_2  and  C_3
REMARK    3  A    between atoms: C_2  and  O_4
REMARK    4  A    between atoms: O_4  and  C_5
REMARK    5  A    between atoms: C_5  and  C_6
REMARK    6  A    between atoms: C_6  and  C_7
REMARK    7  A    between atoms: C_7  and  N_8
REMARK    8  A    between atoms: N_8  and  C_9
REMARK    9  A    between atoms: C_9  and  N_11
REMARK   10  A    between atoms: N_11  and  C_12
REMARK   11  A    between atoms: N_11  and  C_25
REMARK   12  A    between atoms: C_12  and  C_13
REMARK   13  A    between atoms: C_15  and  O_23
REMARK   14  A    between atoms: C_16  and  O_21
REMARK   15  A    between atoms: C_18  and  O_19
REMARK   16  A    between atoms: O_19  and  C_20
REMARK   17  A    between atoms: O_21  and  C_22
REMARK   18  A    between atoms: O_23  and  C_24
REMARK   19  A    between atoms: C_25  and  C_26
REMARK                            x       y       z     vdW  Elec       q    Type
REMARK                         _______ _______ _______ _____ _____    ______ ____
ROOT
ATOM      1  N   UNL     1      -6.222  -5.489  -1.703  0.00  0.00    -0.306 N 
ENDROOT
BRANCH   1   2
ATOM      2  C   UNL     1      -4.930  -5.110  -1.767  0.00  0.00    +0.133 C 
ATOM      3  S   UNL     1      -3.784  -6.107  -2.556  0.00  0.00    -0.019 S 
BRANCH   2   4
ATOM      4  N   UNL     1      -4.541  -3.946  -1.209  0.00  0.00    -0.326 N 
ATOM      5  H   UNL     1      -5.191  -3.381  -0.762  0.00  0.00    +0.148 HD
BRANCH   4   6
ATOM      6  C   UNL     1      -3.137  -3.534  -1.278  0.00  0.00    +0.105 C 
BRANCH   6   7
ATOM      7  C   UNL     1      -2.965  -2.187  -0.574  0.00  0.00    +0.047 C 
BRANCH   7   8
ATOM      8  C   UNL     1      -1.499  -1.757  -0.646  0.00  0.00    +0.161 C 
BRANCH   8   9
ATOM      9  O   UNL     1      -1.339  -0.499   0.012  0.00  0.00    -0.377 OA
BRANCH   9  11
ATOM     10  C   UNL     1      -0.019   1.526   0.010  0.00  0.00    +0.037 C 
ATOM     11  C   UNL     1       0.002  -0.004   0.002  0.00  0.00    +0.112 C 
ATOM     12  C   UNL     1       0.742  -0.511   1.242  0.00  0.00    +0.037 C 
ENDBRANCH   9  11
ENDBRANCH   8   9
ENDBRANCH   7   8
ENDBRANCH   6   7
ENDBRANCH   4   6
ENDBRANCH   2   4
ENDBRANCH   1   2
BRANCH   1  13
ATOM     13  C   UNL     1      -6.645  -6.753  -2.310  0.00  0.00    +0.145 C 
BRANCH  13  14
ATOM     14  C   UNL     1      -6.533  -7.860  -1.293  0.00  0.00    +0.015 A 
ATOM     15  C   UNL     1      -5.439  -8.705  -1.311  0.00  0.00    +0.058 A 
ATOM     16  C   UNL     1      -5.333  -9.723  -0.377  0.00  0.00    +0.162 A 
ATOM     17  C   UNL     1      -6.329  -9.895   0.579  0.00  0.00    +0.165 A 
ATOM     18  C   UNL     1      -7.424  -9.047   0.596  0.00  0.00    +0.095 A 
ATOM     19  C   UNL     1      -7.524  -8.026  -0.338  0.00  0.00    +0.128 A 
BRANCH  19  20
ATOM     20  O   UNL     1      -8.596  -7.190  -0.319  0.00  0.00    -0.495 OA
ATOM     21  C   UNL     1      -9.579  -7.419   0.693  0.00  0.00    +0.277 C 
ENDBRANCH  19  20
BRANCH  17  22
ATOM     22  O   UNL     1      -6.227 -10.893   1.497  0.00  0.00    -0.491 OA
ATOM     23  C   UNL     1      -7.286 -11.011   2.449  0.00  0.00    +0.277 C 
ENDBRANCH  17  22
BRANCH  16  24
ATOM     24  O   UNL     1      -4.256 -10.554  -0.396  0.00  0.00    -0.491 OA
ATOM     25  C   UNL     1      -3.272 -10.320  -1.405  0.00  0.00    +0.277 C 
ENDBRANCH  16  24
ENDBRANCH  13  14
ENDBRANCH   1  13
BRANCH   1  26
ATOM     26  C   UNL     1      -7.203  -4.636  -1.028  0.00  0.00    +0.138 C 
BRANCH  26  27
ATOM     27  C   UNL     1      -7.806  -3.655  -2.036  0.00  0.00    +0.136 C 
ATOM     28  C   UNL     1      -8.752  -2.673  -1.311  0.00  0.00    +0.035 C 
ATOM     29  C   UNL     1      -9.920  -2.531  -2.324  0.00  0.00    +0.031 C 
ATOM     30  C   UNL     1      -9.958  -3.956  -2.931  0.00  0.00    +0.160 C 
ATOM     31  O   UNL     1      -8.583  -4.370  -3.005  0.00  0.00    -0.375 OA
ENDBRANCH  26  27
ENDBRANCH   1  26
TORSDOF 14
