REMARK  Name = ZINC12888734
REMARK  11 active torsions:
REMARK  status: ('A' for Active; 'I' for Inactive)
REMARK    1  A    between atoms: C_3  and  O_33
REMARK    2  A    between atoms: C_6  and  C_7
REMARK    3  A    between atoms: C_8  and  C_9
REMARK    4  A    between atoms: C_11  and  O_32
REMARK    5  A    between atoms: C_13  and  O_15
REMARK    6  A    between atoms: O_15  and  C_16
REMARK    7  A    between atoms: C_18  and  O_31
REMARK    8  A    between atoms: C_20  and  O_30
REMARK    9  A    between atoms: C_22  and  O_29
REMARK   10  A    between atoms: C_24  and  C_27
REMARK   11  A    between atoms: C_27  and  O_28
REMARK                            x       y       z     vdW  Elec       q    Type
REMARK                         _______ _______ _______ _____ _____    ______ ____
ROOT
ATOM      1  C   UNL     1      -4.006   4.979  -0.651  0.00  0.00    -0.018 A 
ATOM      2  C   UNL     1      -4.466   4.195   0.409  0.00  0.00    +0.053 A 
ATOM      3  C   UNL     1      -3.593   3.807   1.411  0.00  0.00    +0.121 A 
ATOM      4  C   UNL     1      -2.260   4.191   1.359  0.00  0.00    +0.091 A 
ATOM      5  C   UNL     1      -1.799   4.974   0.311  0.00  0.00    +0.128 A 
ATOM      6  C   UNL     1      -2.665   5.367  -0.696  0.00  0.00    +0.054 A 
ENDROOT
BRANCH   1   8
ATOM      7  C   UNL     1      -6.220   5.019  -1.675  0.00  0.00    +0.008 C 
ATOM      8  C   UNL     1      -4.932   5.394  -1.720  0.00  0.00    +0.009 C 
BRANCH   7  14
ATOM      9  C   UNL     1      -6.686   6.223  -3.803  0.00  0.00    +0.011 A 
ATOM     10  C   UNL     1      -7.554   6.604  -4.802  0.00  0.00    +0.046 A 
ATOM     11  C   UNL     1      -8.887   6.215  -4.754  0.00  0.00    +0.117 A 
ATOM     12  C   UNL     1      -9.350   5.436  -3.701  0.00  0.00    +0.046 A 
ATOM     13  C   UNL     1      -8.488   5.045  -2.700  0.00  0.00    +0.011 A 
ATOM     14  C   UNL     1      -7.146   5.434  -2.744  0.00  0.00    -0.025 A 
BRANCH  11  15
ATOM     15  O   UNL     1      -9.740   6.597  -5.739  0.00  0.00    -0.507 OA
ATOM     16  H   UNL     1     -10.184   7.439  -5.570  0.00  0.00    +0.292 HD
ENDBRANCH  11  15
ENDBRANCH   7  14
ENDBRANCH   1   8
BRANCH   3  17
ATOM     17  O   UNL     1      -4.040   3.045   2.444  0.00  0.00    -0.507 OA
ATOM     18  H   UNL     1      -3.972   2.093   2.288  0.00  0.00    +0.292 HD
ENDBRANCH   3  17
BRANCH   5  19
ATOM     19  O   UNL     1      -0.494   5.352   0.269  0.00  0.00    -0.461 OA
BRANCH  19  20
ATOM     20  C   UNL     1       0.343   4.911   1.340  0.00  0.00    +0.339 C 
ATOM     21  C   UNL     1       1.694   5.627   1.259  0.00  0.00    +0.214 C 
ATOM     22  C   UNL     1       2.384   5.251  -0.056  0.00  0.00    +0.180 C 
ATOM     23  C   UNL     1       2.528   3.727  -0.127  0.00  0.00    +0.177 C 
ATOM     24  C   UNL     1       1.145   3.085   0.008  0.00  0.00    +0.179 C 
ATOM     25  O   UNL     1       0.546   3.501   1.237  0.00  0.00    -0.331 OA
BRANCH  23  26
ATOM     26  O   UNL     1       3.105   3.360  -1.382  0.00  0.00    -0.386 OA
ATOM     27  H   UNL     1       3.984   3.732  -1.535  0.00  0.00    +0.210 HD
ENDBRANCH  23  26
BRANCH  22  28
ATOM     28  O   UNL     1       3.677   5.857  -0.108  0.00  0.00    -0.386 OA
ATOM     29  H   UNL     1       3.660   6.823  -0.062  0.00  0.00    +0.210 HD
ENDBRANCH  22  28
BRANCH  21  30
ATOM     30  O   UNL     1       2.514   5.227   2.359  0.00  0.00    -0.383 OA
ATOM     31  H   UNL     1       2.135   5.430   3.225  0.00  0.00    +0.210 HD
ENDBRANCH  21  30
BRANCH  24  32
ATOM     32  C   UNL     1       1.286   1.562  -0.002  0.00  0.00    +0.190 C 
BRANCH  32  33
ATOM     33  O   UNL     1      -0.011   0.963   0.007  0.00  0.00    -0.392 OA
ATOM     34  H   UNL     1       0.002  -0.004   0.002  0.00  0.00    +0.210 HD
ENDBRANCH  32  33
ENDBRANCH  24  32
ENDBRANCH  19  20
ENDBRANCH   5  19
TORSDOF 11
