REMARK  Name = ZINC09111591
REMARK  2 active torsions:
REMARK  status: ('A' for Active; 'I' for Inactive)
REMARK    1  A    between atoms: C_12  and  C_30
REMARK    2  A    between atoms: N_20  and  C_23
REMARK                            x       y       z     vdW  Elec       q    Type
REMARK                         _______ _______ _______ _____ _____    ______ ____
ROOT
ATOM      1  C   UNL     1      -0.017   1.375   0.010  0.00  0.00    +0.001 A 
ATOM      2  C   UNL     1       1.170   2.088   0.002  0.00  0.00    +0.002 A 
ATOM      3  C   UNL     1       2.381   1.425  -0.016  0.00  0.00    +0.024 A 
ATOM      4  C   UNL     1       2.420   0.038  -0.038  0.00  0.00    +0.038 A 
ATOM      5  C   UNL     1       1.219  -0.687  -0.019  0.00  0.00    -0.004 A 
ATOM      6  C   UNL     1       0.002  -0.004   0.002  0.00  0.00    +0.010 A 
ATOM      7  C   UNL     1       1.232  -2.161  -0.017  0.00  0.00    +0.007 C 
ATOM      8  C   UNL     1       2.355  -2.839  -0.193  0.00  0.00    -0.003 C 
ATOM      9  C   UNL     1       3.654  -2.091  -0.408  0.00  0.00    +0.110 C 
ATOM     10  N   UNL     1       3.632  -0.629  -0.048  0.00  0.00    -0.310 N 
ATOM     11  C   UNL     1       5.021  -0.233   0.277  0.00  0.00    +0.172 C 
ATOM     12  C   UNL     1       5.830  -1.511   0.357  0.00  0.00    +0.119 C 
ATOM     13  C   UNL     1       4.677  -2.569   0.539  0.00  0.00    +0.114 C 
ATOM     14  C   UNL     1       5.420  -3.739   0.923  0.00  0.00    +0.232 C 
ATOM     15  O   UNL     1       5.167  -4.894   0.655  0.00  0.00    -0.274 OA
ATOM     16  N   UNL     1       6.480  -3.263   1.658  0.00  0.00    -0.210 N 
ATOM     17  C   UNL     1       6.623  -1.890   1.568  0.00  0.00    +0.232 C 
ATOM     18  O   UNL     1       7.242  -1.152   2.304  0.00  0.00    -0.274 OA
ENDROOT
BRANCH  16  19
ATOM     19  C   UNL     1       7.337  -4.081   2.410  0.00  0.00    +0.044 A 
ATOM     20  C   UNL     1       7.141  -5.455   2.435  0.00  0.00    +0.025 A 
ATOM     21  C   UNL     1       7.985  -6.258   3.176  0.00  0.00    +0.022 A 
ATOM     22  C   UNL     1       9.026  -5.694   3.893  0.00  0.00    +0.041 A 
ATOM     23  C   UNL     1       9.223  -4.325   3.869  0.00  0.00    +0.022 A 
ATOM     24  C   UNL     1       8.385  -3.518   3.125  0.00  0.00    +0.025 A 
ATOM     25 CL   UNL     1      10.086  -6.706   4.823  0.00  0.00    -0.084 Cl
ENDBRANCH  16  19
BRANCH  11  26
ATOM     26  C   UNL     1       5.569   0.659  -0.807  0.00  0.00    +0.232 C 
ATOM     27  O   UNL     1       5.042   0.680  -1.899  0.00  0.00    -0.274 OA
ATOM     28  N   UNL     1       6.646   1.432  -0.563  0.00  0.00    -0.328 N 
ATOM     29  H   UNL     1       7.068   1.415   0.310  0.00  0.00    +0.145 HD
ATOM     30  H   UNL     1       6.999   2.006  -1.261  0.00  0.00    +0.145 HD
ENDBRANCH  11  26
TORSDOF 2
