REMARK  Name = ZINC12241361
REMARK  10 active torsions:
REMARK  status: ('A' for Active; 'I' for Inactive)
REMARK    1  A    between atoms: C_1  and  C_2
REMARK    2  A    between atoms: C_3  and  C_9
REMARK    3  A    between atoms: C_4  and  C_8
REMARK    4  A    between atoms: C_9  and  C_10
REMARK    5  A    between atoms: C_12  and  C_18
REMARK    6  A    between atoms: C_15  and  O_16
REMARK    7  A    between atoms: O_16  and  C_17
REMARK    8  A    between atoms: C_18  and  N_58
REMARK    9  A    between atoms: C_21  and  C_23
REMARK   10  A    between atoms: C_21  and  O_29
REMARK                            x       y       z     vdW  Elec       q    Type
REMARK                         _______ _______ _______ _____ _____    ______ ____
ROOT
ATOM      1  C   UNL     1      -0.907   1.582   3.597  0.00  0.00    -0.001 A 
ATOM      2  C   UNL     1      -0.314   1.206   4.786  0.00  0.00    +0.009 A 
ATOM      3  C   UNL     1       0.802   0.390   4.776  0.00  0.00    -0.063 A 
ATOM      4  C   UNL     1       1.327  -0.052   3.576  0.00  0.00    +0.005 A 
ATOM      5  C   UNL     1       0.735   0.317   2.384  0.00  0.00    +0.046 A 
ATOM      6  C   UNL     1      -0.382   1.141   2.391  0.00  0.00    +0.124 A 
ENDROOT
BRANCH   6   7
ATOM      7  O   UNL     1      -0.964   1.509   1.220  0.00  0.00    -0.495 OA
ATOM      8  C   UNL     1      -0.369   1.017   0.017  0.00  0.00    +0.277 C 
ENDBRANCH   6   7
BRANCH   1   9
ATOM      9  C   UNL     1      -2.124   2.471   3.609  0.00  0.00    +0.077 C 
BRANCH   9  12
ATOM     10  C   UNL     1      -3.699   1.322   6.055  0.00  0.00    +0.065 C 
ATOM     11  C   UNL     1      -4.048   1.125   4.602  0.00  0.00    +0.037 A 
ATOM     12  C   UNL     1      -3.367   1.621   3.544  0.00  0.00    +0.000 A 
ATOM     13  C   UNL     1      -4.024   1.212   2.379  0.00  0.00    +0.063 A 
ATOM     14  N   UNL     1      -5.057   0.488   2.725  0.00  0.00    -0.179 NA
ATOM     15  N   UNL     1      -5.096   0.421   4.124  0.00  0.00    -0.281 N 
ATOM     16  H   UNL     1      -5.779  -0.062   4.672  0.00  0.00    +0.189 HD
ATOM     17  C   UNL     1      -3.612   1.545   0.968  0.00  0.00    +0.068 C 
ENDBRANCH   9  12
ENDBRANCH   1   9
BRANCH   3  18
ATOM     18  C   UNL     1       1.447  -0.019   6.075  0.00  0.00    -0.043 C 
BRANCH  18  23
ATOM     19  C   UNL     1      -0.557  -1.050   6.981  0.00  0.00    -0.075 C 
ATOM     20  C   UNL     1      -0.768  -2.034   8.159  0.00  0.00    +0.019 C 
ATOM     21  C   UNL     1       0.614  -1.979   8.864  0.00  0.00    +0.075 C 
ATOM     22  C   UNL     1       1.599  -1.827   7.686  0.00  0.00    -0.038 C 
ATOM     23  N   UNL     1       0.832  -1.286   6.548  0.00  0.00    +0.385 N 
ATOM     24  H   UNL     1       0.837  -1.968   5.781  0.00  0.00    -0.081 HD
BRANCH  21  25
ATOM     25  C   UNL     1       0.878  -3.257   9.617  0.00  0.00    -0.018 A 
ATOM     26  C   UNL     1       0.748  -4.476   8.978  0.00  0.00    +0.006 A 
ATOM     27  C   UNL     1       0.995  -5.648   9.668  0.00  0.00    +0.000 A 
ATOM     28  C   UNL     1       1.363  -5.602  11.000  0.00  0.00    +0.000 A 
ATOM     29  C   UNL     1       1.488  -4.383  11.640  0.00  0.00    +0.000 A 
ATOM     30  C   UNL     1       1.246  -3.211  10.949  0.00  0.00    +0.006 A 
ENDBRANCH  21  25
BRANCH  21  31
ATOM     31  O   UNL     1       0.694  -0.853   9.739  0.00  0.00    -0.386 OA
ATOM     32  H   UNL     1       0.094  -0.899  10.496  0.00  0.00    +0.211 HD
ENDBRANCH  21  31
ENDBRANCH  18  23
ENDBRANCH   3  18
TORSDOF 7
