REMARK  Name = ZINC04349776
REMARK  10 active torsions:
REMARK  status: ('A' for Active; 'I' for Inactive)
REMARK    1  A    between atoms: C_3  and  O_36
REMARK    2  A    between atoms: C_6  and  C_7
REMARK    3  A    between atoms: C_12  and  O_19
REMARK    4  A    between atoms: C_14  and  O_18
REMARK    5  A    between atoms: O_19  and  C_20
REMARK    6  A    between atoms: C_22  and  O_35
REMARK    7  A    between atoms: C_24  and  O_34
REMARK    8  A    between atoms: C_26  and  O_33
REMARK    9  A    between atoms: C_28  and  C_31
REMARK   10  A    between atoms: C_31  and  O_32
REMARK                            x       y       z     vdW  Elec       q    Type
REMARK                         _______ _______ _______ _____ _____    ______ ____
ROOT
ATOM      1  C   UNL     1      -1.271  -0.765   0.011  0.00  0.00    +0.064 A 
ATOM      2  C   UNL     1      -2.131  -0.699  -1.039  0.00  0.00    +0.208 A 
ATOM      3  O   UNL     1      -3.279  -1.379  -1.076  0.00  0.00    -0.462 OA
ATOM      4  C   UNL     1      -3.813  -1.928   0.032  0.00  0.00    +0.145 A 
ATOM      5  C   UNL     1      -5.137  -2.345   0.046  0.00  0.00    +0.093 A 
ATOM      6  C   UNL     1      -5.674  -2.917   1.188  0.00  0.00    +0.131 A 
ATOM      7  C   UNL     1      -4.900  -3.084   2.331  0.00  0.00    +0.092 A 
ATOM      8  C   UNL     1      -3.580  -2.674   2.341  0.00  0.00    +0.135 A 
ATOM      9  C   UNL     1      -3.034  -2.087   1.192  0.00  0.00    +0.106 A 
ATOM     10  C   UNL     1      -1.637  -1.619   1.157  0.00  0.00    +0.204 A 
ATOM     11  O   UNL     1      -0.833  -1.916   2.025  0.00  0.00    -0.286 OA
ENDROOT
BRANCH   1  17
ATOM     12  C   UNL     1      -0.017   1.390   0.010  0.00  0.00    +0.012 A 
ATOM     13  C   UNL     1       1.169   2.094   0.002  0.00  0.00    +0.046 A 
ATOM     14  C   UNL     1       2.380   1.417  -0.013  0.00  0.00    +0.117 A 
ATOM     15  C   UNL     1       2.403   0.029  -0.022  0.00  0.00    +0.046 A 
ATOM     16  C   UNL     1       1.220  -0.682  -0.014  0.00  0.00    +0.012 A 
ATOM     17  C   UNL     1       0.002  -0.004   0.002  0.00  0.00    -0.011 A 
BRANCH  14  18
ATOM     18  O   UNL     1       3.547   2.113  -0.021  0.00  0.00    -0.507 OA
ATOM     19  H   UNL     1       3.894   2.310   0.860  0.00  0.00    +0.292 HD
ENDBRANCH  14  18
ENDBRANCH   1  17
BRANCH   8  20
ATOM     20  O   UNL     1      -2.820  -2.837   3.453  0.00  0.00    -0.506 OA
ATOM     21  H   UNL     1      -2.350  -3.681   3.488  0.00  0.00    +0.292 HD
ENDBRANCH   8  20
BRANCH   6  22
ATOM     22  O   UNL     1      -6.971  -3.319   1.190  0.00  0.00    -0.461 OA
BRANCH  22  23
ATOM     23  C   UNL     1      -7.467  -3.902   2.397  0.00  0.00    +0.339 C 
ATOM     24  C   UNL     1      -8.966  -4.176   2.253  0.00  0.00    +0.214 C 
ATOM     25  C   UNL     1      -9.186  -5.187   1.124  0.00  0.00    +0.180 C 
ATOM     26  C   UNL     1      -8.390  -6.459   1.430  0.00  0.00    +0.177 C 
ATOM     27  C   UNL     1      -6.912  -6.097   1.606  0.00  0.00    +0.179 C 
ATOM     28  O   UNL     1      -6.781  -5.130   2.650  0.00  0.00    -0.331 OA
BRANCH  26  29
ATOM     29  O   UNL     1      -8.883  -7.054   2.632  0.00  0.00    -0.386 OA
ATOM     30  H   UNL     1      -9.816  -7.304   2.593  0.00  0.00    +0.210 HD
ENDBRANCH  26  29
BRANCH  25  31
ATOM     31  O   UNL     1     -10.577  -5.503   1.030  0.00  0.00    -0.386 OA
ATOM     32  H   UNL     1     -11.141  -4.740   0.843  0.00  0.00    +0.210 HD
ENDBRANCH  25  31
BRANCH  24  33
ATOM     33  O   UNL     1      -9.474  -4.708   3.479  0.00  0.00    -0.383 OA
ATOM     34  H   UNL     1      -9.363  -4.120   4.239  0.00  0.00    +0.210 HD
ENDBRANCH  24  33
BRANCH  27  35
ATOM     35  C   UNL     1      -6.119  -7.353   1.971  0.00  0.00    +0.190 C 
BRANCH  35  36
ATOM     36  O   UNL     1      -4.726  -7.039   2.021  0.00  0.00    -0.392 OA
ATOM     37  H   UNL     1      -4.161  -7.790   2.247  0.00  0.00    +0.210 HD
ENDBRANCH  35  36
ENDBRANCH  27  35
ENDBRANCH  22  23
ENDBRANCH   6  22
TORSDOF 10
