REMARK  Name = ZINC62790820
REMARK  3 active torsions:
REMARK  status: ('A' for Active; 'I' for Inactive)
REMARK    1  A    between atoms: C_6  and  C_7
REMARK    2  A    between atoms: C_9  and  C_12
REMARK    3  A    between atoms: C_17  and  N_18
REMARK                            x       y       z     vdW  Elec       q    Type
REMARK                         _______ _______ _______ _____ _____    ______ ____
ROOT
ATOM      1  C   UNL     1      -1.911  -0.514  -0.602  0.00  0.00    +0.202 A 
ATOM      2  N   UNL     1      -1.842  -1.852  -0.529  0.00  0.00    -0.187 NA
ATOM      3  C   UNL     1      -3.031  -2.349  -0.274  0.00  0.00    +0.261 A 
ATOM      4  O   UNL     1      -3.901  -1.328  -0.175  0.00  0.00    -0.332 OA
ATOM      5  N   UNL     1      -3.150  -0.142  -0.387  0.00  0.00    -0.056 NA
ENDROOT
BRANCH   1  11
ATOM      6  C   UNL     1      -0.973   1.774  -0.918  0.00  0.00    +0.014 A 
ATOM      7  C   UNL     1       0.089   2.618  -1.172  0.00  0.00    +0.040 A 
ATOM      8  C   UNL     1       1.355   2.097  -1.383  0.00  0.00    +0.142 A 
ATOM      9  C   UNL     1       1.561   0.726  -1.340  0.00  0.00    +0.077 A 
ATOM     10  C   UNL     1       0.503  -0.124  -1.087  0.00  0.00    +0.034 A 
ATOM     11  C   UNL     1      -0.772   0.397  -0.874  0.00  0.00    +0.024 A 
ATOM     12 CL   UNL     1       3.150   0.079  -1.605  0.00  0.00    -0.081 Cl
ATOM     13  F   UNL     1       2.392   2.926  -1.631  0.00  0.00    -0.204 F 
ENDBRANCH   1  11
BRANCH   3  14
ATOM     14  C   UNL     1      -3.356  -3.780  -0.122  0.00  0.00    +0.060 A 
ATOM     15  C   UNL     1      -2.879  -4.710  -1.047  0.00  0.00    +0.016 A 
ATOM     16  C   UNL     1      -3.186  -6.046  -0.900  0.00  0.00    +0.016 A 
ATOM     17  C   UNL     1      -3.967  -6.472   0.163  0.00  0.00    +0.020 A 
ATOM     18  C   UNL     1      -4.447  -5.562   1.086  0.00  0.00    +0.038 A 
ATOM     19  C   UNL     1      -4.142  -4.214   0.956  0.00  0.00    +0.038 A 
ATOM     20 BR   UNL     1      -4.380  -8.308   0.350  0.00  0.00    -0.050 Br
BRANCH  19  21
ATOM     21  N   UNL     1      -4.619  -3.297   1.887  0.00  0.00    -0.357 N 
ATOM     22  H   UNL     1      -4.335  -2.371   1.845  0.00  0.00    +0.142 HD
ATOM     23  H   UNL     1      -5.236  -3.585   2.579  0.00  0.00    +0.142 HD
ENDBRANCH  19  21
ENDBRANCH   3  14
TORSDOF 3
