REMARK  Name = ZINC21941390
REMARK  7 active torsions:
REMARK  status: ('A' for Active; 'I' for Inactive)
REMARK    1  A    between atoms: C_1  and  C_2
REMARK    2  A    between atoms: C_4  and  C_12
REMARK    3  A    between atoms: C_16  and  C_18
REMARK    4  A    between atoms: C_23  and  O_24
REMARK    5  A    between atoms: O_24  and  C_25
REMARK    6  A    between atoms: C_25  and  C_27
REMARK    7  A    between atoms: C_29  and  C_31
REMARK                            x       y       z     vdW  Elec       q    Type
REMARK                         _______ _______ _______ _____ _____    ______ ____
ROOT
ATOM      1  C   UNL     1       2.468  -3.821  -0.209  0.00  0.00    +0.320 C 
ATOM      2  N   UNL     1       1.005  -3.997  -0.190  0.00  0.00    -0.146 N 
ATOM      3  N   UNL     1       0.474  -2.701  -0.117  0.00  0.00    -0.135 NA
ATOM      4  C   UNL     1       1.427  -1.826  -0.093  0.00  0.00    +0.243 C 
ATOM      5  O   UNL     1       2.652  -2.399  -0.149  0.00  0.00    -0.447 OA
ATOM      6  C   UNL     1       0.321  -5.160  -0.233  0.00  0.00    +0.235 C 
ATOM      7  O   UNL     1       0.919  -6.214  -0.294  0.00  0.00    -0.274 OA
ATOM      8  C   UNL     1      -1.186  -5.149  -0.204  0.00  0.00    +0.111 C 
ENDROOT
BRANCH   1  12
ATOM      9  C   UNL     1       1.908  -5.479  -4.893  0.00  0.00    +0.063 C 
ATOM     10  C   UNL     1       2.808  -5.169  -3.724  0.00  0.00    +0.014 A 
ATOM     11  C   UNL     1       2.248  -4.665  -2.552  0.00  0.00    +0.030 A 
ATOM     12  C   UNL     1       3.049  -4.373  -1.485  0.00  0.00    +0.024 A 
ATOM     13  C   UNL     1       4.431  -4.607  -1.608  0.00  0.00    +0.007 A 
ATOM     14  C   UNL     1       5.316  -4.336  -0.552  0.00  0.00    +0.010 A 
ATOM     15  C   UNL     1       6.646  -4.577  -0.710  0.00  0.00    +0.001 A 
ATOM     16  C   UNL     1       7.143  -5.089  -1.907  0.00  0.00    +0.002 A 
ATOM     17  C   UNL     1       6.314  -5.363  -2.951  0.00  0.00    +0.026 A 
ATOM     18  C   UNL     1       4.934  -5.128  -2.826  0.00  0.00    +0.047 A 
ATOM     19  N   UNL     1       4.096  -5.387  -3.835  0.00  0.00    -0.358 N 
ATOM     20  H   UNL     1       4.506  -5.791  -4.772  0.00  0.00    +0.166 HD
ENDBRANCH   1  12
BRANCH   4  21
ATOM     21  C   UNL     1       1.204  -0.368  -0.020  0.00  0.00    +0.081 A 
ATOM     22  C   UNL     1       2.290   0.508   0.001  0.00  0.00    +0.032 A 
ATOM     23  C   UNL     1       2.075   1.869   0.069  0.00  0.00    +0.019 A 
ATOM     24  C   UNL     1       0.784   2.370   0.117  0.00  0.00    +0.019 A 
ATOM     25  C   UNL     1      -0.299   1.512   0.097  0.00  0.00    +0.048 A 
ATOM     26  C   UNL     1      -0.099   0.142   0.029  0.00  0.00    +0.144 A 
ATOM     27 BR   UNL     1       3.547   3.055   0.098  0.00  0.00    -0.050 Br
BRANCH  26  28
ATOM     28  O   UNL     1      -1.163  -0.702   0.010  0.00  0.00    -0.425 OA
BRANCH  28  29
ATOM     29  C   UNL     1      -1.568  -1.199   1.190  0.00  0.00    +0.309 C 
ATOM     30  O   UNL     1      -0.952  -0.942   2.197  0.00  0.00    -0.251 OA
ATOM     31  C   UNL     1      -2.790  -2.079   1.257  0.00  0.00    +0.136 C 
ENDBRANCH  28  29
ENDBRANCH  26  28
ENDBRANCH   4  21
TORSDOF 4
