REMARK  Name = ZINC09008702
REMARK  10 active torsions:
REMARK  status: ('A' for Active; 'I' for Inactive)
REMARK    1  A    between atoms: C_1  and  C_2
REMARK    2  A    between atoms: C_2  and  N_54
REMARK    3  A    between atoms: C_3  and  C_4
REMARK    4  A    between atoms: C_3  and  N_54
REMARK    5  A    between atoms: C_5  and  C_6
REMARK    6  A    between atoms: C_5  and  N_54
REMARK    7  A    between atoms: C_6  and  N_7
REMARK    8  A    between atoms: C_8  and  C_24
REMARK    9  A    between atoms: C_11  and  C_12
REMARK   10  A    between atoms: C_11  and  O_19
REMARK                            x       y       z     vdW  Elec       q    Type
REMARK                         _______ _______ _______ _____ _____    ______ ____
ROOT
ATOM      1  N   UNL     1      -4.044   2.732   1.028  0.00  0.00    -0.285 N 
ATOM      2  C   UNL     1      -3.759   1.684   0.044  0.00  0.00    +0.144 C 
ATOM      3  C   UNL     1      -4.459   2.088  -1.233  0.00  0.00    +0.071 C 
ATOM      4  C   UNL     1      -4.467   1.398  -2.429  0.00  0.00    +0.133 C 
ATOM      5  C   UNL     1      -5.099   3.306  -0.959  0.00  0.00    +0.249 C 
ATOM      6  O   UNL     1      -5.770   3.953  -1.742  0.00  0.00    -0.282 OA
ATOM      7  C   UNL     1      -4.816   3.671   0.456  0.00  0.00    +0.288 C 
ATOM      8  O   UNL     1      -5.224   4.670   1.012  0.00  0.00    -0.266 OA
ENDROOT
BRANCH   2   9
ATOM      9  C   UNL     1      -2.274   1.585  -0.190  0.00  0.00    -0.021 A 
ATOM     10  C   UNL     1      -1.678   0.346  -0.334  0.00  0.00    +0.007 A 
ATOM     11  C   UNL     1      -0.317   0.255  -0.555  0.00  0.00    +0.022 A 
ATOM     12  C   UNL     1       0.451   1.403  -0.626  0.00  0.00    +0.059 A 
ATOM     13  C   UNL     1      -0.145   2.644  -0.477  0.00  0.00    +0.060 A 
ATOM     14  C   UNL     1      -1.508   2.734  -0.256  0.00  0.00    +0.027 A 
ATOM     15 CL   UNL     1       0.817   4.086  -0.566  0.00  0.00    -0.082 Cl
ATOM     16 CL   UNL     1       2.161   1.289  -0.903  0.00  0.00    -0.082 Cl
ENDBRANCH   2   9
BRANCH   4  17
ATOM     17  C   UNL     1      -5.324   1.853  -3.536  0.00  0.00    +0.017 A 
ATOM     18  C   UNL     1      -6.682   2.105  -3.315  0.00  0.00    +0.014 A 
ATOM     19  C   UNL     1      -7.478   2.535  -4.355  0.00  0.00    +0.039 A 
ATOM     20  C   UNL     1      -6.936   2.709  -5.620  0.00  0.00    +0.123 A 
ATOM     21  C   UNL     1      -5.591   2.456  -5.847  0.00  0.00    +0.039 A 
ATOM     22  C   UNL     1      -4.784   2.030  -4.815  0.00  0.00    +0.014 A 
ATOM     23  F   UNL     1      -7.723   3.127  -6.636  0.00  0.00    -0.205 F 
ENDBRANCH   4  17
BRANCH   4  24
ATOM     24  O   UNL     1      -3.689   0.305  -2.582  0.00  0.00    -0.506 OA
ATOM     25  H   UNL     1      -3.817  -0.069  -3.501  0.00  0.00    +0.292 HD
ENDBRANCH   4  24
BRANCH   1  26
ATOM     26  C   UNL     1      -3.564   2.753   2.412  0.00  0.00    +0.090 C 
BRANCH  26  27
ATOM     27  C   UNL     1      -2.216   3.475   2.474  0.00  0.00    -0.060 C 
BRANCH  27  28
ATOM     28  N   UNL     1      -1.756   3.506   3.878  0.00  0.00    +0.380 N 
ATOM     29  H   UNL     1      -2.509   3.881   4.468  0.00  0.00    -0.082 HD
BRANCH  28  31
ATOM     30  C   UNL     1      -0.292   1.552   3.489  0.00  0.00    -0.017 C 
ATOM     31  C   UNL     1      -1.426   2.139   4.332  0.00  0.00    -0.082 C 
ENDBRANCH  28  31
BRANCH  28  32
ATOM     32  C   UNL     1      -0.570   4.379   4.001  0.00  0.00    -0.082 C 
ATOM     33  C   UNL     1      -0.307   4.646   5.485  0.00  0.00    -0.017 C 
ENDBRANCH  28  32
ENDBRANCH  27  28
ENDBRANCH  26  27
ENDBRANCH   1  26
TORSDOF 8
