REMARK  Name = ZINC66188602
REMARK  8 active torsions:
REMARK  status: ('A' for Active; 'I' for Inactive)
REMARK    1  A    between atoms: C_1  and  C_2
REMARK    2  A    between atoms: C_5  and  C_30
REMARK    3  A    between atoms: N_8  and  C_10
REMARK    4  A    between atoms: C_10  and  C_11
REMARK    5  A    between atoms: C_11  and  C_13
REMARK    6  A    between atoms: C_11  and  N_14
REMARK    7  A    between atoms: C_20  and  N_23
REMARK    8  A    between atoms: C_24  and  C_26
REMARK                            x       y       z     vdW  Elec       q    Type
REMARK                         _______ _______ _______ _____ _____    ______ ____
ROOT
ATOM      1  N   UNL     1       2.110   1.674   3.489  0.00  0.00    -0.298 N 
ATOM      2  C   UNL     1       1.173   2.414   4.115  0.00  0.00    +0.302 C 
ATOM      3  O   UNL     1       0.296   1.868   4.756  0.00  0.00    -0.253 OA
ATOM      4  N   UNL     1       1.208   3.758   4.031  0.00  0.00    -0.286 N 
ATOM      5  C   UNL     1       2.190   4.429   3.168  0.00  0.00    +0.111 C 
ATOM      6  C   UNL     1       2.962   5.455   4.003  0.00  0.00    +0.041 C 
ATOM      7  C   UNL     1       1.971   6.403   4.682  0.00  0.00    +0.076 C 
ATOM      8  C   UNL     1       1.059   5.606   5.618  0.00  0.00    +0.041 C 
ATOM      9  C   UNL     1       0.262   4.582   4.797  0.00  0.00    +0.111 C 
ATOM     10  H   UNL     1       2.765   2.105   2.918  0.00  0.00    +0.150 HD
ENDROOT
BRANCH   7  11
ATOM     11  N   UNL     1       2.707   7.406   5.455  0.00  0.00    -0.312 N 
ATOM     12  C   UNL     1       2.144   8.602   5.717  0.00  0.00    +0.216 C 
ATOM     13  O   UNL     1       1.027   8.848   5.312  0.00  0.00    -0.276 OA
ATOM     14  H   UNL     1       3.600   7.210   5.779  0.00  0.00    +0.149 HD
BRANCH  12  15
ATOM     15  C   UNL     1       2.901   9.634   6.512  0.00  0.00    +0.075 C 
ATOM     16  C   UNL     1       3.894  10.454   5.671  0.00  0.00    +0.013 C 
ATOM     17  C   UNL     1       2.738  11.432   5.402  0.00  0.00    +0.001 C 
ATOM     18  C   UNL     1       2.122  10.943   6.723  0.00  0.00    +0.013 C 
ENDBRANCH  12  15
ENDBRANCH   7  11
BRANCH   1  19
ATOM     19  C   UNL     1       2.138   0.221   3.671  0.00  0.00    +0.055 C 
ATOM     20  C   UNL     1       2.926  -0.120   4.937  0.00  0.00    +0.026 C 
BRANCH  19  21
ATOM     21  C   UNL     1       2.810  -0.431   2.461  0.00  0.00    -0.057 C 
BRANCH  21  27
ATOM     22  C   UNL     1      -0.018   1.521   0.011  0.00  0.00    +0.005 C 
ATOM     23  C   UNL     1       0.004  -0.009   0.004  0.00  0.00    -0.031 C 
ATOM     24  C   UNL     1       0.723  -0.504  -1.254  0.00  0.00    +0.003 C 
ATOM     25  C   UNL     1       2.179  -0.031  -1.217  0.00  0.00    -0.031 C 
ATOM     26  C   UNL     1       2.842  -0.537   0.066  0.00  0.00    -0.076 C 
ATOM     27  N   UNL     1       2.124  -0.007   1.232  0.00  0.00    +0.381 N 
ATOM     28  C   UNL     1       0.746  -0.515   1.243  0.00  0.00    -0.076 C 
ATOM     29  C   UNL     1       2.927  -0.586  -2.432  0.00  0.00    +0.005 C 
ATOM     30  H   UNL     1       2.110   1.000   1.188  0.00  0.00    -0.082 HD
ENDBRANCH  21  27
ENDBRANCH  19  21
ENDBRANCH   1  19
TORSDOF 5
