REMARK  Name = ZINC63571745
REMARK  6 active torsions:
REMARK  status: ('A' for Active; 'I' for Inactive)
REMARK    1  A    between atoms: C_1  and  O_2
REMARK    2  A    between atoms: O_2  and  C_3
REMARK    3  A    between atoms: C_5  and  O_35
REMARK    4  A    between atoms: C_8  and  N_9
REMARK    5  A    between atoms: C_25  and  C_27
REMARK    6  A    between atoms: O_35  and  C_36
REMARK                            x       y       z     vdW  Elec       q    Type
REMARK                         _______ _______ _______ _____ _____    ______ ____
ROOT
ATOM      1  N   UNL     1       0.434  -2.913  -0.354  0.00  0.00    -0.266 N 
ATOM      2  C   UNL     1       0.254  -4.248  -0.384  0.00  0.00    +0.307 C 
ATOM      3  O   UNL     1       0.690  -4.901  -1.313  0.00  0.00    -0.252 OA
ATOM      4  N   UNL     1      -0.408  -4.861   0.618  0.00  0.00    -0.276 N 
ATOM      5  C   UNL     1      -1.018  -4.058   1.682  0.00  0.00    +0.114 C 
ATOM      6  C   UNL     1      -2.526  -4.357   1.751  0.00  0.00    +0.052 C 
ATOM      7  C   UNL     1      -2.674  -5.857   1.682  0.00  0.00    -0.035 C 
ATOM      8  C   UNL     1      -3.325  -6.711   2.461  0.00  0.00    -0.001 A 
ATOM      9  C   UNL     1      -4.228  -6.503   3.604  0.00  0.00    +0.010 A 
ATOM     10  C   UNL     1      -4.716  -7.625   4.196  0.00  0.00    +0.001 A 
ATOM     11  C   UNL     1      -4.399  -8.919   3.770  0.00  0.00    +0.002 A 
ATOM     12  C   UNL     1      -3.584  -9.204   2.723  0.00  0.00    +0.026 A 
ATOM     13  C   UNL     1      -3.017  -8.104   2.015  0.00  0.00    +0.043 A 
ATOM     14  N   UNL     1      -2.235  -8.086   0.976  0.00  0.00    -0.375 N 
ATOM     15  C   UNL     1      -2.001  -6.692   0.599  0.00  0.00    +0.131 C 
ATOM     16  C   UNL     1      -0.518  -6.328   0.627  0.00  0.00    +0.134 C 
ATOM     17  H   UNL     1       0.117  -2.397   0.403  0.00  0.00    +0.156 HD
ATOM     18  H   UNL     1      -1.869  -8.865   0.528  0.00  0.00    +0.160 HD
ENDROOT
BRANCH   1  24
ATOM     19  C   UNL     1       0.860  -0.914  -1.654  0.00  0.00    +0.145 A 
ATOM     20  C   UNL     1       1.504  -0.279  -2.703  0.00  0.00    +0.094 A 
ATOM     21  C   UNL     1       2.364  -0.995  -3.522  0.00  0.00    +0.142 A 
ATOM     22  C   UNL     1       2.580  -2.346  -3.292  0.00  0.00    +0.084 A 
ATOM     23  C   UNL     1       1.939  -2.982  -2.245  0.00  0.00    +0.050 A 
ATOM     24  C   UNL     1       1.081  -2.269  -1.421  0.00  0.00    +0.078 A 
ATOM     25 CL   UNL     1       3.657  -3.240  -4.319  0.00  0.00    -0.080 Cl
BRANCH  19  27
ATOM     26  C   UNL     1      -0.164   1.172  -1.148  0.00  0.00    +0.277 C 
ATOM     27  O   UNL     1       0.016  -0.214  -0.850  0.00  0.00    -0.493 OA
ENDBRANCH  19  27
BRANCH  21  28
ATOM     28  O   UNL     1       2.996  -0.372  -4.553  0.00  0.00    -0.494 OA
ATOM     29  C   UNL     1       2.727   1.020  -4.732  0.00  0.00    +0.277 C 
ENDBRANCH  21  28
ENDBRANCH   1  24
BRANCH  16  30
ATOM     30  C   UNL     1       0.115  -6.879   1.879  0.00  0.00    -0.025 A 
ATOM     31  C   UNL     1       1.218  -7.708   1.788  0.00  0.00    +0.008 A 
ATOM     32  C   UNL     1       1.800  -8.213   2.936  0.00  0.00    +0.038 A 
ATOM     33  C   UNL     1       1.278  -7.889   4.176  0.00  0.00    +0.123 A 
ATOM     34  C   UNL     1       0.173  -7.059   4.266  0.00  0.00    +0.038 A 
ATOM     35  C   UNL     1      -0.404  -6.551   3.118  0.00  0.00    +0.008 A 
ATOM     36  F   UNL     1       1.845  -8.383   5.298  0.00  0.00    -0.205 F 
ENDBRANCH  16  30
TORSDOF 4
