REMARK  Name = ZINC26804217
REMARK  9 active torsions:
REMARK  status: ('A' for Active; 'I' for Inactive)
REMARK    1  A    between atoms: CG1_1  and  CB_2
REMARK    2  A    between atoms: CB_2  and  CG2_3
REMARK    3  A    between atoms: CB_2  and  CA_4
REMARK    4  A    between atoms: CA_4  and  C_6
REMARK    5  A    between atoms: CA_4  and  N_9
REMARK    6  A    between atoms: C_10  and  CA_12
REMARK    7  A    between atoms: CA_12  and  N_21
REMARK    8  A    between atoms: C_13  and  C_14
REMARK    9  A    between atoms: C_22  and  C_24
REMARK                            x       y       z     vdW  Elec       q    Type
REMARK                         _______ _______ _______ _____ _____    ______ ____
ROOT
ATOM      1  CA  UNL     1      -3.705   2.331   0.150  0.00  0.00    +0.097 C 
ATOM      2  C   UNL     1      -2.548   1.666  -0.071  0.00  0.00    +0.038 C 
ENDROOT
BRANCH   2   3
ATOM      3  C   UNL     1      -1.337   2.407  -0.456  0.00  0.00    -0.005 A 
ATOM      4  C   UNL     1      -1.444   3.650  -1.088  0.00  0.00    +0.009 A 
ATOM      5  C   UNL     1      -0.304   4.335  -1.451  0.00  0.00    +0.001 A 
ATOM      6  C   UNL     1       0.945   3.799  -1.186  0.00  0.00    +0.001 A 
ATOM      7  C   UNL     1       1.061   2.573  -0.556  0.00  0.00    +0.020 A 
ATOM      8  C   UNL     1      -0.071   1.874  -0.186  0.00  0.00    +0.048 A 
ATOM      9 CL   UNL     1       0.076   0.335   0.604  0.00  0.00    -0.083 Cl
ENDBRANCH   2   3
BRANCH   1  11
ATOM     10  N   UNL     1      -4.937   0.235   0.376  0.00  0.00    -0.297 N 
ATOM     11  C   UNL     1      -4.949   1.583   0.383  0.00  0.00    +0.259 C 
ATOM     12  O   UNL     1      -5.990   2.181   0.583  0.00  0.00    -0.269 OA
ATOM     13  H   UNL     1      -3.996  -0.305   0.195  0.00  0.00    +0.150 HD
BRANCH  10  14
ATOM     14  CA  UNL     1      -6.177  -0.510   0.608  0.00  0.00    +0.189 C 
BRANCH  14  16
ATOM     15  CG1 UNL     1      -5.080  -1.752   2.478  0.00  0.00    +0.009 C 
ATOM     16  CB  UNL     1      -5.842  -1.897   1.159  0.00  0.00    +0.014 C 
ATOM     17  CG2 UNL     1      -7.137  -2.676   1.402  0.00  0.00    +0.009 C 
ENDBRANCH  14  16
BRANCH  14  18
ATOM     18  C   UNL     1      -6.927  -0.654  -0.691  0.00  0.00    +0.376 C 
ATOM     19  O   UNL     1      -6.473  -0.182  -1.707  0.00  0.00    -0.244 OA
ATOM     20  OXT UNL     1      -8.100  -1.306  -0.720  0.00  0.00    -0.244 OA
ENDBRANCH  14  18
ENDBRANCH  10  14
ENDBRANCH   1  11
BRANCH   1  21
ATOM     21  N   UNL     1      -3.718   3.729   0.158  0.00  0.00    -0.277 N 
ATOM     22  C   UNL     1      -4.537   4.400  -0.675  0.00  0.00    +0.250 C 
ATOM     23  O   UNL     1      -5.196   3.794  -1.499  0.00  0.00    -0.270 OA
ATOM     24  H   UNL     1      -3.060   4.281   0.845  0.00  0.00    +0.155 HD
BRANCH  22  25
ATOM     25  C   UNL     1      -4.635   5.871  -0.589  0.00  0.00    +0.055 A 
ATOM     26  C   UNL     1      -3.788   6.581   0.264  0.00  0.00    +0.016 A 
ATOM     27  C   UNL     1      -3.884   7.954   0.340  0.00  0.00    +0.021 A 
ATOM     28  C   UNL     1      -4.818   8.631  -0.427  0.00  0.00    +0.042 A 
ATOM     29  C   UNL     1      -5.662   7.934  -1.275  0.00  0.00    +0.040 A 
ATOM     30  C   UNL     1      -5.572   6.559  -1.365  0.00  0.00    +0.054 A 
ATOM     31 CL   UNL     1      -6.625   5.686  -2.434  0.00  0.00    -0.083 Cl
ATOM     32 CL   UNL     1      -4.932  10.360  -0.324  0.00  0.00    -0.083 Cl
ENDBRANCH  22  25
ENDBRANCH   1  21
TORSDOF 7
