REMARK  Name = ZINC08767901
REMARK  11 active torsions:
REMARK  status: ('A' for Active; 'I' for Inactive)
REMARK    1  A    between atoms: C_1  and  C_2
REMARK    2  A    between atoms: C_2  and  C_39
REMARK    3  A    between atoms: C_6  and  N_31
REMARK    4  A    between atoms: C_12  and  S_18
REMARK    5  A    between atoms: C_14  and  S_16
REMARK    6  A    between atoms: S_16  and  C_17
REMARK    7  A    between atoms: S_18  and  C_19
REMARK    8  A    between atoms: C_19  and  C_20
REMARK    9  A    between atoms: N_22  and  C_23
REMARK   10  A    between atoms: C_26  and  O_29
REMARK   11  A    between atoms: O_29  and  C_30
REMARK                            x       y       z     vdW  Elec       q    Type
REMARK                         _______ _______ _______ _____ _____    ______ ____
ROOT
ATOM      1  C   UNL     1       4.901  -2.995   0.103  0.00  0.00    +0.041 C 
ATOM      2  C   UNL     1       3.613  -2.226   0.405  0.00  0.00    +0.068 C 
ATOM      3  C   UNL     1       3.778  -0.763  -0.012  0.00  0.00    +0.070 C 
ATOM      4  C   UNL     1       2.439  -0.074   0.017  0.00  0.00    -0.024 A 
ATOM      5  C   UNL     1       1.271  -0.770   0.034  0.00  0.00    +0.020 A 
ATOM      6  C   UNL     1       0.052  -0.084   0.047  0.00  0.00    +0.105 A 
ATOM      7  C   UNL     1       1.139   1.943   0.037  0.00  0.00    +0.089 A 
ATOM      8  C   UNL     1       2.409   1.342   0.021  0.00  0.00    +0.035 A 
ATOM      9  C   UNL     1       3.560   2.264   0.007  0.00  0.00    +0.093 A 
ATOM     10  C   UNL     1       3.250   3.629   0.018  0.00  0.00    +0.072 A 
ATOM     11  S   UNL     1       1.479   3.687   0.043  0.00  0.00    -0.066 S 
ATOM     12  C   UNL     1       4.251   4.591   0.009  0.00  0.00    +0.116 A 
ATOM     13  N   UNL     1       5.521   4.185  -0.012  0.00  0.00    -0.214 NA
ATOM     14  C   UNL     1       5.802   2.888  -0.024  0.00  0.00    +0.190 A 
ATOM     15  N   UNL     1       4.876   1.952  -0.016  0.00  0.00    -0.221 NA
ATOM     16  C   UNL     1       1.254  -2.277   0.047  0.00  0.00    +0.199 C 
ATOM     17  O   UNL     1       2.528  -2.789  -0.340  0.00  0.00    -0.369 OA
ATOM     18  C   UNL     1       3.305  -2.303   1.902  0.00  0.00    +0.041 C 
ATOM     19  N   UNL     1      -0.041   1.276   0.049  0.00  0.00    -0.337 N 
ATOM     20  H   UNL     1      -0.945   1.763   0.058  0.00  0.00    +0.168 HD
ENDROOT
BRANCH   6  21
ATOM     21  N   UNL     1      -1.139  -0.796   0.058  0.00  0.00    -0.312 N 
ATOM     22  C   UNL     1      -1.969  -0.453  -1.106  0.00  0.00    +0.134 C 
ATOM     23  C   UNL     1      -3.243  -1.303  -1.086  0.00  0.00    +0.178 C 
ATOM     24  O   UNL     1      -3.931  -1.093   0.150  0.00  0.00    -0.377 OA
ATOM     25  C   UNL     1      -3.152  -1.418   1.304  0.00  0.00    +0.178 C 
ATOM     26  C   UNL     1      -1.877  -0.570   1.309  0.00  0.00    +0.134 C 
ENDBRANCH   6  21
BRANCH  14  27
ATOM     27  S   UNL     1       7.494   2.396  -0.053  0.00  0.00    -0.089 S 
ATOM     28  C   UNL     1       8.293   4.020  -0.056  0.00  0.00    +0.093 C 
ENDBRANCH  14  27
BRANCH  12  29
ATOM     29  S   UNL     1       3.853   6.307   0.024  0.00  0.00    -0.095 S 
BRANCH  29  30
ATOM     30  C   UNL     1       5.519   7.016   0.004  0.00  0.00    +0.172 C 
BRANCH  30  31
ATOM     31  C   UNL     1       5.424   8.520   0.014  0.00  0.00    +0.227 C 
ATOM     32  O   UNL     1       4.338   9.060   0.033  0.00  0.00    -0.275 OA
ATOM     33  N   UNL     1       6.547   9.266   0.002  0.00  0.00    -0.285 N 
ATOM     34  H   UNL     1       7.412   8.838  -0.092  0.00  0.00    +0.155 HD
BRANCH  33  35
ATOM     35  C   UNL     1       6.464  10.659   0.123  0.00  0.00    +0.034 A 
ATOM     36  C   UNL     1       7.365  11.470  -0.554  0.00  0.00    +0.027 A 
ATOM     37  C   UNL     1       7.279  12.844  -0.438  0.00  0.00    +0.047 A 
ATOM     38  C   UNL     1       6.301  13.412   0.365  0.00  0.00    +0.120 A 
ATOM     39  C   UNL     1       5.404  12.602   1.045  0.00  0.00    +0.047 A 
ATOM     40  C   UNL     1       5.484  11.229   0.925  0.00  0.00    +0.027 A 
BRANCH  38  41
ATOM     41  O   UNL     1       6.220  14.765   0.483  0.00  0.00    -0.495 OA
ATOM     42  C   UNL     1       7.176  15.538  -0.246  0.00  0.00    +0.277 C 
ENDBRANCH  38  41
ENDBRANCH  33  35
ENDBRANCH  30  31
ENDBRANCH  29  30
ENDBRANCH  12  29
TORSDOF 7
