REMARK  Name = ZINC20568372
REMARK  9 active torsions:
REMARK  status: ('A' for Active; 'I' for Inactive)
REMARK    1  A    between atoms: C_1  and  C_2
REMARK    2  A    between atoms: C_7  and  C_9
REMARK    3  A    between atoms: C_7  and  C_10
REMARK    4  A    between atoms: N_11  and  C_13
REMARK    5  A    between atoms: C_13  and  N_14
REMARK    6  A    between atoms: N_22  and  N_23
REMARK    7  A    between atoms: C_24  and  C_26
REMARK    8  A    between atoms: C_26  and  S_27
REMARK    9  A    between atoms: S_27  and  C_28
REMARK                            x       y       z     vdW  Elec       q    Type
REMARK                         _______ _______ _______ _____ _____    ______ ____
ROOT
ATOM      1  N   UNL     1      -3.509  -2.721  -0.667  0.00  0.00    -0.282 N 
ATOM      2  C   UNL     1      -4.219  -2.078   0.341  0.00  0.00    +0.044 A 
ATOM      3  C   UNL     1      -3.817  -1.558   1.567  0.00  0.00    +0.024 A 
ATOM      4  C   UNL     1      -4.739  -0.958   2.401  0.00  0.00    +0.002 A 
ATOM      5  C   UNL     1      -6.070  -0.865   2.030  0.00  0.00    +0.001 A 
ATOM      6  C   UNL     1      -6.487  -1.376   0.818  0.00  0.00    +0.012 A 
ATOM      7  C   UNL     1      -5.566  -1.983  -0.029  0.00  0.00    +0.028 A 
ATOM      8  C   UNL     1      -5.679  -2.617  -1.363  0.00  0.00    +0.153 C 
ATOM      9  N   UNL     1      -6.759  -2.753  -2.093  0.00  0.00    -0.175 NA
ATOM     10  C   UNL     1      -4.308  -3.056  -1.694  0.00  0.00    +0.270 C 
ATOM     11  O   UNL     1      -3.964  -3.623  -2.714  0.00  0.00    -0.268 OA
ENDROOT
BRANCH   9  12
ATOM     12  N   UNL     1      -6.686  -3.384  -3.342  0.00  0.00    -0.206 N 
ATOM     13  C   UNL     1      -7.796  -3.525  -4.093  0.00  0.00    +0.243 C 
ATOM     14  O   UNL     1      -8.859  -3.105  -3.688  0.00  0.00    -0.273 OA
ATOM     15  H   UNL     1      -5.835  -3.720  -3.666  0.00  0.00    +0.177 HD
BRANCH  13  16
ATOM     16  C   UNL     1      -7.717  -4.203  -5.436  0.00  0.00    +0.176 C 
BRANCH  16  17
ATOM     17  S   UNL     1      -9.364  -4.237  -6.195  0.00  0.00    -0.058 S 
BRANCH  17  18
ATOM     18  C   UNL     1      -9.107  -5.050  -7.737  0.00  0.00    +0.258 A 
ATOM     19  N   UNL     1      -7.955  -5.505  -8.162  0.00  0.00    -0.203 NA
ATOM     20  C   UNL     1      -8.134  -6.070  -9.387  0.00  0.00    +0.110 A 
ATOM     21  C   UNL     1      -7.279  -6.698 -10.293  0.00  0.00    +0.031 A 
ATOM     22  C   UNL     1      -7.778  -7.179 -11.484  0.00  0.00    +0.002 A 
ATOM     23  C   UNL     1      -9.124  -7.041 -11.787  0.00  0.00    +0.004 A 
ATOM     24  C   UNL     1      -9.981  -6.422 -10.899  0.00  0.00    +0.048 A 
ATOM     25  C   UNL     1      -9.496  -5.933  -9.697  0.00  0.00    +0.156 A 
ATOM     26  O   UNL     1     -10.066  -5.300  -8.646  0.00  0.00    -0.431 OA
ENDBRANCH  17  18
ENDBRANCH  16  17
ENDBRANCH  13  16
ENDBRANCH   9  12
BRANCH   1  27
ATOM     27  C   UNL     1      -2.071  -2.994  -0.618  0.00  0.00    +0.039 C 
BRANCH  27  37
ATOM     28  C   UNL     1      -0.142   1.523  -0.840  0.00  0.00    +0.009 C 
ATOM     29  C   UNL     1      -0.069   0.014  -0.560  0.00  0.00    -0.048 C 
ATOM     30  C   UNL     1       0.677  -0.760  -1.681  0.00  0.00    -0.011 C 
ATOM     31  C   UNL     1       0.094  -2.180  -1.438  0.00  0.00    -0.065 C 
ATOM     32  C   UNL     1       0.729  -2.731  -0.176  0.00  0.00    -0.009 C 
ATOM     33  C   UNL     1       0.851  -1.790   1.002  0.00  0.00    -0.036 C 
ATOM     34  C   UNL     1       0.657  -0.309   0.747  0.00  0.00    +0.011 C 
ATOM     35  C   UNL     1      -0.109  -2.240   2.119  0.00  0.00    +0.011 C 
ATOM     36  C   UNL     1       2.282  -1.965   1.577  0.00  0.00    +0.011 C 
ATOM     37  N   UNL     1      -1.348  -1.910  -1.273  0.00  0.00    +0.393 N 
ATOM     38  C   UNL     1      -1.466  -0.646  -0.523  0.00  0.00    -0.070 C 
ATOM     39  H   UNL     1      -1.754  -1.764  -2.200  0.00  0.00    -0.079 HD
ENDBRANCH  27  37
ENDBRANCH   1  27
TORSDOF 6
