REMARK  Name = ZINC36299012
REMARK  9 active torsions:
REMARK  status: ('A' for Active; 'I' for Inactive)
REMARK    1  A    between atoms: C_1  and  C_2
REMARK    2  A    between atoms: C_2  and  C_3
REMARK    3  A    between atoms: C_2  and  C_4
REMARK    4  A    between atoms: C_4  and  C_5
REMARK    5  A    between atoms: C_5  and  C_7
REMARK    6  A    between atoms: C_5  and  N_21
REMARK    7  A    between atoms: C_7  and  N_8
REMARK    8  A    between atoms: N_8  and  S_9
REMARK    9  A    between atoms: S_9  and  C_12
REMARK                            x       y       z     vdW  Elec       q    Type
REMARK                         _______ _______ _______ _____ _____    ______ ____
ROOT
ATOM      1  N   UNL     1      -0.042  -0.259   4.939  0.00  0.00    -0.191 NA
ATOM      2  H   UNL     1      -0.831   0.303   4.883  0.00  0.00    +0.148 HD
ENDROOT
BRANCH   1   3
ATOM      3  S   UNL     1       0.401  -0.922   6.391  0.00  0.00    +0.061 S 
ATOM      4  O   UNL     1      -0.544  -0.468   7.350  0.00  0.00    -0.153 OA
ATOM      5  O   UNL     1       0.640  -2.302   6.150  0.00  0.00    -0.153 OA
BRANCH   3   6
ATOM      6  C   UNL     1       1.952  -0.213   6.836  0.00  0.00    +0.142 A 
ATOM      7  C   UNL     1       3.129  -0.814   6.429  0.00  0.00    +0.070 A 
ATOM      8  C   UNL     1       4.346  -0.257   6.779  0.00  0.00    +0.042 A 
ATOM      9  C   UNL     1       4.386   0.901   7.535  0.00  0.00    +0.044 A 
ATOM     10  C   UNL     1       3.208   1.502   7.941  0.00  0.00    +0.042 A 
ATOM     11  C   UNL     1       1.991   0.948   7.588  0.00  0.00    +0.070 A 
ATOM     12 CL   UNL     1       0.513   1.706   8.092  0.00  0.00    -0.081 Cl
ATOM     13 CL   UNL     1       5.913   1.599   7.974  0.00  0.00    -0.083 Cl
ATOM     14 CL   UNL     1       3.080  -2.267   5.480  0.00  0.00    -0.081 Cl
ENDBRANCH   3   6
ENDBRANCH   1   3
BRANCH   1  15
ATOM     15  C   UNL     1       0.758  -0.520   3.740  0.00  0.00    +0.090 C 
BRANCH  15  16
ATOM     16  C   UNL     1      -0.042  -0.124   2.497  0.00  0.00    -0.059 C 
BRANCH  16  17
ATOM     17  N   UNL     1      -1.334  -0.823   2.503  0.00  0.00    +0.381 N 
ATOM     18  H   UNL     1      -1.177  -1.819   2.499  0.00  0.00    -0.090 HD
ATOM     19  H   UNL     1      -1.850  -0.567   3.331  0.00  0.00    -0.090 HD
ATOM     20  H   UNL     1      -1.861  -0.561   1.684  0.00  0.00    -0.090 HD
ENDBRANCH  16  17
BRANCH  16  21
ATOM     21  C   UNL     1       0.742  -0.511   1.242  0.00  0.00    -0.012 C 
BRANCH  21  23
ATOM     22  C   UNL     1      -0.019   1.526   0.010  0.00  0.00    +0.007 C 
ATOM     23  C   UNL     1       0.002  -0.004   0.002  0.00  0.00    -0.019 C 
ATOM     24  C   UNL     1       0.718  -0.497  -1.257  0.00  0.00    +0.007 C 
ENDBRANCH  21  23
ENDBRANCH  16  21
ENDBRANCH  15  16
ENDBRANCH   1  15
TORSDOF 7
