REMARK  Name = ZINC00657525
REMARK  10 active torsions:
REMARK  status: ('A' for Active; 'I' for Inactive)
REMARK    1  A    between atoms: C_1  and  C_2
REMARK    2  A    between atoms: C_2  and  O_3
REMARK    3  A    between atoms: O_3  and  C_4
REMARK    4  A    between atoms: C_6  and  C_20
REMARK    5  A    between atoms: C_9  and  O_10
REMARK    6  A    between atoms: O_10  and  C_11
REMARK    7  A    between atoms: C_11  and  C_12
REMARK    8  A    between atoms: N_21  and  N_22
REMARK    9  A    between atoms: N_22  and  C_23
REMARK   10  A    between atoms: C_23  and  N_25
REMARK                            x       y       z     vdW  Elec       q    Type
REMARK                         _______ _______ _______ _____ _____    ______ ____
ROOT
ATOM      1  C   UNL     1       1.809   2.381   1.205  0.00  0.00    +0.164 A 
ATOM      2  C   UNL     1       3.035   3.020   1.199  0.00  0.00    +0.059 A 
ATOM      3  C   UNL     1       3.641   3.351  -0.016  0.00  0.00    -0.001 A 
ATOM      4  C   UNL     1       3.007   3.030  -1.219  0.00  0.00    +0.028 A 
ATOM      5  C   UNL     1       1.787   2.388  -1.205  0.00  0.00    +0.064 A 
ATOM      6  C   UNL     1       1.186   2.058   0.002  0.00  0.00    +0.176 A 
ATOM      7 BR   UNL     1       0.931   1.954  -2.835  0.00  0.00    -0.046 Br
ENDROOT
BRANCH   3   8
ATOM      8  C   UNL     1       4.945   4.038  -0.028  0.00  0.00    +0.138 C 
ATOM      9  N   UNL     1       5.506   4.346  -1.157  0.00  0.00    -0.188 NA
BRANCH   9  10
ATOM     10  N   UNL     1       6.746   4.999  -1.168  0.00  0.00    -0.219 N 
ATOM     11  H   UNL     1       7.185   5.221  -0.332  0.00  0.00    +0.176 HD
BRANCH  10  12
ATOM     12  C   UNL     1       7.329   5.318  -2.341  0.00  0.00    +0.147 C 
ATOM     13  S   UNL     1       8.843   6.116  -2.354  0.00  0.00    -0.017 S 
BRANCH  12  14
ATOM     14  N   UNL     1       6.719   5.009  -3.502  0.00  0.00    -0.339 N 
ATOM     15  H   UNL     1       5.861   4.557  -3.494  0.00  0.00    +0.144 HD
ATOM     16  H   UNL     1       7.139   5.239  -4.346  0.00  0.00    +0.144 HD
ENDBRANCH  12  14
ENDBRANCH  10  12
ENDBRANCH   9  10
ENDBRANCH   3   8
BRANCH   1  17
ATOM     17  O   UNL     1       1.214   2.062   2.385  0.00  0.00    -0.489 OA
BRANCH  17  19
ATOM     18  C   UNL     1       1.092   1.986   4.798  0.00  0.00    +0.048 C 
ATOM     19  C   UNL     1       1.910   2.422   3.580  0.00  0.00    +0.226 C 
ENDBRANCH  17  19
ENDBRANCH   1  17
BRANCH   6  20
ATOM     20  O   UNL     1      -0.017   1.425   0.010  0.00  0.00    -0.483 OA
BRANCH  20  21
ATOM     21  C   UNL     1       0.002  -0.004   0.002  0.00  0.00    +0.264 C 
BRANCH  21  22
ATOM     22  C   UNL     1      -1.412  -0.526   0.013  0.00  0.00    -0.010 A 
ATOM     23  C   UNL     1      -2.046  -0.777   1.215  0.00  0.00    +0.008 A 
ATOM     24  C   UNL     1      -3.345  -1.250   1.225  0.00  0.00    +0.020 A 
ATOM     25  C   UNL     1      -4.006  -1.483   0.032  0.00  0.00    +0.041 A 
ATOM     26  C   UNL     1      -3.368  -1.237  -1.171  0.00  0.00    +0.020 A 
ATOM     27  C   UNL     1      -2.071  -0.758  -1.180  0.00  0.00    +0.008 A 
ATOM     28 CL   UNL     1      -5.635  -2.083   0.045  0.00  0.00    -0.084 Cl
ENDBRANCH  21  22
ENDBRANCH  20  21
ENDBRANCH   6  20
TORSDOF 9
