REMARK  Name = ZINC02872868
REMARK  6 active torsions:
REMARK  status: ('A' for Active; 'I' for Inactive)
REMARK    1  A    between atoms: C_1  and  C_2
REMARK    2  A    between atoms: C_3  and  C_8
REMARK    3  A    between atoms: C_4  and  C_7
REMARK    4  A    between atoms: N_10  and  C_11
REMARK    5  A    between atoms: C_14  and  S_17
REMARK    6  A    between atoms: S_17  and  N_20
REMARK                            x       y       z     vdW  Elec       q    Type
REMARK                         _______ _______ _______ _____ _____    ______ ____
ROOT
ATOM      1  C   UNL     1       0.275   2.092  -0.127  0.00  0.00    +0.034 A 
ATOM      2  C   UNL     1       1.575   2.581  -0.114  0.00  0.00    +0.025 A 
ATOM      3  C   UNL     1       2.642   1.704  -0.106  0.00  0.00    +0.030 A 
ATOM      4  C   UNL     1       2.416   0.339  -0.111  0.00  0.00    +0.109 A 
ATOM      5  C   UNL     1       1.124  -0.151  -0.124  0.00  0.00    +0.030 A 
ATOM      6  C   UNL     1       0.053   0.721  -0.132  0.00  0.00    +0.025 A 
ENDROOT
BRANCH   1   9
ATOM      7  C   UNL     1      -0.734   4.141   0.536  0.00  0.00    +0.253 C 
ATOM      8  O   UNL     1       0.302   4.460   1.088  0.00  0.00    -0.270 OA
ATOM      9  N   UNL     1      -0.807   2.978  -0.140  0.00  0.00    -0.281 N 
ATOM     10  H   UNL     1      -1.610   2.755  -0.636  0.00  0.00    +0.155 HD
BRANCH   7  13
ATOM     11  C   UNL     1      -3.141   4.134   2.800  0.00  0.00    +0.070 C 
ATOM     12  C   UNL     1      -2.990   5.040   1.605  0.00  0.00    +0.093 A 
ATOM     13  C   UNL     1      -1.910   5.027   0.607  0.00  0.00    +0.101 A 
ATOM     14  C   UNL     1      -2.270   6.042  -0.246  0.00  0.00    +0.147 A 
ATOM     15  O   UNL     1      -3.407   6.550   0.234  0.00  0.00    -0.359 OA
ATOM     16  N   UNL     1      -3.785   6.001   1.239  0.00  0.00    -0.083 NA
ATOM     17  C   UNL     1      -1.529   6.491  -1.479  0.00  0.00    +0.090 C 
ENDBRANCH   7  13
ENDBRANCH   1   9
BRANCH   4  18
ATOM     18  S   UNL     1       3.780  -0.776  -0.101  0.00  0.00    +0.075 S 
ATOM     19  O   UNL     1       4.878  -0.071   0.461  0.00  0.00    -0.150 OA
ATOM     20  O   UNL     1       3.301  -1.998   0.443  0.00  0.00    -0.150 OA
BRANCH  18  21
ATOM     21  N   UNL     1       4.173  -1.084  -1.680  0.00  0.00    -0.203 N 
ATOM     22  C   UNL     1       3.640  -2.268  -2.365  0.00  0.00    +0.132 C 
ATOM     23  C   UNL     1       4.785  -2.922  -3.142  0.00  0.00    +0.025 C 
ATOM     24  C   UNL     1       5.283  -1.945  -4.208  0.00  0.00    +0.038 C 
ATOM     25  C   UNL     1       5.577  -0.602  -3.594  0.00  0.00    -0.025 A 
ATOM     26  C   UNL     1       5.024  -0.222  -2.381  0.00  0.00    +0.054 A 
ATOM     27  C   UNL     1       5.312   1.028  -1.846  0.00  0.00    +0.025 A 
ATOM     28  C   UNL     1       6.152   1.892  -2.521  0.00  0.00    +0.002 A 
ATOM     29  C   UNL     1       6.706   1.512  -3.730  0.00  0.00    +0.000 A 
ATOM     30  C   UNL     1       6.420   0.270  -4.264  0.00  0.00    +0.005 A 
ENDBRANCH  18  21
ENDBRANCH   4  18
TORSDOF 4
