REMARK  Name = ZINC59716567
REMARK  6 active torsions:
REMARK  status: ('A' for Active; 'I' for Inactive)
REMARK    1  A    between atoms: C_1  and  C_2
REMARK    2  A    between atoms: C_2  and  C_4
REMARK    3  A    between atoms: N_6  and  C_22
REMARK    4  A    between atoms: C_7  and  C_15
REMARK    5  A    between atoms: N_10  and  C_11
REMARK    6  A    between atoms: C_12  and  C_14
REMARK                            x       y       z     vdW  Elec       q    Type
REMARK                         _______ _______ _______ _____ _____    ______ ____
ROOT
ATOM      1  C   UNL     1      -1.510  -0.611   0.453  0.00  0.00    +0.198 C 
ATOM      2  N   UNL     1      -2.757  -0.223   0.433  0.00  0.00    -0.157 NA
ATOM      3  N   UNL     1      -3.757  -1.004  -0.164  0.00  0.00    -0.196 N 
ATOM      4  C   UNL     1      -3.493  -2.429  -0.425  0.00  0.00    +0.235 C 
ATOM      5  N   UNL     1      -2.093  -2.527  -0.888  0.00  0.00    -0.192 N 
ATOM      6  N   UNL     1      -1.134  -1.843  -0.109  0.00  0.00    -0.229 N 
ATOM      7  C   UNL     1       0.202  -2.401   0.110  0.00  0.00    +0.156 C 
ATOM      8  C   UNL     1      -1.751  -3.223  -1.990  0.00  0.00    +0.231 C 
ATOM      9  O   UNL     1      -2.612  -3.708  -2.693  0.00  0.00    -0.274 OA
ATOM     10  C   UNL     1      -0.298  -3.400  -2.349  0.00  0.00    +0.111 C 
ENDROOT
BRANCH   4  11
ATOM     11  C   UNL     1      -3.677  -3.228   0.839  0.00  0.00    -0.006 A 
ATOM     12  C   UNL     1      -2.936  -4.377   1.045  0.00  0.00    +0.008 A 
ATOM     13  C   UNL     1      -3.104  -5.109   2.205  0.00  0.00    +0.015 A 
ATOM     14  C   UNL     1      -4.013  -4.692   3.160  0.00  0.00    +0.018 A 
ATOM     15  C   UNL     1      -4.754  -3.543   2.954  0.00  0.00    +0.015 A 
ATOM     16  C   UNL     1      -4.582  -2.808   1.796  0.00  0.00    +0.008 A 
ATOM     17 BR   UNL     1      -4.243  -5.694   4.747  0.00  0.00    -0.050 Br
ENDBRANCH   4  11
BRANCH   3  18
ATOM     18  C   UNL     1      -4.986  -0.439  -0.504  0.00  0.00    +0.054 A 
ATOM     19  C   UNL     1      -5.974  -1.222  -1.090  0.00  0.00    +0.026 A 
ATOM     20  C   UNL     1      -7.189  -0.660  -1.425  0.00  0.00    +0.022 A 
ATOM     21  C   UNL     1      -7.424   0.682  -1.180  0.00  0.00    +0.041 A 
ATOM     22  C   UNL     1      -6.442   1.464  -0.597  0.00  0.00    +0.022 A 
ATOM     23  C   UNL     1      -5.227   0.907  -0.253  0.00  0.00    +0.026 A 
ATOM     24 CL   UNL     1      -8.954   1.386  -1.604  0.00  0.00    -0.084 Cl
ENDBRANCH   3  18
BRANCH   1  26
ATOM     25  C   UNL     1      -0.889   1.611   1.496  0.00  0.00    +0.095 C 
ATOM     26  C   UNL     1      -0.526   0.220   1.042  0.00  0.00    +0.196 C 
ATOM     27  O   UNL     1       0.609  -0.187   1.181  0.00  0.00    -0.289 OA
ENDBRANCH   1  26
TORSDOF 3
