REMARK  Name = ZINC12275526
REMARK  4 active torsions:
REMARK  status: ('A' for Active; 'I' for Inactive)
REMARK    1  A    between atoms: C_6  and  C_7
REMARK    2  A    between atoms: C_14  and  C_15
REMARK    3  A    between atoms: C_19  and  C_20
REMARK    4  A    between atoms: C_19  and  O_27
REMARK                            x       y       z     vdW  Elec       q    Type
REMARK                         _______ _______ _______ _____ _____    ______ ____
ROOT
ATOM      1  C   UNL     1       3.868   3.337  -0.139  0.00  0.00    +0.070 C 
ATOM      2  C   UNL     1       4.438   2.118   0.580  0.00  0.00    +0.110 C 
ATOM      3  C   UNL     1       3.708   0.860   0.195  0.00  0.00    +0.224 C 
ATOM      4  O   UNL     1       4.315  -0.173   0.012  0.00  0.00    -0.275 OA
ATOM      5  N   UNL     1       2.347   0.902   0.054  0.00  0.00    -0.231 N 
ATOM      6  C   UNL     1       1.720   2.138  -0.003  0.00  0.00    +0.087 C 
ATOM      7  C   UNL     1       2.359   3.333  -0.061  0.00  0.00    +0.065 C 
ATOM      8  S   UNL     1      -0.023   1.829   0.012  0.00  0.00    -0.104 S 
ATOM      9  C   UNL     1       0.002  -0.004   0.002  0.00  0.00    +0.136 C 
ATOM     10  C   UNL     1       1.514  -0.286  -0.018  0.00  0.00    +0.175 C 
ENDROOT
BRANCH   1  16
ATOM     11  C   UNL     1       4.140   4.842   1.842  0.00  0.00    +0.006 A 
ATOM     12  C   UNL     1       4.630   5.989   2.437  0.00  0.00    +0.020 A 
ATOM     13  C   UNL     1       5.371   6.891   1.694  0.00  0.00    +0.041 A 
ATOM     14  C   UNL     1       5.625   6.641   0.357  0.00  0.00    +0.020 A 
ATOM     15  C   UNL     1       5.138   5.491  -0.235  0.00  0.00    +0.006 A 
ATOM     16  C   UNL     1       4.398   4.590   0.507  0.00  0.00    -0.039 A 
ATOM     17 CL   UNL     1       5.982   8.335   2.439  0.00  0.00    -0.084 Cl
ENDBRANCH   1  16
BRANCH  10  18
ATOM     18  C   UNL     1       1.846  -1.026  -1.288  0.00  0.00    +0.004 A 
ATOM     19  C   UNL     1       2.250  -0.327  -2.410  0.00  0.00    +0.009 A 
ATOM     20  C   UNL     1       2.560  -1.006  -3.573  0.00  0.00    +0.020 A 
ATOM     21  C   UNL     1       2.455  -2.385  -3.618  0.00  0.00    +0.041 A 
ATOM     22  C   UNL     1       2.045  -3.084  -2.496  0.00  0.00    +0.020 A 
ATOM     23  C   UNL     1       1.741  -2.404  -1.332  0.00  0.00    +0.009 A 
ATOM     24 CL   UNL     1       2.837  -3.238  -5.081  0.00  0.00    -0.084 Cl
ENDBRANCH  10  18
BRANCH   7  25
ATOM     25  C   UNL     1       1.622   4.561  -0.050  0.00  0.00    +0.098 C 
ATOM     26  N   UNL     1       1.037   5.535  -0.040  0.00  0.00    -0.191 NA
ENDBRANCH   7  25
BRANCH  10  27
ATOM     27  O   UNL     1       1.833  -1.131   1.089  0.00  0.00    -0.366 OA
ATOM     28  H   UNL     1       1.393  -1.991   1.067  0.00  0.00    +0.212 HD
ENDBRANCH  10  27
TORSDOF 4
