REMARK  Name = ZINC09642405
REMARK  4 active torsions:
REMARK  status: ('A' for Active; 'I' for Inactive)
REMARK    1  A    between atoms: C_1  and  C_2
REMARK    2  A    between atoms: C_4  and  C_34
REMARK    3  A    between atoms: N_5  and  C_28
REMARK    4  A    between atoms: N_19  and  C_20
REMARK                            x       y       z     vdW  Elec       q    Type
REMARK                         _______ _______ _______ _____ _____    ______ ____
ROOT
ATOM      1  C   UNL     1       2.419   7.416   2.422  0.00  0.00    +0.068 C 
ATOM      2  C   UNL     1       1.323   7.153   1.421  0.00  0.00    +0.072 A 
ATOM      3  C   UNL     1       1.236   5.901   0.775  0.00  0.00    +0.049 A 
ATOM      4  C   UNL     1       1.935   4.715   0.789  0.00  0.00    +0.051 A 
ATOM      5  N   UNL     1       1.340   3.875  -0.076  0.00  0.00    -0.236 N 
ATOM      6  N   UNL     1       0.242   4.506  -0.675  0.00  0.00    -0.163 NA
ATOM      7  C   UNL     1       0.134   5.723  -0.192  0.00  0.00    +0.137 A 
ATOM      8  C   UNL     1      -0.757   6.867  -0.381  0.00  0.00    +0.172 A 
ATOM      9  N   UNL     1      -0.518   7.962   0.316  0.00  0.00    -0.132 NA
ATOM     10  N   UNL     1       0.445   8.084   1.146  0.00  0.00    -0.152 NA
ATOM     11  N   UNL     1      -1.822   6.803  -1.265  0.00  0.00    -0.309 N 
ATOM     12  C   UNL     1      -1.366   6.435  -2.612  0.00  0.00    +0.125 C 
ATOM     13  C   UNL     1      -2.583   6.198  -3.513  0.00  0.00    +0.128 C 
ATOM     14  N   UNL     1      -3.447   7.386  -3.453  0.00  0.00    -0.282 N 
ATOM     15  C   UNL     1      -3.835   7.898  -2.129  0.00  0.00    +0.128 C 
ATOM     16  C   UNL     1      -2.569   8.068  -1.283  0.00  0.00    +0.125 C 
ATOM     17  C   UNL     1      -3.872   7.991  -4.580  0.00  0.00    +0.307 C 
ATOM     18  O   UNL     1      -4.460   9.053  -4.515  0.00  0.00    -0.252 OA
ATOM     19  N   UNL     1      -3.646   7.418  -5.778  0.00  0.00    -0.269 N 
ATOM     20  C   UNL     1       3.151   4.412   1.626  0.00  0.00    +0.066 C 
ATOM     21  H   UNL     1      -3.071   6.639  -5.843  0.00  0.00    +0.156 HD
ENDROOT
BRANCH  19  22
ATOM     22  C   UNL     1      -4.240   7.947  -6.931  0.00  0.00    +0.036 A 
ATOM     23  C   UNL     1      -4.630   9.279  -6.963  0.00  0.00    +0.026 A 
ATOM     24  C   UNL     1      -5.212   9.800  -8.102  0.00  0.00    +0.041 A 
ATOM     25  C   UNL     1      -5.416   8.993  -9.208  0.00  0.00    +0.142 A 
ATOM     26  C   UNL     1      -5.032   7.662  -9.177  0.00  0.00    +0.078 A 
ATOM     27  C   UNL     1      -4.444   7.138  -8.041  0.00  0.00    +0.046 A 
ATOM     28 CL   UNL     1      -5.287   6.653 -10.566  0.00  0.00    -0.081 Cl
ATOM     29  F   UNL     1      -5.990   9.504 -10.320  0.00  0.00    -0.204 F 
ENDBRANCH  19  22
BRANCH   5  30
ATOM     30  C   UNL     1       1.759   2.565  -0.343  0.00  0.00    +0.066 A 
ATOM     31  C   UNL     1       0.822   1.576  -0.612  0.00  0.00    +0.028 A 
ATOM     32  C   UNL     1       1.239   0.286  -0.876  0.00  0.00    +0.002 A 
ATOM     33  C   UNL     1       2.587  -0.021  -0.872  0.00  0.00    +0.000 A 
ATOM     34  C   UNL     1       3.522   0.961  -0.605  0.00  0.00    +0.002 A 
ATOM     35  C   UNL     1       3.112   2.253  -0.340  0.00  0.00    +0.028 A 
ENDBRANCH   5  30
TORSDOF 2
