REMARK  Name = ZINC16613246
REMARK  7 active torsions:
REMARK  status: ('A' for Active; 'I' for Inactive)
REMARK    1  A    between atoms: C_2  and  C_3
REMARK    2  A    between atoms: C_3  and  N_4
REMARK    3  A    between atoms: C_5  and  C_7
REMARK    4  A    between atoms: C_7  and  N_8
REMARK    5  A    between atoms: N_10  and  C_32
REMARK    6  A    between atoms: N_16  and  S_19
REMARK    7  A    between atoms: S_19  and  C_22
REMARK                            x       y       z     vdW  Elec       q    Type
REMARK                         _______ _______ _______ _____ _____    ______ ____
ROOT
ATOM      1  N   UNL     1      -3.132   3.474  -5.197  0.00  0.00    -0.275 N 
ATOM      2  C   UNL     1      -2.037   3.169  -6.126  0.00  0.00    +0.217 C 
ATOM      3  N   UNL     1      -1.256   2.078  -5.499  0.00  0.00    -0.300 N 
ATOM      4  C   UNL     1      -1.510   2.271  -4.056  0.00  0.00    +0.115 C 
ATOM      5  C   UNL     1      -2.846   2.969  -3.979  0.00  0.00    +0.241 C 
ATOM      6  O   UNL     1      -3.544   3.060  -2.991  0.00  0.00    -0.273 OA
ATOM      7  C   UNL     1      -0.419   3.144  -3.444  0.00  0.00    +0.052 C 
ATOM      8  C   UNL     1      -0.727   3.378  -1.961  0.00  0.00    +0.112 C 
ATOM      9  N   UNL     1      -0.914   2.076  -1.306  0.00  0.00    -0.176 NA
ATOM     10  C   UNL     1      -1.890   1.133  -1.870  0.00  0.00    +0.112 C 
ATOM     11  C   UNL     1      -1.576   0.919  -3.350  0.00  0.00    +0.052 C 
ENDROOT
BRANCH   3  12
ATOM     12  C   UNL     1       0.105   2.205  -5.788  0.00  0.00    +0.032 A 
ATOM     13  C   UNL     1       0.534   3.148  -6.714  0.00  0.00    +0.023 A 
ATOM     14  C   UNL     1       1.881   3.275  -6.995  0.00  0.00    +0.002 A 
ATOM     15  C   UNL     1       2.800   2.458  -6.362  0.00  0.00    +0.000 A 
ATOM     16  C   UNL     1       2.376   1.515  -5.444  0.00  0.00    +0.002 A 
ATOM     17  C   UNL     1       1.031   1.386  -5.155  0.00  0.00    +0.023 A 
ENDBRANCH   3  12
BRANCH   9  18
ATOM     18  S   UNL     1      -0.035   1.675   0.039  0.00  0.00    +0.061 S 
ATOM     19  O   UNL     1      -0.003   0.256   0.095  0.00  0.00    -0.153 OA
ATOM     20  O   UNL     1       1.146   2.464   0.002  0.00  0.00    -0.153 OA
BRANCH  18  21
ATOM     21  C   UNL     1      -0.956   2.213   1.442  0.00  0.00    +0.106 A 
ATOM     22  C   UNL     1      -0.750   3.496   1.946  0.00  0.00    +0.029 A 
ATOM     23  C   UNL     1      -1.449   3.945   3.025  0.00  0.00    +0.010 A 
ATOM     24  C   UNL     1      -2.383   3.100   3.649  0.00  0.00    -0.018 A 
ATOM     25  C   UNL     1      -3.118   3.526   4.769  0.00  0.00    +0.008 A 
ATOM     26  C   UNL     1      -4.014   2.680   5.347  0.00  0.00    +0.001 A 
ATOM     27  C   UNL     1      -4.215   1.396   4.845  0.00  0.00    +0.001 A 
ATOM     28  C   UNL     1      -3.522   0.949   3.763  0.00  0.00    +0.008 A 
ATOM     29  C   UNL     1      -2.588   1.794   3.139  0.00  0.00    -0.016 A 
ATOM     30  C   UNL     1      -1.852   1.368   2.019  0.00  0.00    +0.037 A 
ENDBRANCH  18  21
ENDBRANCH   9  18
BRANCH   1  31
ATOM     31  C   UNL     1      -4.350   4.214  -5.541  0.00  0.00    +0.205 C 
BRANCH  31  33
ATOM     32  N   UNL     1      -5.117   6.565  -5.552  0.00  0.00    -0.310 N 
ATOM     33  C   UNL     1      -4.127   5.685  -5.303  0.00  0.00    +0.231 C 
ATOM     34  O   UNL     1      -3.057   6.077  -4.888  0.00  0.00    -0.274 OA
ATOM     35  H   UNL     1      -5.973   6.252  -5.884  0.00  0.00    +0.149 HD
BRANCH  32  36
ATOM     36  C   UNL     1      -4.901   7.996  -5.321  0.00  0.00    +0.131 C 
BRANCH  36  38
ATOM     37  C   UNL     1      -6.708   9.550  -4.792  0.00  0.00    +0.005 C 
ATOM     38  C   UNL     1      -6.153   8.757  -5.674  0.00  0.00    -0.016 C 
ENDBRANCH  36  38
ENDBRANCH  32  36
ENDBRANCH  31  33
ENDBRANCH   1  31
TORSDOF 7
