REMARK  Name = ZINC32615498
REMARK  5 active torsions:
REMARK  status: ('A' for Active; 'I' for Inactive)
REMARK    1  A    between atoms: C_3  and  C_6
REMARK    2  A    between atoms: N_9  and  C_13
REMARK    3  A    between atoms: C_13  and  C_14
REMARK    4  A    between atoms: N_16  and  C_17
REMARK    5  A    between atoms: C_20  and  C_23
REMARK                            x       y       z     vdW  Elec       q    Type
REMARK                         _______ _______ _______ _____ _____    ______ ____
ROOT
ATOM      1  C   UNL     1      -5.572  10.166   0.515  0.00  0.00    +0.139 A 
ATOM      2  C   UNL     1      -5.618   9.426   1.742  0.00  0.00    +0.126 A 
ATOM      3  C   UNL     1      -5.860   8.052   1.600  0.00  0.00    +0.116 A 
ATOM      4  N   UNL     1      -6.026   7.476   0.386  0.00  0.00    -0.276 N 
ATOM      5  C   UNL     1      -5.970   8.237  -0.729  0.00  0.00    +0.350 A 
ATOM      6  O   UNL     1      -6.124   7.720  -1.823  0.00  0.00    -0.244 OA
ATOM      7  N   UNL     1      -5.748   9.545  -0.644  0.00  0.00    -0.188 NA
ATOM      8  S   UNL     1      -5.842   7.488   3.284  0.00  0.00    -0.034 S 
ATOM      9  C   UNL     1      -5.531   9.074   4.047  0.00  0.00    +0.163 A 
ATOM     10  N   UNL     1      -5.465   9.873   3.006  0.00  0.00    -0.221 NA
ATOM     11  N   UNL     1      -5.397   9.382   5.388  0.00  0.00    -0.310 N 
ATOM     12  C   UNL     1      -4.225   8.686   5.979  0.00  0.00    +0.107 C 
ATOM     13  C   UNL     1      -3.922   9.518   7.250  0.00  0.00    +0.020 C 
ATOM     14  C   UNL     1      -4.208  10.967   6.792  0.00  0.00    +0.020 C 
ATOM     15  C   UNL     1      -5.146  10.827   5.578  0.00  0.00    +0.107 C 
ENDROOT
BRANCH   1  18
ATOM     16  C   UNL     1      -5.020  13.732  -0.060  0.00  0.00    +0.042 A 
ATOM     17  C   UNL     1      -5.264  12.437  -0.546  0.00  0.00    +0.051 A 
ATOM     18  C   UNL     1      -5.332  11.615   0.541  0.00  0.00    +0.155 A 
ATOM     19  O   UNL     1      -5.144  12.367   1.645  0.00  0.00    -0.461 OA
ATOM     20  C   UNL     1      -4.949  13.644   1.286  0.00  0.00    +0.196 A 
ENDBRANCH   1  18
BRANCH   4  21
ATOM     21  C   UNL     1      -6.272   6.035   0.281  0.00  0.00    +0.223 C 
BRANCH  21  22
ATOM     22  C   UNL     1      -4.958   5.309   0.158  0.00  0.00    +0.237 C 
ATOM     23  O   UNL     1      -3.918   5.933   0.157  0.00  0.00    -0.274 OA
ATOM     24  N   UNL     1      -4.938   3.966   0.048  0.00  0.00    -0.284 N 
ATOM     25  H   UNL     1      -5.882   3.406  -0.027  0.00  0.00    +0.155 HD
BRANCH  24  26
ATOM     26  C   UNL     1      -3.721   3.286   0.030  0.00  0.00    +0.033 A 
ATOM     27  C   UNL     1      -3.616   2.033   0.627  0.00  0.00    +0.024 A 
ATOM     28  C   UNL     1      -2.416   1.359   0.611  0.00  0.00    +0.015 A 
ATOM     29  C   UNL     1      -1.302   1.934  -0.007  0.00  0.00    +0.037 A 
ATOM     30  C   UNL     1      -1.409   3.194  -0.601  0.00  0.00    +0.015 A 
ATOM     31  C   UNL     1      -2.613   3.861  -0.586  0.00  0.00    +0.024 A 
BRANCH  29  32
ATOM     32  C   UNL     1      -0.013   1.214  -0.026  0.00  0.00    +0.242 C 
ATOM     33  O   UNL     1       0.080   0.120   0.496  0.00  0.00    -0.270 OA
ATOM     34  N   UNL     1       1.059   1.767  -0.627  0.00  0.00    -0.325 N 
ATOM     35  H   UNL     1       2.019   1.231  -0.641  0.00  0.00    +0.145 HD
ATOM     36  H   UNL     1       0.973   2.755  -1.103  0.00  0.00    +0.145 HD
ENDBRANCH  29  32
ENDBRANCH  24  26
ENDBRANCH  21  22
ENDBRANCH   4  21
TORSDOF 5
