REMARK  Name = ZINC16001153
REMARK  5 active torsions:
REMARK  status: ('A' for Active; 'I' for Inactive)
REMARK    1  A    between atoms: C_1  and  O_2
REMARK    2  A    between atoms: O_2  and  C_3
REMARK    3  A    between atoms: C_6  and  N_9
REMARK    4  A    between atoms: C_10  and  C_12
REMARK    5  A    between atoms: N_31  and  C_34
REMARK                            x       y       z     vdW  Elec       q    Type
REMARK                         _______ _______ _______ _____ _____    ______ ____
ROOT
ATOM      1  C   UNL     1       3.106  -4.522   5.545  0.00  0.00    +0.172 C 
ATOM      2  C   UNL     1       4.619  -4.663   5.392  0.00  0.00    +0.119 C 
ATOM      3  C   UNL     1       4.821  -5.832   6.432  0.00  0.00    +0.115 C 
ATOM      4  C   UNL     1       3.796  -6.804   6.024  0.00  0.00    +0.117 C 
ATOM      5  N   UNL     1       2.628  -5.922   5.648  0.00  0.00    -0.316 N 
ATOM      6  C   UNL     1       1.344  -6.394   5.485  0.00  0.00    +0.072 C 
ATOM      7  C   UNL     1       0.962  -7.406   6.286  0.00  0.00    +0.023 C 
ATOM      8  C   UNL     1       1.920  -7.956   7.265  0.00  0.00    -0.019 A 
ATOM      9  C   UNL     1       3.308  -7.687   7.148  0.00  0.00    -0.019 A 
ATOM     10  C   UNL     1       4.194  -8.186   8.076  0.00  0.00    +0.006 A 
ATOM     11  C   UNL     1       3.744  -9.017   9.088  0.00  0.00    +0.000 A 
ATOM     12  C   UNL     1       2.405  -9.355   9.168  0.00  0.00    +0.001 A 
ATOM     13  C   UNL     1       1.470  -8.797   8.284  0.00  0.00    +0.008 A 
ATOM     14  C   UNL     1       6.241  -5.765   6.677  0.00  0.00    +0.232 C 
ATOM     15  O   UNL     1       6.994  -6.686   6.912  0.00  0.00    -0.274 OA
ATOM     16  N   UNL     1       6.557  -4.432   6.586  0.00  0.00    -0.210 N 
ATOM     17  C   UNL     1       5.550  -3.676   6.023  0.00  0.00    +0.232 C 
ATOM     18  O   UNL     1       5.433  -2.470   6.038  0.00  0.00    -0.274 OA
ENDROOT
BRANCH  16  19
ATOM     19  C   UNL     1       7.782  -3.893   7.008  0.00  0.00    +0.048 A 
ATOM     20  C   UNL     1       8.756  -4.721   7.548  0.00  0.00    +0.028 A 
ATOM     21  C   UNL     1       9.962  -4.192   7.964  0.00  0.00    +0.051 A 
ATOM     22  C   UNL     1      10.204  -2.833   7.843  0.00  0.00    +0.166 A 
ATOM     23  C   UNL     1       9.229  -1.999   7.302  0.00  0.00    +0.168 A 
ATOM     24  C   UNL     1       8.022  -2.532   6.880  0.00  0.00    +0.073 A 
ATOM     25  O   UNL     1       9.705  -0.720   7.292  0.00  0.00    -0.453 OA
ATOM     26  C   UNL     1      10.818  -0.717   8.205  0.00  0.00    +0.466 C 
ATOM     27  O   UNL     1      11.292  -2.076   8.172  0.00  0.00    -0.453 OA
ENDBRANCH  16  19
BRANCH   1  29
ATOM     28  N   UNL     1       2.540  -2.503   4.231  0.00  0.00    -0.284 N 
ATOM     29  C   UNL     1       2.513  -3.847   4.335  0.00  0.00    +0.238 C 
ATOM     30  O   UNL     1       2.010  -4.513   3.455  0.00  0.00    -0.273 OA
ATOM     31  H   UNL     1       3.001  -1.975   4.901  0.00  0.00    +0.155 HD
BRANCH  28  35
ATOM     32  C   UNL     1       0.645  -0.621   1.030  0.00  0.00    +0.120 A 
ATOM     33  C   UNL     1       1.262  -1.849   0.845  0.00  0.00    +0.047 A 
ATOM     34  C   UNL     1       1.890  -2.473   1.905  0.00  0.00    +0.027 A 
ATOM     35  C   UNL     1       1.904  -1.871   3.155  0.00  0.00    +0.034 A 
ATOM     36  C   UNL     1       1.286  -0.641   3.340  0.00  0.00    +0.027 A 
ATOM     37  C   UNL     1       0.663  -0.015   2.278  0.00  0.00    +0.047 A 
BRANCH  32  39
ATOM     38  C   UNL     1       0.046  -0.687  -1.271  0.00  0.00    +0.277 C 
ATOM     39  O   UNL     1       0.027  -0.007  -0.014  0.00  0.00    -0.495 OA
ENDBRANCH  32  39
ENDBRANCH  28  35
ENDBRANCH   1  29
TORSDOF 4
