REMARK  Name = ZINC21233349
REMARK  11 active torsions:
REMARK  status: ('A' for Active; 'I' for Inactive)
REMARK    1  A    between atoms: C_1  and  O_2
REMARK    2  A    between atoms: O_2  and  C_3
REMARK    3  A    between atoms: C_6  and  C_10
REMARK    4  A    between atoms: C_8  and  O_9
REMARK    5  A    between atoms: C_15  and  C_20
REMARK    6  A    between atoms: C_22  and  O_30
REMARK    7  A    between atoms: C_23  and  O_28
REMARK    8  A    between atoms: C_24  and  O_26
REMARK    9  A    between atoms: O_26  and  C_27
REMARK   10  A    between atoms: O_28  and  C_29
REMARK   11  A    between atoms: O_30  and  C_31
REMARK                            x       y       z     vdW  Elec       q    Type
REMARK                         _______ _______ _______ _____ _____    ______ ____
ROOT
ATOM      1  C   UNL     1       1.253   3.718   0.008  0.00  0.00    +0.136 C 
ATOM      2  C   UNL     1       1.092   2.216   0.017  0.00  0.00    +0.036 C 
ATOM      3  C   UNL     1      -0.074   1.548   0.022  0.00  0.00    +0.017 C 
ATOM      4  C   UNL     1      -0.092   0.029   0.028  0.00  0.00    +0.059 C 
ATOM      5  C   UNL     1       1.121  -0.504   0.788  0.00  0.00    +0.032 C 
ATOM      6  C   UNL     1       2.379   0.012   0.080  0.00  0.00    +0.088 C 
ATOM      7  C   UNL     1       2.318   1.510   0.029  0.00  0.00    +0.163 C 
ATOM      8  O   UNL     1       3.357   2.138  -0.002  0.00  0.00    -0.292 OA
ATOM      9  N   UNL     1      -1.300   2.132   0.009  0.00  0.00    -0.316 N 
ATOM     10  C   UNL     1      -1.684   3.192   0.821  0.00  0.00    +0.052 A 
ATOM     11  C   UNL     1      -2.711   3.084   1.741  0.00  0.00    +0.025 A 
ATOM     12  C   UNL     1      -3.122   4.209   2.436  0.00  0.00    +0.002 A 
ATOM     13  C   UNL     1      -2.509   5.428   2.213  0.00  0.00    +0.002 A 
ATOM     14  C   UNL     1      -1.466   5.534   1.309  0.00  0.00    +0.025 A 
ATOM     15  C   UNL     1      -1.041   4.406   0.625  0.00  0.00    +0.049 A 
ATOM     16  N   UNL     1       0.034   4.452  -0.260  0.00  0.00    -0.331 N 
ATOM     17  H   UNL     1      -2.075   1.768  -0.680  0.00  0.00    +0.152 HD
ATOM     18  H   UNL     1      -0.053   5.057  -1.174  0.00  0.00    +0.147 HD
ENDROOT
BRANCH   1  22
ATOM     19  C   UNL     1       2.744   4.938   3.826  0.00  0.00    +0.161 A 
ATOM     20  C   UNL     1       1.499   4.337   3.725  0.00  0.00    +0.050 A 
ATOM     21  C   UNL     1       1.020   3.944   2.490  0.00  0.00    +0.009 A 
ATOM     22  C   UNL     1       1.780   4.149   1.353  0.00  0.00    -0.019 A 
ATOM     23  C   UNL     1       3.024   4.743   1.447  0.00  0.00    +0.055 A 
ATOM     24  C   UNL     1       3.508   5.145   2.682  0.00  0.00    +0.159 A 
BRANCH  19  26
ATOM     25  C   UNL     1       2.378   5.081   6.172  0.00  0.00    +0.277 C 
ATOM     26  O   UNL     1       3.217   5.325   5.041  0.00  0.00    -0.491 OA
ENDBRANCH  19  26
BRANCH  24  27
ATOM     27  O   UNL     1       4.730   5.734   2.776  0.00  0.00    -0.503 OA
ATOM     28  H   UNL     1       5.334   5.897   1.871  0.00  0.00    +0.292 HD
ENDBRANCH  24  27
ENDBRANCH   1  22
BRANCH   5  29
ATOM     29  C   UNL     1       1.110  -2.011   0.776  0.00  0.00    -0.036 A 
ATOM     30  C   UNL     1       1.143  -2.691  -0.427  0.00  0.00    +0.053 A 
ATOM     31  C   UNL     1       1.139  -4.077  -0.443  0.00  0.00    +0.165 A 
ATOM     32  C   UNL     1       1.089  -4.783   0.753  0.00  0.00    +0.204 A 
ATOM     33  C   UNL     1       1.050  -4.096   1.961  0.00  0.00    +0.165 A 
ATOM     34  C   UNL     1       1.060  -2.709   1.968  0.00  0.00    +0.053 A 
BRANCH  33  35
ATOM     35  O   UNL     1       1.001  -4.782   3.134  0.00  0.00    -0.491 OA
ATOM     36  C   UNL     1       0.963  -4.011   4.336  0.00  0.00    +0.277 C 
ENDBRANCH  33  35
BRANCH  32  37
ATOM     37  O   UNL     1       1.079  -6.144   0.742  0.00  0.00    -0.488 OA
ATOM     38  C   UNL     1      -0.198  -6.783   0.690  0.00  0.00    +0.277 C 
ENDBRANCH  32  37
BRANCH  31  39
ATOM     39  O   UNL     1       1.177  -4.745  -1.627  0.00  0.00    -0.491 OA
ATOM     40  C   UNL     1       1.228  -3.955  -2.816  0.00  0.00    +0.277 C 
ENDBRANCH  31  39
ENDBRANCH   5  29
TORSDOF 7
