REMARK  Name = ZINC04111254
REMARK  3 active torsions:
REMARK  status: ('A' for Active; 'I' for Inactive)
REMARK    1  A    between atoms: N_9  and  S_12
REMARK    2  A    between atoms: S_12  and  C_15
REMARK    3  A    between atoms: C_24  and  C_26
REMARK                            x       y       z     vdW  Elec       q    Type
REMARK                         _______ _______ _______ _____ _____    ______ ____
ROOT
ATOM      1  S   UNL     1       1.007   9.094  -1.843  0.00  0.00    +0.063 S 
ATOM      2  O   UNL     1       0.274  10.210  -2.329  0.00  0.00    -0.153 OA
ATOM      3  O   UNL     1       1.986   9.212  -0.820  0.00  0.00    -0.153 OA
ENDROOT
BRANCH   1  12
ATOM      4  C   UNL     1      -3.702   2.822  -2.151  0.00  0.00    +0.005 A 
ATOM      5  C   UNL     1      -2.788   1.787  -2.008  0.00  0.00    +0.018 A 
ATOM      6  C   UNL     1      -1.503   2.073  -1.592  0.00  0.00    +0.084 A 
ATOM      7  C   UNL     1      -1.982   4.326  -1.445  0.00  0.00    +0.099 A 
ATOM      8  C   UNL     1      -3.292   4.110  -1.859  0.00  0.00    +0.042 A 
ATOM      9  N   UNL     1      -1.555   5.616  -1.153  0.00  0.00    -0.314 N 
ATOM     10  C   UNL     1      -1.777   6.514  -2.294  0.00  0.00    +0.123 C 
ATOM     11  C   UNL     1      -1.465   7.955  -1.873  0.00  0.00    +0.128 C 
ATOM     12  N   UNL     1      -0.108   7.992  -1.307  0.00  0.00    -0.174 NA
ATOM     13  C   UNL     1       0.233   7.026  -0.252  0.00  0.00    +0.128 C 
ATOM     14  C   UNL     1      -0.146   5.623  -0.736  0.00  0.00    +0.123 C 
ATOM     15  N   UNL     1      -1.064   3.327  -1.302  0.00  0.00    -0.350 N 
ATOM     16  H   UNL     1      -0.102   3.510  -0.994  0.00  0.00    +0.166 HD
ENDBRANCH   1  12
BRANCH   1  17
ATOM     17  C   UNL     1       1.817   8.379  -3.235  0.00  0.00    +0.128 A 
ATOM     18  C   UNL     1       1.517   7.088  -3.616  0.00  0.00    +0.045 A 
ATOM     19  C   UNL     1       2.146   6.522  -4.710  0.00  0.00    +0.020 A 
ATOM     20  C   UNL     1       3.085   7.251  -5.418  0.00  0.00    +0.021 A 
ATOM     21  C   UNL     1       3.392   8.542  -5.036  0.00  0.00    -0.022 A 
ATOM     22  C   UNL     1       2.764   9.120  -3.944  0.00  0.00    +0.066 A 
ATOM     23  N   UNL     1       3.213  10.427  -3.724  0.00  0.00    -0.269 N 
ATOM     24  C   UNL     1       4.220  10.787  -4.726  0.00  0.00    +0.118 C 
ATOM     25  C   UNL     1       4.361   9.545  -5.620  0.00  0.00    +0.056 C 
ATOM     26  C   UNL     1       2.783  11.235  -2.735  0.00  0.00    +0.223 C 
ATOM     27  O   UNL     1       2.073  10.794  -1.856  0.00  0.00    -0.275 OA
ATOM     28 BR   UNL     1       1.726   4.754  -5.234  0.00  0.00    -0.050 Br
BRANCH  26  29
ATOM     29  C   UNL     1       3.184  12.688  -2.721  0.00  0.00    +0.076 C 
ATOM     30  C   UNL     1       3.992  13.186  -1.521  0.00  0.00    +0.013 C 
ATOM     31  C   UNL     1       2.525  13.593  -1.678  0.00  0.00    +0.013 C 
ENDBRANCH  26  29
ENDBRANCH   1  17
TORSDOF 3
