REMARK  Name = ZINC24912901
REMARK  7 active torsions:
REMARK  status: ('A' for Active; 'I' for Inactive)
REMARK    1  A    between atoms: C_3  and  C_8
REMARK    2  A    between atoms: C_8  and  N_9
REMARK    3  A    between atoms: N_12  and  C_15
REMARK    4  A    between atoms: C_15  and  C_16
REMARK    5  A    between atoms: C_16  and  N_17
REMARK    6  A    between atoms: C_22  and  C_33
REMARK    7  A    between atoms: C_25  and  C_28
REMARK                            x       y       z     vdW  Elec       q    Type
REMARK                         _______ _______ _______ _____ _____    ______ ____
ROOT
ATOM      1  N   UNL     1      -0.139   7.502  -2.336  0.00  0.00    -0.330 N 
ATOM      2  C   UNL     1      -0.642   8.193  -3.425  0.00  0.00    +0.128 A 
ATOM      3  C   UNL     1      -0.666   9.605  -3.413  0.00  0.00    +0.041 A 
ATOM      4  C   UNL     1      -0.192  10.349  -2.323  0.00  0.00    +0.015 A 
ATOM      5  C   UNL     1      -0.254  11.714  -2.398  0.00  0.00    +0.033 A 
ATOM      6  C   UNL     1      -0.777  12.324  -3.534  0.00  0.00    +0.144 A 
ATOM      7  N   UNL     1      -1.210  11.622  -4.557  0.00  0.00    -0.242 NA
ATOM      8  C   UNL     1      -1.181  10.291  -4.541  0.00  0.00    +0.084 A 
ATOM      9  C   UNL     1      -1.660   9.517  -5.628  0.00  0.00    +0.027 A 
ATOM     10  C   UNL     1      -1.598   8.139  -5.538  0.00  0.00    +0.123 A 
ATOM     11  N   UNL     1      -1.104   7.532  -4.469  0.00  0.00    -0.239 NA
ATOM     12  H   UNL     1       0.247   8.052  -1.465  0.00  0.00    +0.147 HD
ENDROOT
BRANCH   9  13
ATOM     13  C   UNL     1      -2.218  10.171  -6.835  0.00  0.00    -0.007 A 
ATOM     14  C   UNL     1      -1.778   9.813  -8.107  0.00  0.00    +0.016 A 
ATOM     15  C   UNL     1      -2.314  10.430  -9.184  0.00  0.00    +0.046 A 
ATOM     16  S   UNL     1      -3.468  11.566  -8.435  0.00  0.00    -0.104 S 
ATOM     17  C   UNL     1      -3.171  11.145  -6.726  0.00  0.00    +0.053 A 
ENDBRANCH   9  13
BRANCH   6  18
ATOM     18  C   UNL     1      -0.837  13.828  -3.598  0.00  0.00    +0.434 C 
ATOM     19  F   UNL     1       0.347  14.318  -4.159  0.00  0.00    -0.164 F 
ATOM     20  F   UNL     1      -1.923  14.219  -4.389  0.00  0.00    -0.164 F 
ATOM     21  F   UNL     1      -0.990  14.344  -2.307  0.00  0.00    -0.164 F 
ENDBRANCH   6  18
BRANCH   1  22
ATOM     22  C   UNL     1      -0.119   6.037  -2.344  0.00  0.00    +0.084 C 
BRANCH  22  23
ATOM     23  C   UNL     1       0.483   5.528  -1.033  0.00  0.00    -0.060 C 
BRANCH  23  27
ATOM     24  N   UNL     1      -0.018   1.465   0.010  0.00  0.00    -0.302 NA
ATOM     25  C   UNL     1      -0.799   1.987  -1.120  0.00  0.00    +0.066 C 
ATOM     26  C   UNL     1      -0.862   3.514  -1.031  0.00  0.00    -0.063 C 
ATOM     27  N   UNL     1       0.503   4.059  -1.041  0.00  0.00    +0.382 N 
ATOM     28  C   UNL     1       1.284   3.537   0.089  0.00  0.00    -0.063 C 
ATOM     29  C   UNL     1       1.347   2.010   0.000  0.00  0.00    +0.066 C 
ATOM     30  H   UNL     1       0.992   3.734  -1.971  0.00  0.00    -0.082 HD
BRANCH  24  31
ATOM     31  C   UNL     1       0.002  -0.004   0.002  0.00  0.00    +0.119 C 
BRANCH  31  34
ATOM     32  C   UNL     1      -3.081  -1.249   1.792  0.00  0.00    +0.003 A 
ATOM     33  C   UNL     1      -1.804  -0.775   1.554  0.00  0.00    +0.005 A 
ATOM     34  C   UNL     1      -1.388  -0.527   0.259  0.00  0.00    -0.031 A 
ATOM     35  C   UNL     1      -2.244  -0.763  -0.800  0.00  0.00    +0.043 A 
ATOM     36  C   UNL     1      -3.521  -1.243  -0.563  0.00  0.00    +0.124 A 
ATOM     37  C   UNL     1      -3.938  -1.486   0.735  0.00  0.00    +0.038 A 
ATOM     38  F   UNL     1      -4.358  -1.474  -1.598  0.00  0.00    -0.205 F 
ENDBRANCH  31  34
ENDBRANCH  24  31
ENDBRANCH  23  27
ENDBRANCH  22  23
ENDBRANCH   1  22
TORSDOF 7
