REMARK  Name = ZINC34749458
REMARK  11 active torsions:
REMARK  status: ('A' for Active; 'I' for Inactive)
REMARK    1  A    between atoms: C_1  and  C_2
REMARK    2  A    between atoms: C_2  and  C_3
REMARK    3  A    between atoms: C_4  and  C_34
REMARK    4  A    between atoms: N_10  and  C_30
REMARK    5  A    between atoms: N_16  and  C_19
REMARK    6  A    between atoms: C_19  and  C_20
REMARK    7  A    between atoms: N_22  and  C_23
REMARK    8  A    between atoms: C_28  and  C_29
REMARK    9  A    between atoms: C_30  and  C_31
REMARK   10  A    between atoms: C_31  and  C_32
REMARK   11  A    between atoms: C_31  and  C_33
REMARK                            x       y       z     vdW  Elec       q    Type
REMARK                         _______ _______ _______ _____ _____    ______ ____
ROOT
ATOM      1  C   UNL     1      -0.729  -0.644  -0.576  0.00  0.00    -0.023 A 
ATOM      2  C   UNL     1      -0.733   0.616  -0.116  0.00  0.00    -0.007 A 
ATOM      3  S   UNL     1      -2.126   1.356  -0.948  0.00  0.00    -0.073 S 
ATOM      4  C   UNL     1      -2.663  -0.050  -1.889  0.00  0.00    +0.117 A 
ATOM      5  C   UNL     1      -1.741  -1.052  -1.536  0.00  0.00    +0.076 A 
ATOM      6  C   UNL     1      -1.933  -2.324  -2.163  0.00  0.00    +0.264 A 
ATOM      7  O   UNL     1      -1.186  -3.254  -1.915  0.00  0.00    -0.267 OA
ATOM      8  N   UNL     1      -2.949  -2.478  -3.031  0.00  0.00    -0.280 N 
ATOM      9  C   UNL     1      -3.795  -1.449  -3.322  0.00  0.00    +0.202 A 
ATOM     10  N   UNL     1      -3.648  -0.271  -2.752  0.00  0.00    -0.208 NA
ATOM     11  N   UNL     1      -4.820  -1.646  -4.213  0.00  0.00    -0.304 N 
ATOM     12  C   UNL     1      -4.604  -1.493  -5.661  0.00  0.00    +0.089 C 
ATOM     13  C   UNL     1      -5.693  -0.572  -6.220  0.00  0.00    -0.059 C 
ATOM     14  N   UNL     1      -7.014  -1.101  -5.857  0.00  0.00    +0.387 N 
ATOM     15  C   UNL     1      -7.181  -1.070  -4.398  0.00  0.00    -0.059 C 
ATOM     16  C   UNL     1      -6.164  -2.022  -3.749  0.00  0.00    +0.089 C 
ATOM     17  C   UNL     1       0.213   1.254   0.868  0.00  0.00    +0.052 C 
ATOM     18  H   UNL     1      -7.096  -2.052  -6.184  0.00  0.00    -0.081 HD
ENDROOT
BRANCH   1  20
ATOM     19  C   UNL     1       1.534  -1.550  -1.032  0.00  0.00    +0.009 C 
ATOM     20  C   UNL     1       0.317  -1.623  -0.108  0.00  0.00    +0.033 C 
ENDBRANCH   1  20
BRANCH  14  21
ATOM     21  C   UNL     1      -8.058  -0.280  -6.485  0.00  0.00    +0.019 C 
BRANCH  21  22
ATOM     22  C   UNL     1      -9.408  -0.892  -6.215  0.00  0.00    +0.201 C 
ATOM     23  O   UNL     1      -9.493  -1.911  -5.564  0.00  0.00    -0.278 OA
ATOM     24  N   UNL     1     -10.522  -0.306  -6.698  0.00  0.00    -0.287 N 
ATOM     25  H   UNL     1     -10.450   0.470  -7.276  0.00  0.00    +0.155 HD
BRANCH  24  26
ATOM     26  C   UNL     1     -11.781  -0.817  -6.365  0.00  0.00    +0.036 A 
ATOM     27  C   UNL     1     -11.950  -2.182  -6.172  0.00  0.00    +0.023 A 
ATOM     28  C   UNL     1     -13.194  -2.683  -5.844  0.00  0.00    +0.002 A 
ATOM     29  C   UNL     1     -14.272  -1.827  -5.708  0.00  0.00    +0.000 A 
ATOM     30  C   UNL     1     -14.108  -0.467  -5.900  0.00  0.00    +0.005 A 
ATOM     31  C   UNL     1     -12.864   0.041  -6.222  0.00  0.00    -0.029 A 
ATOM     32  C   UNL     1     -12.684   1.523  -6.425  0.00  0.00    +0.045 C 
ENDBRANCH  24  26
ENDBRANCH  21  22
ENDBRANCH  14  21
BRANCH   8  33
ATOM     33  C   UNL     1      -3.151  -3.778  -3.677  0.00  0.00    +0.131 C 
BRANCH  33  34
ATOM     34  C   UNL     1      -4.174  -4.590  -2.880  0.00  0.00    +0.003 C 
ATOM     35  C   UNL     1      -4.478  -5.894  -3.620  0.00  0.00    +0.009 C 
ATOM     36  C   UNL     1      -3.605  -4.910  -1.496  0.00  0.00    +0.009 C 
ENDBRANCH  33  34
ENDBRANCH   8  33
TORSDOF 6
