REMARK  Name = ZINC16038256
REMARK  3 active torsions:
REMARK  status: ('A' for Active; 'I' for Inactive)
REMARK    1  A    between atoms: C_16  and  C_18
REMARK    2  A    between atoms: C_18  and  C_20
REMARK    3  A    between atoms: N_29  and  C_32
REMARK                            x       y       z     vdW  Elec       q    Type
REMARK                         _______ _______ _______ _____ _____    ______ ____
ROOT
ATOM      1  C   UNL     1       0.280   2.191  -0.361  0.00  0.00    +0.001 A 
ATOM      2  C   UNL     1       1.546   2.740  -0.460  0.00  0.00    +0.000 A 
ATOM      3  C   UNL     1       2.666   1.932  -0.362  0.00  0.00    +0.006 A 
ATOM      4  C   UNL     1       2.521   0.579  -0.164  0.00  0.00    -0.016 A 
ATOM      5  C   UNL     1       1.244   0.013  -0.058  0.00  0.00    -0.000 A 
ATOM      6  C   UNL     1       0.121   0.836  -0.161  0.00  0.00    +0.010 A 
ATOM      7  C   UNL     1       1.085  -1.437   0.171  0.00  0.00    +0.138 C 
ATOM      8  N   UNL     1       2.081  -2.249  -0.071  0.00  0.00    -0.191 NA
ATOM      9  N   UNL     1       3.275  -1.659  -0.524  0.00  0.00    -0.236 N 
ATOM     10  C   UNL     1       3.718  -0.331  -0.063  0.00  0.00    +0.136 C 
ATOM     11  C   UNL     1       4.851   0.127  -0.989  0.00  0.00    +0.116 C 
ATOM     12  C   UNL     1       5.400  -1.205  -1.586  0.00  0.00    +0.119 C 
ATOM     13  C   UNL     1       4.207  -2.169  -1.524  0.00  0.00    +0.177 C 
ATOM     14  C   UNL     1       6.450  -1.596  -0.569  0.00  0.00    +0.232 C 
ATOM     15  O   UNL     1       6.905  -2.709  -0.408  0.00  0.00    -0.274 OA
ATOM     16  N   UNL     1       6.792  -0.498   0.125  0.00  0.00    -0.210 N 
ATOM     17  C   UNL     1       6.014   0.596  -0.127  0.00  0.00    +0.232 C 
ATOM     18  O   UNL     1       6.204   1.732   0.251  0.00  0.00    -0.274 OA
ENDROOT
BRANCH  16  19
ATOM     19  C   UNL     1       7.860  -0.473   1.035  0.00  0.00    +0.048 A 
ATOM     20  C   UNL     1       8.076   0.650   1.821  0.00  0.00    +0.028 A 
ATOM     21  C   UNL     1       9.126   0.677   2.718  0.00  0.00    +0.051 A 
ATOM     22  C   UNL     1       9.968  -0.418   2.836  0.00  0.00    +0.166 A 
ATOM     23  C   UNL     1       9.754  -1.546   2.048  0.00  0.00    +0.168 A 
ATOM     24  C   UNL     1       8.697  -1.574   1.153  0.00  0.00    +0.073 A 
ATOM     25  O   UNL     1      10.708  -2.476   2.349  0.00  0.00    -0.453 OA
ATOM     26  C   UNL     1      11.749  -1.751   3.031  0.00  0.00    +0.466 C 
ATOM     27  O   UNL     1      11.056  -0.641   3.630  0.00  0.00    -0.453 OA
ENDBRANCH  16  19
BRANCH  13  28
ATOM     28  C   UNL     1       4.680  -3.543  -1.126  0.00  0.00    +0.186 C 
ATOM     29  O   UNL     1       4.480  -3.952  -0.002  0.00  0.00    -0.290 OA
BRANCH  28  30
ATOM     30  C   UNL     1       5.385  -4.388  -2.102  0.00  0.00    +0.019 A 
ATOM     31  C   UNL     1       5.623  -3.918  -3.398  0.00  0.00    +0.013 A 
ATOM     32  C   UNL     1       6.284  -4.715  -4.306  0.00  0.00    +0.020 A 
ATOM     33  C   UNL     1       6.713  -5.981  -3.939  0.00  0.00    +0.041 A 
ATOM     34  C   UNL     1       6.481  -6.454  -2.658  0.00  0.00    +0.020 A 
ATOM     35  C   UNL     1       5.826  -5.665  -1.736  0.00  0.00    +0.013 A 
ATOM     36 CL   UNL     1       7.545  -6.979  -5.091  0.00  0.00    -0.084 Cl
ENDBRANCH  28  30
ENDBRANCH  13  28
TORSDOF 3
