REMARK  Name = ZINC64774637
REMARK  10 active torsions:
REMARK  status: ('A' for Active; 'I' for Inactive)
REMARK    1  A    between atoms: C_1  and  C_2
REMARK    2  A    between atoms: C_2  and  C_4
REMARK    3  A    between atoms: C_2  and  S_15
REMARK    4  A    between atoms: N_6  and  C_7
REMARK    5  A    between atoms: S_15  and  C_16
REMARK    6  A    between atoms: C_20  and  C_23
REMARK    7  A    between atoms: C_28  and  N_29
REMARK    8  A    between atoms: C_30  and  C_32
REMARK    9  A    between atoms: C_32  and  C_33
REMARK   10  A    between atoms: C_32  and  C_34
REMARK                            x       y       z     vdW  Elec       q    Type
REMARK                         _______ _______ _______ _____ _____    ______ ____
ROOT
ATOM      1  C   UNL     1       2.907  -0.754  -1.436  0.00  0.00    +0.213 A 
ATOM      2  N   UNL     1       3.927  -0.764  -2.287  0.00  0.00    -0.180 NA
ATOM      3  C   UNL     1       5.077  -0.203  -1.934  0.00  0.00    +0.300 A 
ATOM      4  O   UNL     1       6.133  -0.198  -2.782  0.00  0.00    -0.263 OA
ATOM      5  C   UNL     1       5.174   0.388  -0.661  0.00  0.00    +0.161 A 
ATOM      6  N   UNL     1       4.117   0.363   0.143  0.00  0.00    -0.141 NA
ATOM      7  N   UNL     1       3.019  -0.187  -0.241  0.00  0.00    -0.122 NA
ENDROOT
BRANCH   5   8
ATOM      8  C   UNL     1       6.438   1.026  -0.223  0.00  0.00    +0.029 A 
ATOM      9  C   UNL     1       7.651   0.358  -0.380  0.00  0.00    +0.012 A 
ATOM     10  C   UNL     1       8.825   0.957   0.030  0.00  0.00    +0.001 A 
ATOM     11  C   UNL     1       8.803   2.219   0.597  0.00  0.00    +0.002 A 
ATOM     12  C   UNL     1       7.607   2.891   0.759  0.00  0.00    +0.024 A 
ATOM     13  C   UNL     1       6.419   2.305   0.346  0.00  0.00    +0.043 A 
BRANCH  13  14
ATOM     14  N   UNL     1       5.209   2.986   0.503  0.00  0.00    -0.285 N 
ATOM     15  C   UNL     1       5.059   3.870   1.509  0.00  0.00    +0.220 C 
ATOM     16  O   UNL     1       5.999   4.137   2.227  0.00  0.00    -0.275 OA
ATOM     17  H   UNL     1       4.477   2.822  -0.112  0.00  0.00    +0.155 HD
BRANCH  15  18
ATOM     18  C   UNL     1       3.722   4.527   1.741  0.00  0.00    +0.069 C 
ATOM     19  C   UNL     1       3.823   5.479   2.935  0.00  0.00    +0.017 C 
ATOM     20  C   UNL     1       3.317   5.314   0.494  0.00  0.00    +0.017 C 
ENDBRANCH  15  18
ENDBRANCH  13  14
ENDBRANCH   5   8
BRANCH   1  21
ATOM     21  S   UNL     1       1.380  -1.499  -1.903  0.00  0.00    -0.072 S 
BRANCH  21  23
ATOM     22  C   UNL     1       0.060   0.248  -0.264  0.00  0.00    +0.029 C 
ATOM     23  C   UNL     1       0.310  -1.249  -0.460  0.00  0.00    +0.137 C 
BRANCH  23  24
ATOM     24  C   UNL     1      -1.004  -1.953  -0.681  0.00  0.00    +0.230 C 
ATOM     25  O   UNL     1      -1.353  -2.247  -1.805  0.00  0.00    -0.274 OA
ATOM     26  N   UNL     1      -1.791  -2.256   0.370  0.00  0.00    -0.282 N 
ATOM     27  H   UNL     1      -1.483  -2.082   1.273  0.00  0.00    +0.155 HD
BRANCH  26  28
ATOM     28  C   UNL     1      -3.053  -2.824   0.159  0.00  0.00    +0.072 A 
ATOM     29  C   UNL     1      -3.290  -3.591  -0.974  0.00  0.00    +0.064 A 
ATOM     30  C   UNL     1      -4.538  -4.151  -1.180  0.00  0.00    +0.125 A 
ATOM     31  C   UNL     1      -5.551  -3.947  -0.257  0.00  0.00    +0.041 A 
ATOM     32  C   UNL     1      -5.318  -3.184   0.872  0.00  0.00    +0.043 A 
ATOM     33  C   UNL     1      -4.071  -2.626   1.086  0.00  0.00    +0.145 A 
ATOM     34  F   UNL     1      -3.842  -1.885   2.192  0.00  0.00    -0.204 F 
ATOM     35  F   UNL     1      -4.770  -4.897  -2.282  0.00  0.00    -0.205 F 
ENDBRANCH  26  28
ENDBRANCH  23  24
ENDBRANCH  21  23
ENDBRANCH   1  21
TORSDOF 7
