REMARK  Name = ZINC03429012
REMARK  9 active torsions:
REMARK  status: ('A' for Active; 'I' for Inactive)
REMARK    1  A    between atoms: C_1  and  C_2
REMARK    2  A    between atoms: C_2  and  N_47
REMARK    3  A    between atoms: C_3  and  C_4
REMARK    4  A    between atoms: C_3  and  N_47
REMARK    5  A    between atoms: N_6  and  C_7
REMARK    6  A    between atoms: C_7  and  C_8
REMARK    7  A    between atoms: C_15  and  C_16
REMARK    8  A    between atoms: C_15  and  N_47
REMARK    9  A    between atoms: N_18  and  C_19
REMARK                            x       y       z     vdW  Elec       q    Type
REMARK                         _______ _______ _______ _____ _____    ______ ____
ROOT
ATOM      1  N   UNL     1       3.284   1.930   0.017  0.00  0.00    +0.391 N 
ATOM      2  H   UNL     1       3.083   2.590   0.778  0.00  0.00    -0.080 HD
ENDROOT
BRANCH   1   4
ATOM      3  C   UNL     1       2.079   3.628  -1.264  0.00  0.00    -0.017 C 
ATOM      4  C   UNL     1       3.264   2.659  -1.268  0.00  0.00    -0.081 C 
ENDBRANCH   1   4
BRANCH   1   5
ATOM      5  C   UNL     1       2.253   0.871   0.014  0.00  0.00    +0.019 C 
BRANCH   5   6
ATOM      6  C   UNL     1       1.973   0.466   1.439  0.00  0.00    +0.197 C 
ATOM      7  O   UNL     1       2.636   0.929   2.342  0.00  0.00    -0.278 OA
ATOM      8  N   UNL     1       0.986  -0.411   1.708  0.00  0.00    -0.313 N 
ATOM      9  H   UNL     1       0.456  -0.781   0.986  0.00  0.00    +0.149 HD
BRANCH   8  10
ATOM     10  C   UNL     1       0.710  -0.800   3.093  0.00  0.00    +0.139 C 
BRANCH  10  11
ATOM     11  C   UNL     1      -0.437  -1.778   3.122  0.00  0.00    -0.030 A 
ATOM     12  C   UNL     1      -1.735  -1.317   3.241  0.00  0.00    +0.006 A 
ATOM     13  C   UNL     1      -2.787  -2.213   3.261  0.00  0.00    +0.020 A 
ATOM     14  C   UNL     1      -2.540  -3.572   3.173  0.00  0.00    +0.041 A 
ATOM     15  C   UNL     1      -1.240  -4.032   3.059  0.00  0.00    +0.020 A 
ATOM     16  C   UNL     1      -0.189  -3.135   3.033  0.00  0.00    +0.006 A 
ATOM     17 CL   UNL     1      -3.861  -4.698   3.205  0.00  0.00    -0.084 Cl
ENDBRANCH  10  11
ENDBRANCH   8  10
ENDBRANCH   5   6
ENDBRANCH   1   5
BRANCH   1  18
ATOM     18  C   UNL     1       4.619   1.335   0.239  0.00  0.00    +0.020 C 
BRANCH  18  19
ATOM     19  C   UNL     1       5.616   2.444   0.457  0.00  0.00    +0.201 C 
ATOM     20  O   UNL     1       5.255   3.601   0.414  0.00  0.00    -0.278 OA
ATOM     21  N   UNL     1       6.909   2.150   0.699  0.00  0.00    -0.285 N 
ATOM     22  H   UNL     1       7.186   1.225   0.793  0.00  0.00    +0.155 HD
BRANCH  21  23
ATOM     23  C   UNL     1       7.851   3.179   0.816  0.00  0.00    +0.069 A 
ATOM     24  C   UNL     1       7.489   4.393   1.383  0.00  0.00    +0.027 A 
ATOM     25  C   UNL     1       8.420   5.407   1.497  0.00  0.00    +0.017 A 
ATOM     26  C   UNL     1       9.714   5.215   1.046  0.00  0.00    +0.021 A 
ATOM     27  C   UNL     1      10.080   4.007   0.480  0.00  0.00    +0.055 A 
ATOM     28  C   UNL     1       9.153   2.986   0.368  0.00  0.00    +0.146 A 
ATOM     29  F   UNL     1       9.512   1.804  -0.180  0.00  0.00    -0.204 F 
ATOM     30 BR   UNL     1      10.985   6.606   1.205  0.00  0.00    -0.050 Br
ENDBRANCH  21  23
ENDBRANCH  18  19
ENDBRANCH   1  18
TORSDOF 8
