REMARK  Name = ZINC38989799
REMARK  8 active torsions:
REMARK  status: ('A' for Active; 'I' for Inactive)
REMARK    1  A    between atoms: C_6  and  C_7
REMARK    2  A    between atoms: C_9  and  C_13
REMARK    3  A    between atoms: C_17  and  S_21
REMARK    4  A    between atoms: N_19  and  N_20
REMARK    5  A    between atoms: S_21  and  C_22
REMARK    6  A    between atoms: C_22  and  C_23
REMARK    7  A    between atoms: N_25  and  C_26
REMARK    8  A    between atoms: C_28  and  C_33
REMARK                            x       y       z     vdW  Elec       q    Type
REMARK                         _______ _______ _______ _____ _____    ______ ____
ROOT
ATOM      1  C   UNL     1      -3.260  -3.130  -1.276  0.00  0.00    +0.185 C 
ATOM      2  N   UNL     1      -3.031  -2.312  -2.496  0.00  0.00    -0.234 NA
ATOM      3  N   UNL     1      -3.972  -2.852  -3.481  0.00  0.00    -0.228 NA
ATOM      4  C   UNL     1      -5.061  -3.501  -2.723  0.00  0.00    +0.214 C 
ATOM      5  N   UNL     1      -4.733  -3.339  -1.286  0.00  0.00    -0.197 NA
ATOM      6  H   UNL     1      -3.214  -1.336  -2.318  0.00  0.00    +0.143 HD
ATOM      7  H   UNL     1      -3.516  -3.511  -4.094  0.00  0.00    +0.143 HD
ENDROOT
BRANCH   1  10
ATOM      8  C   UNL     1      -1.247  -0.754  -0.041  0.00  0.00    +0.091 C 
ATOM      9  C   UNL     1      -1.335  -2.098  -0.044  0.00  0.00    +0.034 C 
ATOM     10  C   UNL     1      -2.830  -2.365  -0.023  0.00  0.00    +0.187 C 
ATOM     11  N   UNL     1      -3.412  -1.012  -0.010  0.00  0.00    -0.176 NA
ATOM     12  N   UNL     1      -2.487  -0.198  -0.015  0.00  0.00    -0.154 NA
BRANCH   8  18
ATOM     13  C   UNL     1       0.002   1.404  -0.046  0.00  0.00    +0.013 A 
ATOM     14  C   UNL     1       1.186   2.111  -0.060  0.00  0.00    +0.039 A 
ATOM     15  C   UNL     1       2.397   1.438  -0.086  0.00  0.00    +0.123 A 
ATOM     16  C   UNL     1       2.424   0.053  -0.098  0.00  0.00    +0.039 A 
ATOM     17  C   UNL     1       1.244  -0.662  -0.083  0.00  0.00    +0.013 A 
ATOM     18  C   UNL     1       0.024   0.011  -0.057  0.00  0.00    +0.002 A 
ATOM     19  F   UNL     1       3.554   2.135  -0.101  0.00  0.00    -0.205 F 
ENDBRANCH   8  18
ENDBRANCH   1  10
BRANCH   5  20
ATOM     20  N   UNL     1      -5.096  -4.525  -0.527  0.00  0.00    -0.264 NA
ATOM     21  H   UNL     1      -6.095  -4.667  -0.534  0.00  0.00    +0.137 HD
ATOM     22  H   UNL     1      -4.612  -5.339  -0.876  0.00  0.00    +0.137 HD
ENDBRANCH   5  20
BRANCH   4  23
ATOM     23  S   UNL     1      -6.644  -2.698  -3.098  0.00  0.00    -0.115 S 
BRANCH  23  24
ATOM     24  C   UNL     1      -6.380  -0.966  -2.625  0.00  0.00    +0.168 C 
BRANCH  24  25
ATOM     25  C   UNL     1      -7.636  -0.177  -2.889  0.00  0.00    +0.227 C 
ATOM     26  O   UNL     1      -8.613  -0.728  -3.351  0.00  0.00    -0.275 OA
ATOM     27  N   UNL     1      -7.674   1.142  -2.612  0.00  0.00    -0.284 N 
ATOM     28  H   UNL     1      -6.923   1.566  -2.170  0.00  0.00    +0.155 HD
BRANCH  27  29
ATOM     29  C   UNL     1      -8.798   1.899  -2.964  0.00  0.00    +0.052 A 
ATOM     30  C   UNL     1      -9.619   1.484  -4.004  0.00  0.00    +0.037 A 
ATOM     31  C   UNL     1     -10.728   2.232  -4.348  0.00  0.00    +0.057 A 
ATOM     32  C   UNL     1     -11.021   3.395  -3.658  0.00  0.00    +0.014 A 
ATOM     33  C   UNL     1     -10.205   3.812  -2.622  0.00  0.00    +0.022 A 
ATOM     34  C   UNL     1      -9.098   3.064  -2.269  0.00  0.00    +0.062 A 
ATOM     35 CL   UNL     1      -8.079   3.584  -0.963  0.00  0.00    -0.082 Cl
BRANCH  31  36
ATOM     36  C   UNL     1     -11.619   1.782  -5.476  0.00  0.00    +0.417 C 
ATOM     37  F   UNL     1     -12.626   0.952  -4.972  0.00  0.00    -0.166 F 
ATOM     38  F   UNL     1     -12.198   2.899  -6.088  0.00  0.00    -0.166 F 
ATOM     39  F   UNL     1     -10.861   1.077  -6.417  0.00  0.00    -0.166 F 
ENDBRANCH  31  36
ENDBRANCH  27  29
ENDBRANCH  24  25
ENDBRANCH  23  24
ENDBRANCH   4  23
TORSDOF 8
