REMARK  Name = ZINC36317170
REMARK  5 active torsions:
REMARK  status: ('A' for Active; 'I' for Inactive)
REMARK    1  A    between atoms: C_1  and  C_2
REMARK    2  A    between atoms: C_11  and  N_16
REMARK    3  A    between atoms: N_19  and  C_22
REMARK    4  A    between atoms: C_22  and  C_23
REMARK    5  A    between atoms: C_23  and  O_24
REMARK                            x       y       z     vdW  Elec       q    Type
REMARK                         _______ _______ _______ _____ _____    ______ ____
ROOT
ATOM      1  C   UNL     1      -1.182   1.149   0.216  0.00  0.00    +0.008 C 
ATOM      2  C   UNL     1      -0.896  -0.352   0.145  0.00  0.00    -0.009 C 
ATOM      3  C   UNL     1      -0.045  -0.656  -1.091  0.00  0.00    +0.008 C 
ATOM      4  C   UNL     1       0.036  -2.167  -1.306  0.00  0.00    +0.037 C 
ATOM      5  C   UNL     1       0.505  -2.827  -0.011  0.00  0.00    -0.025 A 
ATOM      6  C   UNL     1       0.414  -2.169   1.166  0.00  0.00    -0.004 A 
ATOM      7  S   UNL     1       1.060  -3.292   2.380  0.00  0.00    -0.073 S 
ATOM      8  C   UNL     1       1.453  -4.639   1.311  0.00  0.00    +0.115 A 
ATOM      9  C   UNL     1       1.064  -4.168   0.032  0.00  0.00    +0.051 A 
ATOM     10  C   UNL     1       1.261  -5.053  -1.067  0.00  0.00    +0.135 A 
ATOM     11  N   UNL     1       1.794  -6.237  -0.770  0.00  0.00    -0.202 NA
ATOM     12  C   UNL     1       2.132  -6.608   0.449  0.00  0.00    +0.225 A 
ATOM     13  N   UNL     1       1.975  -5.831   1.517  0.00  0.00    -0.210 NA
ATOM     14 CL   UNL     1       2.817  -8.188   0.672  0.00  0.00    -0.041 Cl
ATOM     15  C   UNL     1      -0.123  -0.789   1.397  0.00  0.00    +0.046 C 
ENDROOT
BRANCH  10  16
ATOM     16  N   UNL     1       0.920  -4.705  -2.361  0.00  0.00    -0.312 N 
ATOM     17  C   UNL     1       1.924  -4.156  -3.285  0.00  0.00    +0.122 C 
ATOM     18  C   UNL     1       1.875  -4.957  -4.590  0.00  0.00    +0.103 C 
ATOM     19  N   UNL     1       0.498  -4.967  -5.103  0.00  0.00    -0.297 NA
ATOM     20  C   UNL     1      -0.413  -5.647  -4.173  0.00  0.00    +0.103 C 
ATOM     21  C   UNL     1      -0.456  -4.879  -2.852  0.00  0.00    +0.122 C 
BRANCH  19  22
ATOM     22  C   UNL     1       0.438  -5.577  -6.438  0.00  0.00    +0.112 C 
BRANCH  22  23
ATOM     23  C   UNL     1      -0.949  -5.348  -7.042  0.00  0.00    +0.171 C 
BRANCH  23  24
ATOM     24  O   UNL     1      -1.150  -3.950  -7.256  0.00  0.00    -0.394 OA
ATOM     25  H   UNL     1      -2.010  -3.730  -7.638  0.00  0.00    +0.209 HD
ENDBRANCH  23  24
ENDBRANCH  22  23
ENDBRANCH  19  22
ENDBRANCH  10  16
TORSDOF 4
