REMARK  Name = ZINC38053722
REMARK  4 active torsions:
REMARK  status: ('A' for Active; 'I' for Inactive)
REMARK    1  A    between atoms: C_1  and  C_2
REMARK    2  A    between atoms: C_3  and  C_14
REMARK    3  A    between atoms: C_4  and  N_8
REMARK    4  A    between atoms: N_5  and  C_7
REMARK                            x       y       z     vdW  Elec       q    Type
REMARK                         _______ _______ _______ _____ _____    ______ ____
ROOT
ATOM      1  C   UNL     1      -0.018   1.503   0.010  0.00  0.00    +0.068 C 
ATOM      2  C   UNL     1       0.002  -0.004   0.002  0.00  0.00    +0.066 A 
ATOM      3  C   UNL     1       0.008  -0.815  -1.136  0.00  0.00    +0.034 A 
ATOM      4  C   UNL     1       0.027  -2.112  -0.725  0.00  0.00    +0.157 A 
ATOM      5  N   UNL     1       0.034  -2.109   0.633  0.00  0.00    -0.249 N 
ATOM      6  N   UNL     1       0.023  -0.775   1.059  0.00  0.00    -0.175 NA
ATOM      7  C   UNL     1       0.053  -3.291   1.499  0.00  0.00    +0.174 C 
ENDROOT
BRANCH   4   8
ATOM      8  N   UNL     1       0.038  -3.240  -1.549  0.00  0.00    -0.220 N 
ATOM      9  C   UNL     1       0.516  -4.468  -1.219  0.00  0.00    +0.136 A 
ATOM     10  C   UNL     1       0.341  -5.277  -2.290  0.00  0.00    +0.079 A 
ATOM     11  C   UNL     1      -0.259  -4.525  -3.306  0.00  0.00    +0.154 A 
ATOM     12  N   UNL     1      -0.446  -3.308  -2.862  0.00  0.00    -0.172 NA
ATOM     13 CL   UNL     1       0.785  -6.953  -2.388  0.00  0.00    -0.080 Cl
ENDBRANCH   4   8
BRANCH   3  14
ATOM     14  C   UNL     1      -0.006  -0.337  -2.565  0.00  0.00    +0.149 C 
ATOM     15 CL   UNL     1       1.688  -0.124  -3.144  0.00  0.00    -0.120 Cl
ENDBRANCH   3  14
TORSDOF 2
