REMARK  Name = ZINC09469613
REMARK  8 active torsions:
REMARK  status: ('A' for Active; 'I' for Inactive)
REMARK    1  A    between atoms: C_1  and  C_2
REMARK    2  A    between atoms: C_7  and  N_8
REMARK    3  A    between atoms: C_11  and  C_16
REMARK    4  A    between atoms: C_16  and  N_51
REMARK    5  A    between atoms: C_17  and  N_51
REMARK    6  A    between atoms: C_18  and  C_19
REMARK    7  A    between atoms: C_18  and  N_51
REMARK    8  A    between atoms: N_21  and  C_22
REMARK                            x       y       z     vdW  Elec       q    Type
REMARK                         _______ _______ _______ _____ _____    ______ ____
ROOT
ATOM      1  N   UNL     1       0.926   3.374   0.134  0.00  0.00    -0.283 N 
ATOM      2  C   UNL     1       1.021   1.996   0.103  0.00  0.00    +0.224 A 
ATOM      3  N   UNL     1      -0.082   1.251   0.117  0.00  0.00    -0.201 NA
ATOM      4  C   UNL     1       0.009  -0.067   0.087  0.00  0.00    +0.120 A 
ATOM      5  N   UNL     1       1.194  -0.651   0.045  0.00  0.00    -0.202 NA
ATOM      6  C   UNL     1       2.301   0.087   0.031  0.00  0.00    +0.217 A 
ATOM      7  N   UNL     1       2.214   1.413   0.060  0.00  0.00    -0.181 NA
ATOM      8  N   UNL     1       3.538  -0.523  -0.013  0.00  0.00    -0.327 N 
ATOM      9  H   UNL     1       0.057   3.801   0.079  0.00  0.00    +0.155 HD
ATOM     10  H   UNL     1       3.600  -1.491  -0.034  0.00  0.00    +0.145 HD
ATOM     11  H   UNL     1       4.344   0.015  -0.023  0.00  0.00    +0.145 HD
ENDROOT
BRANCH   1  18
ATOM     12  C   UNL     1       0.846   6.044  -0.845  0.00  0.00    +0.045 C 
ATOM     13  C   UNL     1       2.087   5.461  -0.220  0.00  0.00    -0.029 A 
ATOM     14  C   UNL     1       3.230   6.228  -0.109  0.00  0.00    +0.005 A 
ATOM     15  C   UNL     1       4.369   5.694   0.465  0.00  0.00    +0.000 A 
ATOM     16  C   UNL     1       4.368   4.391   0.929  0.00  0.00    +0.002 A 
ATOM     17  C   UNL     1       3.226   3.621   0.825  0.00  0.00    +0.023 A 
ATOM     18  C   UNL     1       2.082   4.153   0.245  0.00  0.00    +0.036 A 
ENDBRANCH   1  18
BRANCH   4  19
ATOM     19  C   UNL     1      -1.243  -0.906   0.102  0.00  0.00    -0.001 C 
BRANCH  19  21
ATOM     20  C   UNL     1      -0.715  -1.982  -2.002  0.00  0.00    -0.095 C 
ATOM     21  N   UNL     1      -1.687  -1.125  -1.290  0.00  0.00    +0.388 N 
ATOM     22  H   UNL     1      -1.745  -0.218  -1.768  0.00  0.00    -0.081 HD
BRANCH  21  23
ATOM     23  C   UNL     1      -3.022  -1.759  -1.301  0.00  0.00    +0.019 C 
BRANCH  23  24
ATOM     24  C   UNL     1      -3.544  -1.769  -2.715  0.00  0.00    +0.201 C 
ATOM     25  O   UNL     1      -2.869  -1.314  -3.614  0.00  0.00    -0.278 OA
ATOM     26  N   UNL     1      -4.761  -2.284  -2.980  0.00  0.00    -0.285 N 
ATOM     27  H   UNL     1      -5.329  -2.586  -2.254  0.00  0.00    +0.155 HD
BRANCH  26  28
ATOM     28  C   UNL     1      -5.207  -2.382  -4.305  0.00  0.00    +0.072 A 
ATOM     29  C   UNL     1      -4.854  -1.410  -5.231  0.00  0.00    +0.029 A 
ATOM     30  C   UNL     1      -5.290  -1.510  -6.538  0.00  0.00    +0.043 A 
ATOM     31  C   UNL     1      -6.087  -2.574  -6.925  0.00  0.00    +0.161 A 
ATOM     32  C   UNL     1      -6.446  -3.545  -6.003  0.00  0.00    +0.195 A 
ATOM     33  C   UNL     1      -6.007  -3.451  -4.692  0.00  0.00    +0.182 A 
ATOM     34  F   UNL     1      -6.356  -4.396  -3.792  0.00  0.00    -0.200 F 
ATOM     35  F   UNL     1      -7.224  -4.582  -6.381  0.00  0.00    -0.199 F 
ATOM     36  F   UNL     1      -6.515  -2.667  -8.203  0.00  0.00    -0.202 F 
ENDBRANCH  26  28
ENDBRANCH  23  24
ENDBRANCH  21  23
ENDBRANCH  19  21
ENDBRANCH   4  19
TORSDOF 6
