REMARK  Name = ZINC06527505
REMARK  7 active torsions:
REMARK  status: ('A' for Active; 'I' for Inactive)
REMARK    1  A    between atoms: C_1  and  C_2
REMARK    2  A    between atoms: C_3  and  C_8
REMARK    3  A    between atoms: N_6  and  C_7
REMARK    4  A    between atoms: C_20  and  O_35
REMARK    5  A    between atoms: C_24  and  C_34
REMARK    6  A    between atoms: C_29  and  C_33
REMARK    7  A    between atoms: C_30  and  O_32
REMARK                            x       y       z     vdW  Elec       q    Type
REMARK                         _______ _______ _______ _____ _____    ______ ____
ROOT
ATOM      1  C   UNL     1       3.487   4.324   3.978  0.00  0.00    +0.013 C 
ATOM      2  C   UNL     1       2.505   4.202   3.096  0.00  0.00    -0.040 C 
ATOM      3  C   UNL     1       1.430   3.114   3.081  0.00  0.00    +0.037 C 
ATOM      4  C   UNL     1       0.918   3.151   1.635  0.00  0.00    +0.005 C 
ATOM      5  C   UNL     1      -0.439   2.559   1.373  0.00  0.00    -0.003 C 
ATOM      6  C   UNL     1      -0.480   1.077   1.749  0.00  0.00    +0.004 C 
ATOM      7  C   UNL     1       0.375   0.285   0.756  0.00  0.00    +0.004 C 
ATOM      8  C   UNL     1      -0.294   0.400  -0.613  0.00  0.00    -0.002 C 
ATOM      9  C   UNL     1       0.348  -0.553  -1.610  0.00  0.00    +0.035 C 
ATOM     10  C   UNL     1       1.754  -0.112  -1.999  0.00  0.00    +0.115 C 
ATOM     11  C   UNL     1       1.737   1.319  -2.530  0.00  0.00    +0.032 C 
ATOM     12  C   UNL     1       1.140   2.269  -1.491  0.00  0.00    +0.010 C 
ATOM     13  C   UNL     1      -0.268   1.845  -1.098  0.00  0.00    -0.026 C 
ATOM     14  C   UNL     1      -0.873   2.795  -0.069  0.00  0.00    -0.001 C 
ATOM     15  C   UNL     1      -0.705   4.247  -0.500  0.00  0.00    +0.005 C 
ATOM     16  C   UNL     1       0.632   4.879  -0.107  0.00  0.00    +0.010 C 
ATOM     17  C   UNL     1       0.874   4.676   1.370  0.00  0.00    +0.001 C 
ATOM     18  C   UNL     1       2.238   5.121   1.907  0.00  0.00    +0.147 C 
ATOM     19  C   UNL     1      -0.213   5.369   2.189  0.00  0.00    +0.014 C 
ATOM     20  C   UNL     1      -1.163   1.913  -2.358  0.00  0.00    +0.012 C 
ENDROOT
BRANCH   1  23
ATOM     21  C   UNL     1       6.251   4.418   5.447  0.00  0.00    +0.066 C 
ATOM     22  C   UNL     1       5.750   5.390   4.411  0.00  0.00    +0.043 A 
ATOM     23  C   UNL     1       4.542   5.341   3.775  0.00  0.00    +0.015 A 
ATOM     24  C   UNL     1       4.486   6.434   2.885  0.00  0.00    +0.142 A 
ATOM     25  N   UNL     1       5.602   7.103   2.995  0.00  0.00    -0.179 NA
ATOM     26  N   UNL     1       6.413   6.467   3.942  0.00  0.00    -0.271 N 
ATOM     27  C   UNL     1       7.751   6.897   4.355  0.00  0.00    +0.172 C 
ENDBRANCH   1  23
BRANCH  18  28
ATOM     28  O   UNL     1       3.243   4.950   0.909  0.00  0.00    -0.387 OA
ATOM     29  H   UNL     1       4.147   5.004   1.248  0.00  0.00    +0.210 HD
ENDBRANCH  18  28
BRANCH  10  30
ATOM     30  O   UNL     1       2.642  -0.216  -0.888  0.00  0.00    -0.392 OA
ATOM     31  H   UNL     1       3.550   0.053  -1.083  0.00  0.00    +0.210 HD
ENDBRANCH  10  30
TORSDOF 3
