REMARK  Name = ZINC36394315
REMARK  3 active torsions:
REMARK  status: ('A' for Active; 'I' for Inactive)
REMARK    1  A    between atoms: C_3  and  C_6
REMARK    2  A    between atoms: C_16  and  C_18
REMARK    3  A    between atoms: N_20  and  C_25
REMARK                            x       y       z     vdW  Elec       q    Type
REMARK                         _______ _______ _______ _____ _____    ______ ____
ROOT
ATOM      1  C   UNL     1       4.738  -0.505   0.505  0.00  0.00    +0.144 C 
ATOM      2  C   UNL     1       3.381  -1.056   0.071  0.00  0.00    -0.012 A 
ATOM      3  C   UNL     1       3.149  -2.409  -0.175  0.00  0.00    +0.013 A 
ATOM      4  C   UNL     1       1.921  -2.825  -0.560  0.00  0.00    +0.046 A 
ATOM      5  S   UNL     1       1.006  -1.291  -0.596  0.00  0.00    -0.101 S 
ATOM      6  C   UNL     1       2.324  -0.215  -0.093  0.00  0.00    -0.003 A 
ATOM      7  C   UNL     1       2.288   1.265   0.108  0.00  0.00    +0.062 C 
ATOM      8  C   UNL     1       3.730   1.792   0.146  0.00  0.00    +0.114 C 
ATOM      9  N   UNL     1       4.537   0.875   0.967  0.00  0.00    -0.285 N 
ATOM     10  C   UNL     1       5.081   1.293   2.127  0.00  0.00    +0.263 C 
ATOM     11  O   UNL     1       4.818   2.400   2.558  0.00  0.00    -0.269 OA
ENDROOT
BRANCH  10  12
ATOM     12  C   UNL     1       5.992   0.414   2.869  0.00  0.00    +0.122 C 
ATOM     13  N   UNL     1       6.397  -0.692   2.326  0.00  0.00    -0.177 NA
ATOM     14  N   UNL     1       7.264  -1.555   3.004  0.00  0.00    -0.188 N 
ATOM     15  C   UNL     1       7.396  -1.476   4.343  0.00  0.00    +0.235 C 
ATOM     16  O   UNL     1       8.146  -2.230   4.926  0.00  0.00    -0.274 OA
ATOM     17  C   UNL     1       6.610  -0.445   5.113  0.00  0.00    +0.104 C 
ATOM     18  C   UNL     1       6.447   0.810   4.248  0.00  0.00    +0.071 C 
BRANCH  14  19
ATOM     19  C   UNL     1       8.031  -2.553   2.255  0.00  0.00    +0.124 C 
ATOM     20  C   UNL     1       8.858  -1.857   1.160  0.00  0.00    +0.049 C 
ATOM     21  C   UNL     1       9.413  -2.909   0.170  0.00  0.00    +0.168 C 
ATOM     22  S   UNL     1       8.165  -4.255   0.268  0.00  0.00    -0.029 S 
ATOM     23  O   UNL     1       7.453  -4.317  -0.961  0.00  0.00    -0.174 OA
ATOM     24  O   UNL     1       8.788  -5.428   0.774  0.00  0.00    -0.174 OA
ATOM     25  C   UNL     1       7.061  -3.554   1.565  0.00  0.00    +0.190 C 
ENDBRANCH  14  19
ENDBRANCH  10  12
BRANCH   1  28
ATOM     26  C   UNL     1       7.462  -1.190  -2.069  0.00  0.00    +0.008 A 
ATOM     27  C   UNL     1       6.712  -1.371  -0.922  0.00  0.00    +0.013 A 
ATOM     28  C   UNL     1       5.691  -0.518  -0.663  0.00  0.00    +0.015 A 
ATOM     29  S   UNL     1       5.766   0.585  -2.065  0.00  0.00    -0.099 S 
ATOM     30  C   UNL     1       7.154  -0.165  -2.901  0.00  0.00    +0.045 A 
ENDBRANCH   1  28
TORSDOF 3
