REMARK  Name = ZINC28049247
REMARK  8 active torsions:
REMARK  status: ('A' for Active; 'I' for Inactive)
REMARK    1  A    between atoms: C_1  and  C_2
REMARK    2  A    between atoms: C_7  and  S_8
REMARK    3  A    between atoms: S_8  and  N_11
REMARK    4  A    between atoms: N_11  and  C_12
REMARK    5  A    between atoms: C_17  and  S_18
REMARK    6  A    between atoms: S_18  and  C_19
REMARK    7  A    between atoms: N_25  and  C_30
REMARK    8  A    between atoms: N_28  and  C_29
REMARK                            x       y       z     vdW  Elec       q    Type
REMARK                         _______ _______ _______ _____ _____    ______ ____
ROOT
ATOM      1  C   UNL     1      -0.570  -2.610   0.073  0.00  0.00    +0.063 A 
ATOM      2  C   UNL     1      -0.684  -1.262   0.374  0.00  0.00    +0.053 A 
ATOM      3  C   UNL     1       0.451  -0.521   0.667  0.00  0.00    +0.071 A 
ATOM      4  C   UNL     1       1.706  -1.132   0.660  0.00  0.00    +0.071 A 
ATOM      5  C   UNL     1       1.820  -2.480   0.358  0.00  0.00    +0.044 A 
ATOM      6  C   UNL     1       0.685  -3.221   0.065  0.00  0.00    +0.033 A 
ATOM      7  N   UNL     1       2.636  -0.145   0.988  0.00  0.00    -0.295 N 
ATOM      8  C   UNL     1       1.976   1.012   1.186  0.00  0.00    +0.330 A 
ATOM      9  O   UNL     1       2.494   2.071   1.487  0.00  0.00    -0.246 OA
ATOM     10  N   UNL     1       0.657   0.819   1.000  0.00  0.00    -0.295 N 
ATOM     11  C   UNL     1      -0.384   1.842   1.121  0.00  0.00    +0.154 C 
ATOM     12  C   UNL     1       4.085  -0.335   1.099  0.00  0.00    +0.154 C 
ENDROOT
BRANCH   1  13
ATOM     13  N   UNL     1      -1.716  -3.360  -0.223  0.00  0.00    -0.215 N 
ATOM     14  H   UNL     1      -1.784  -4.411   0.097  0.00  0.00    +0.174 HD
BRANCH  13  15
ATOM     15  S   UNL     1      -2.968  -2.666  -1.055  0.00  0.00    +0.073 S 
ATOM     16  O   UNL     1      -3.905  -3.702  -1.319  0.00  0.00    -0.150 OA
ATOM     17  O   UNL     1      -3.318  -1.483  -0.350  0.00  0.00    -0.150 OA
BRANCH  15  24
ATOM     18  C   UNL     1      -1.913  -4.556  -3.167  0.00  0.00    +0.046 C 
ATOM     19  C   UNL     1      -1.873  -3.091  -3.519  0.00  0.00    -0.023 A 
ATOM     20  C   UNL     1      -1.380  -2.689  -4.746  0.00  0.00    +0.020 A 
ATOM     21  C   UNL     1      -1.338  -1.344  -5.066  0.00  0.00    +0.018 A 
ATOM     22  C   UNL     1      -1.795  -0.403  -4.161  0.00  0.00    +0.017 A 
ATOM     23  C   UNL     1      -2.293  -0.807  -2.937  0.00  0.00    +0.030 A 
ATOM     24  C   UNL     1      -2.334  -2.151  -2.617  0.00  0.00    +0.111 A 
ATOM     25 BR   UNL     1      -0.657  -0.792  -6.742  0.00  0.00    -0.050 Br
ENDBRANCH  15  24
ENDBRANCH  13  15
ENDBRANCH   1  13
BRANCH   6  26
ATOM     26  S   UNL     1       0.827  -4.935  -0.318  0.00  0.00    -0.120 S 
BRANCH  26  27
ATOM     27  C   UNL     1       2.617  -5.220  -0.397  0.00  0.00    +0.051 C 
ATOM     28  C   UNL     1       3.177  -4.591  -1.675  0.00  0.00    +0.014 C 
ATOM     29  C   UNL     1       4.687  -4.832  -1.742  0.00  0.00    +0.001 C 
ATOM     30  C   UNL     1       4.963  -6.337  -1.750  0.00  0.00    +0.000 C 
ATOM     31  C   UNL     1       4.403  -6.965  -0.472  0.00  0.00    +0.001 C 
ATOM     32  C   UNL     1       2.893  -6.725  -0.405  0.00  0.00    +0.014 C 
ENDBRANCH  26  27
ENDBRANCH   6  26
TORSDOF 5
