REMARK  Name = ZINC38570058
REMARK  16 active torsions:
REMARK  status: ('A' for Active; 'I' for Inactive)
REMARK    1  A    between atoms: CB_1  and  CA_2
REMARK    2  A    between atoms: CA_2  and  C_4
REMARK    3  A    between atoms: CA_2  and  N_7
REMARK    4  A    between atoms: C_8  and  C_10
REMARK    5  A    between atoms: C_13  and  C_16
REMARK    6  A    between atoms: C_16  and  N_17
REMARK    7  A    between atoms: C_18  and  C_20
REMARK    8  A    between atoms: C_20  and  C_22
REMARK    9  A    between atoms: C_20  and  N_25
REMARK   10  A    between atoms: C_22  and  C_23
REMARK   11  A    between atoms: C_22  and  C_24
REMARK   12  A    between atoms: C_26  and  O_28
REMARK   13  A    between atoms: O_28  and  C_29
REMARK   14  A    between atoms: C_29  and  C_30
REMARK   15  A    between atoms: C_29  and  C_31
REMARK   16  A    between atoms: C_29  and  C_32
REMARK                            x       y       z     vdW  Elec       q    Type
REMARK                         _______ _______ _______ _____ _____    ______ ____
ROOT
ATOM      1  N   UNK A   0       6.474   2.632   2.594  0.00  0.00    -0.314 N 
ATOM      2  C   UNK A   0       7.123   3.752   2.219  0.00  0.00    +0.234 C 
ATOM      3  O   UNK A   0       6.496   4.755   1.950  0.00  0.00    -0.274 OA
ATOM      4  H   UNK A   0       6.969   1.810   2.738  0.00  0.00    +0.149 HD
ENDROOT
BRANCH   1   5
ATOM      5  C   UNK A   0       5.022   2.656   2.785  0.00  0.00    +0.107 C 
BRANCH   5   9
ATOM      6  C   UNK A   0       2.805  -1.060   2.809  0.00  0.00    +0.075 C 
ATOM      7  C   UNK A   0       2.563  -0.068   3.949  0.00  0.00    +0.013 C 
ATOM      8  C   UNK A   0       3.045   1.321   3.527  0.00  0.00    +0.006 C 
ATOM      9  C   UNK A   0       4.540   1.267   3.207  0.00  0.00    +0.006 C 
ATOM     10  C   UNK A   0       4.782   0.275   2.068  0.00  0.00    +0.006 C 
ATOM     11  C   UNK A   0       4.300  -1.114   2.490  0.00  0.00    +0.013 C 
BRANCH   6  13
ATOM     12  N   ALA A   1       0.704  -0.494   1.633  0.00  0.00    -0.302 N 
ATOM     13  C   UNK A   0       2.045  -0.615   1.586  0.00  0.00    +0.217 C 
ATOM     14  O   UNK A   0       2.641  -0.366   0.560  0.00  0.00    -0.275 OA
ATOM     15  H   ALA A   1       0.227  -0.694   2.454  0.00  0.00    +0.150 HD
BRANCH  12  17
ATOM     16  CB  ALA A   1      -0.046   1.467   0.379  0.00  0.00    +0.040 C 
ATOM     17  CA  ALA A   1      -0.035  -0.061   0.444  0.00  0.00    +0.183 C 
BRANCH  17  18
ATOM     18  C   ALA A   1      -1.451  -0.571   0.519  0.00  0.00    +0.376 C 
ATOM     19  O   ALA A   1      -2.063  -0.823  -0.505  0.00  0.00    -0.244 OA
ATOM     20  OXT ALA A   1      -1.984  -0.732   1.603  0.00  0.00    -0.244 OA
ENDBRANCH  17  18
ENDBRANCH  12  17
ENDBRANCH   6  13
ENDBRANCH   5   9
ENDBRANCH   1   5
BRANCH   2  21
ATOM     21  C   UNK A   0       8.627   3.759   2.134  0.00  0.00    +0.165 C 
BRANCH  21  22
ATOM     22  N   UNK A   0       9.126   5.111   2.396  0.00  0.00    -0.270 N 
ATOM     23  C   UNK A   0      10.376   5.289   2.867  0.00  0.00    +0.401 C 
ATOM     24  O   UNK A   0      11.089   4.328   3.075  0.00  0.00    -0.226 OA
ATOM     25  H   UNK A   0       8.556   5.878   2.229  0.00  0.00    +0.153 HD
BRANCH  23  26
ATOM     26  O   UNK A   0      10.834   6.532   3.108  0.00  0.00    -0.445 OA
BRANCH  26  27
ATOM     27  C   UNK A   0      12.168   6.647   3.607  0.00  0.00    +0.107 C 
ATOM     28  C   UNK A   0      13.143   6.038   2.599  0.00  0.00    +0.055 C 
ATOM     29  C   UNK A   0      12.508   8.124   3.818  0.00  0.00    +0.055 C 
ATOM     30  C   UNK A   0      12.280   5.903   4.939  0.00  0.00    +0.055 C 
ENDBRANCH  26  27
ENDBRANCH  23  26
ENDBRANCH  21  22
BRANCH  21  31
ATOM     31  C   UNK A   0       9.061   3.317   0.734  0.00  0.00    +0.012 C 
ATOM     32  C   UNK A   0      10.587   3.229   0.677  0.00  0.00    +0.009 C 
ATOM     33  C   UNK A   0       8.459   1.946   0.422  0.00  0.00    +0.009 C 
ENDBRANCH  21  31
ENDBRANCH   2  21
TORSDOF 10
