REMARK  Name = ZINC59410866
REMARK  6 active torsions:
REMARK  status: ('A' for Active; 'I' for Inactive)
REMARK    1  A    between atoms: C_6  and  N_7
REMARK    2  A    between atoms: N_7  and  S_8
REMARK    3  A    between atoms: S_8  and  C_11
REMARK    4  A    between atoms: C_14  and  N_17
REMARK    5  A    between atoms: C_18  and  C_20
REMARK    6  A    between atoms: C_26  and  C_28
REMARK                            x       y       z     vdW  Elec       q    Type
REMARK                         _______ _______ _______ _____ _____    ______ ____
ROOT
ATOM      1  C   UNL     1      -0.128  -3.231  -0.387  0.00  0.00    +0.109 A 
ATOM      2  C   UNL     1       1.161  -3.265  -0.888  0.00  0.00    +0.030 A 
ATOM      3  C   UNL     1       2.065  -4.192  -0.409  0.00  0.00    +0.025 A 
ATOM      4  C   UNL     1       1.680  -5.090   0.578  0.00  0.00    +0.034 A 
ATOM      5  C   UNL     1       0.385  -5.052   1.080  0.00  0.00    +0.025 A 
ATOM      6  C   UNL     1      -0.513  -4.120   0.599  0.00  0.00    +0.030 A 
ENDROOT
BRANCH   4   7
ATOM      7  N   UNL     1       2.594  -6.030   1.066  0.00  0.00    -0.285 N 
ATOM      8  C   UNL     1       3.902  -5.719   1.147  0.00  0.00    +0.221 C 
ATOM      9  O   UNL     1       4.276  -4.595   0.888  0.00  0.00    -0.275 OA
ATOM     10  H   UNL     1       2.285  -6.907   1.345  0.00  0.00    +0.155 HD
BRANCH   8  11
ATOM     11  C   UNL     1       4.902  -6.768   1.561  0.00  0.00    +0.089 C 
ATOM     12  C   UNL     1       4.860  -7.932   0.569  0.00  0.00    +0.013 C 
ATOM     13  C   UNL     1       5.207  -7.422  -0.831  0.00  0.00    +0.001 C 
ATOM     14  C   UNL     1       6.610  -6.812  -0.819  0.00  0.00    +0.001 C 
ATOM     15  C   UNL     1       6.652  -5.648   0.173  0.00  0.00    +0.015 C 
ATOM     16  C   UNL     1       6.306  -6.159   1.573  0.00  0.00    +0.114 C 
BRANCH  16  17
ATOM     17  C   UNL     1       6.347  -5.012   2.550  0.00  0.00    +0.360 C 
ATOM     18  O   UNL     1       7.324  -4.852   3.262  0.00  0.00    -0.246 OA
ATOM     19  O   UNL     1       5.403  -4.245   2.630  0.00  0.00    -0.246 OA
ENDBRANCH  16  17
ENDBRANCH   8  11
ENDBRANCH   4   7
BRANCH   1  20
ATOM     20  S   UNL     1      -1.278  -2.046  -1.002  0.00  0.00    +0.072 S 
ATOM     21  O   UNL     1      -2.572  -2.513  -0.643  0.00  0.00    -0.150 OA
ATOM     22  O   UNL     1      -0.910  -1.784  -2.349  0.00  0.00    -0.150 OA
BRANCH  20  23
ATOM     23  N   UNL     1      -1.032  -0.641  -0.161  0.00  0.00    -0.216 N 
ATOM     24  H   UNL     1      -0.757   0.162  -0.629  0.00  0.00    +0.174 HD
BRANCH  23  30
ATOM     25  C   UNL     1      -0.273  -0.011   2.042  0.00  0.00    +0.027 A 
ATOM     26  C   UNL     1      -0.461   0.016   3.411  0.00  0.00    +0.040 A 
ATOM     27  C   UNL     1      -1.592  -0.557   3.966  0.00  0.00    +0.124 A 
ATOM     28  C   UNL     1      -2.537  -1.159   3.153  0.00  0.00    +0.040 A 
ATOM     29  C   UNL     1      -2.353  -1.189   1.784  0.00  0.00    +0.027 A 
ATOM     30  C   UNL     1      -1.219  -0.613   1.224  0.00  0.00    +0.048 A 
ATOM     31  F   UNL     1      -1.774  -0.530   5.305  0.00  0.00    -0.205 F 
ENDBRANCH  23  30
ENDBRANCH  20  23
ENDBRANCH   1  20
TORSDOF 6
