REMARK  Name = ZINC08873322
REMARK  5 active torsions:
REMARK  status: ('A' for Active; 'I' for Inactive)
REMARK    1  A    between atoms: C_4  and  C_7
REMARK    2  A    between atoms: C_10  and  C_20
REMARK    3  A    between atoms: N_13  and  C_14
REMARK    4  A    between atoms: N_25  and  C_28
REMARK    5  A    between atoms: C_31  and  C_33
REMARK                            x       y       z     vdW  Elec       q    Type
REMARK                         _______ _______ _______ _____ _____    ______ ____
ROOT
ATOM      1  C   UNL     1      -4.890   2.871   1.585  0.00  0.00    +0.247 C 
ATOM      2  O   UNL     1      -5.823   2.133   1.349  0.00  0.00    -0.273 OA
ATOM      3  N   UNL     1      -3.771   2.801   0.837  0.00  0.00    -0.296 N 
ATOM      4  C   UNL     1      -3.660   1.838  -0.269  0.00  0.00    +0.127 C 
ATOM      5  C   UNL     1      -2.355   1.052  -0.101  0.00  0.00    +0.125 C 
ATOM      6  N   UNL     1      -1.233   1.992   0.019  0.00  0.00    -0.313 N 
ATOM      7  C   UNL     1      -1.363   2.828   1.220  0.00  0.00    +0.125 C 
ATOM      8  C   UNL     1      -2.627   3.686   1.106  0.00  0.00    +0.127 C 
ENDROOT
BRANCH   6   9
ATOM      9  C   UNL     1      -0.016   1.319   0.009  0.00  0.00    +0.118 A 
ATOM     10  C   UNL     1       0.882   1.532  -1.033  0.00  0.00    +0.079 A 
ATOM     11  C   UNL     1       2.087   0.852  -1.032  0.00  0.00    +0.037 A 
ATOM     12  C   UNL     1       2.354  -0.021   0.014  0.00  0.00    +0.072 A 
ATOM     13  C   UNL     1       1.418  -0.184   1.015  0.00  0.00    +0.096 A 
ATOM     14 CL   UNL     1       0.495   2.635  -2.317  0.00  0.00    -0.080 Cl
ATOM     15  N   UNL     1       0.224   0.468   1.047  0.00  0.00    -0.348 N 
ATOM     16  H   UNL     1      -0.454   0.327   1.806  0.00  0.00    +0.167 HD
BRANCH  12  17
ATOM     17  C   UNL     1       3.654  -0.783   0.057  0.00  0.00    +0.419 C 
ATOM     18  F   UNL     1       3.684  -1.589   1.200  0.00  0.00    -0.166 F 
ATOM     19  F   UNL     1       3.761  -1.587  -1.083  0.00  0.00    -0.166 F 
ATOM     20  F   UNL     1       4.722   0.119   0.094  0.00  0.00    -0.166 F 
ENDBRANCH  12  17
ENDBRANCH   6   9
BRANCH   1  23
ATOM     21  C   UNL     1      -4.834   3.288   5.080  0.00  0.00    +0.145 C 
ATOM     22  C   UNL     1      -3.967   3.509   3.817  0.00  0.00    +0.076 C 
ATOM     23  C   UNL     1      -4.982   3.865   2.713  0.00  0.00    +0.236 C 
ATOM     24  O   UNL     1      -6.285   3.802   3.323  0.00  0.00    -0.258 OA
ATOM     25  N   UNL     1      -6.077   4.043   4.765  0.00  0.00    -0.244 N 
BRANCH  21  29
ATOM     26  C   UNL     1      -2.912   4.912   8.532  0.00  0.00    +0.000 A 
ATOM     27  C   UNL     1      -2.938   3.544   8.334  0.00  0.00    +0.000 A 
ATOM     28  C   UNL     1      -3.560   3.019   7.217  0.00  0.00    +0.006 A 
ATOM     29  C   UNL     1      -4.156   3.861   6.298  0.00  0.00    -0.023 A 
ATOM     30  C   UNL     1      -4.126   5.229   6.493  0.00  0.00    +0.006 A 
ATOM     31  C   UNL     1      -3.509   5.754   7.613  0.00  0.00    +0.000 A 
ENDBRANCH  21  29
BRANCH  25  32
ATOM     32  C   UNL     1      -7.156   3.566   5.513  0.00  0.00    +0.065 A 
ATOM     33  C   UNL     1      -7.201   3.780   6.885  0.00  0.00    +0.028 A 
ATOM     34  C   UNL     1      -8.272   3.311   7.620  0.00  0.00    +0.002 A 
ATOM     35  C   UNL     1      -9.292   2.618   6.995  0.00  0.00    +0.000 A 
ATOM     36  C   UNL     1      -9.248   2.399   5.630  0.00  0.00    +0.002 A 
ATOM     37  C   UNL     1      -8.183   2.870   4.888  0.00  0.00    +0.028 A 
ENDBRANCH  25  32
ENDBRANCH   1  23
TORSDOF 5
