REMARK  Name = ZINC09377812
REMARK  11 active torsions:
REMARK  status: ('A' for Active; 'I' for Inactive)
REMARK    1  A    between atoms: C_1  and  C_2
REMARK    2  A    between atoms: C_5  and  O_31
REMARK    3  A    between atoms: C_6  and  N_8
REMARK    4  A    between atoms: C_9  and  C_11
REMARK    5  A    between atoms: C_11  and  C_13
REMARK    6  A    between atoms: C_11  and  N_56
REMARK    7  A    between atoms: C_19  and  C_20
REMARK    8  A    between atoms: C_19  and  N_56
REMARK    9  A    between atoms: C_23  and  C_25
REMARK   10  A    between atoms: C_28  and  C_30
REMARK   11  A    between atoms: O_31  and  C_32
REMARK                            x       y       z     vdW  Elec       q    Type
REMARK                         _______ _______ _______ _____ _____    ______ ____
ROOT
ATOM      1  C   UNL     1      -0.010   0.011  -0.002  0.00  0.00    +0.048 C 
ENDROOT
BRANCH   1   2
ATOM      2  C   UNL     1      -0.032   1.518  -0.004  0.00  0.00    -0.053 A 
ATOM      3  C   UNL     1      -1.240   2.191  -0.005  0.00  0.00    +0.002 A 
ATOM      4  C   UNL     1      -1.260   3.574  -0.003  0.00  0.00    +0.000 A 
ATOM      5  C   UNL     1      -0.074   4.283  -0.008  0.00  0.00    +0.000 A 
ATOM      6  C   UNL     1       1.134   3.609  -0.012  0.00  0.00    +0.000 A 
ATOM      7  C   UNL     1       1.154   2.227  -0.011  0.00  0.00    +0.002 A 
ENDBRANCH   1   2
BRANCH   1   9
ATOM      8  N   UNL     1       0.586  -0.160  -2.397  0.00  0.00    -0.284 N 
ATOM      9  C   UNL     1      -0.256  -0.497  -1.399  0.00  0.00    +0.208 C 
ATOM     10  O   UNL     1      -1.211  -1.209  -1.627  0.00  0.00    -0.277 OA
ATOM     11  H   UNL     1       1.313   0.461  -2.229  0.00  0.00    +0.155 HD
BRANCH   8  17
ATOM     12  C   UNL     1      -2.421  -1.780  -5.933  0.00  0.00    +0.044 C 
ATOM     13  C   UNL     1      -1.034  -1.502  -5.415  0.00  0.00    -0.048 A 
ATOM     14  C   UNL     1       0.067  -1.785  -6.203  0.00  0.00    +0.007 A 
ATOM     15  C   UNL     1       1.342  -1.532  -5.733  0.00  0.00    +0.048 A 
ATOM     16  C   UNL     1       1.520  -0.987  -4.471  0.00  0.00    +0.141 A 
ATOM     17  C   UNL     1       0.412  -0.706  -3.675  0.00  0.00    +0.076 A 
ATOM     18  C   UNL     1      -0.865  -0.963  -4.154  0.00  0.00    +0.030 A 
BRANCH  16  19
ATOM     19  O   UNL     1       2.773  -0.732  -4.010  0.00  0.00    -0.493 OA
ATOM     20  C   UNL     1       3.862  -1.046  -4.881  0.00  0.00    +0.277 C 
ENDBRANCH  16  19
ENDBRANCH   8  17
ENDBRANCH   1   9
BRANCH   1  21
ATOM     21  N   UNL     1      -1.069  -0.496   0.891  0.00  0.00    +0.392 N 
ATOM     22  H   UNL     1      -1.341  -1.440   0.592  0.00  0.00    -0.084 HD
ATOM     23  H   UNL     1      -1.883   0.127   0.838  0.00  0.00    -0.084 HD
BRANCH  21  24
ATOM     24  C   UNL     1      -0.584  -0.547   2.283  0.00  0.00    -0.038 C 
BRANCH  24  25
ATOM     25  C   UNL     1      -1.685  -1.067   3.170  0.00  0.00    -0.027 A 
ATOM     26  C   UNL     1      -1.970  -2.349   3.513  0.00  0.00    +0.010 A 
ATOM     27  C   UNL     1      -3.036  -2.599   4.352  0.00  0.00    +0.018 A 
ATOM     28  C   UNL     1      -3.780  -1.542   4.803  0.00  0.00    +0.038 A 
ATOM     29  S   UNL     1      -2.955  -0.158   4.035  0.00  0.00    -0.094 S 
BRANCH  28  30
ATOM     30  C   UNL     1      -4.959  -1.546   5.696  0.00  0.00    +0.085 A 
ATOM     31  C   UNL     1      -5.582  -0.378   6.051  0.00  0.00    +0.075 A 
ATOM     32  S   UNL     1      -6.887  -1.005   7.097  0.00  0.00    -0.080 S 
ATOM     33  C   UNL     1      -6.489  -2.691   6.974  0.00  0.00    +0.076 A 
ATOM     34  N   UNL     1      -5.444  -2.678   6.183  0.00  0.00    -0.244 NA
ATOM     35  C   UNL     1      -7.173  -3.871   7.616  0.00  0.00    +0.073 C 
ENDBRANCH  28  30
ENDBRANCH  24  25
ENDBRANCH  21  24
ENDBRANCH   1  21
TORSDOF 8
