REMARK  Name = ZINC34748875
REMARK  6 active torsions:
REMARK  status: ('A' for Active; 'I' for Inactive)
REMARK    1  A    between atoms: C_1  and  C_2
REMARK    2  A    between atoms: C_3  and  C_29
REMARK    3  A    between atoms: N_9  and  C_28
REMARK    4  A    between atoms: N_15  and  C_18
REMARK    5  A    between atoms: C_18  and  C_19
REMARK    6  A    between atoms: N_21  and  C_22
REMARK                            x       y       z     vdW  Elec       q    Type
REMARK                         _______ _______ _______ _____ _____    ______ ____
ROOT
ATOM      1  C   UNL     1      -0.961   0.697  -0.629  0.00  0.00    +0.045 C 
ATOM      2  C   UNL     1       0.220   0.200   0.165  0.00  0.00    -0.026 A 
ATOM      3  C   UNL     1       1.459   0.621  -0.128  0.00  0.00    -0.008 A 
ATOM      4  S   UNL     1       2.477  -0.230   1.063  0.00  0.00    -0.073 S 
ATOM      5  C   UNL     1       1.208  -1.127   1.919  0.00  0.00    +0.117 A 
ATOM      6  C   UNL     1       0.028  -0.735   1.260  0.00  0.00    +0.075 A 
ATOM      7  C   UNL     1      -1.183  -1.313   1.755  0.00  0.00    +0.264 A 
ATOM      8  O   UNL     1      -2.254  -1.036   1.243  0.00  0.00    -0.267 OA
ATOM      9  N   UNL     1      -1.124  -2.167   2.793  0.00  0.00    -0.283 N 
ATOM     10  C   UNL     1       0.065  -2.489   3.379  0.00  0.00    +0.202 A 
ATOM     11  N   UNL     1       1.196  -1.980   2.937  0.00  0.00    -0.208 NA
ATOM     12  N   UNL     1       0.084  -3.364   4.436  0.00  0.00    -0.304 N 
ATOM     13  C   UNL     1      -0.022  -2.880   5.821  0.00  0.00    +0.089 C 
ATOM     14  C   UNL     1       1.113  -3.502   6.641  0.00  0.00    -0.059 C 
ATOM     15  N   UNL     1       1.069  -4.963   6.506  0.00  0.00    +0.387 N 
ATOM     16  C   UNL     1       1.333  -5.345   5.113  0.00  0.00    -0.059 C 
ATOM     17  C   UNL     1       0.204  -4.814   4.216  0.00  0.00    +0.089 C 
ATOM     18  C   UNL     1      -2.361  -2.763   3.305  0.00  0.00    +0.155 C 
ATOM     19  C   UNL     1       1.889   1.583  -1.205  0.00  0.00    +0.052 C 
ATOM     20  H   UNL     1       0.156  -5.298   6.777  0.00  0.00    -0.081 HD
ENDROOT
BRANCH  15  21
ATOM     21  C   UNL     1       2.086  -5.565   7.378  0.00  0.00    +0.019 C 
BRANCH  21  22
ATOM     22  C   UNL     1       1.962  -7.066   7.334  0.00  0.00    +0.197 C 
ATOM     23  O   UNL     1       1.109  -7.584   6.644  0.00  0.00    -0.278 OA
ATOM     24  N   UNL     1       2.798  -7.833   8.061  0.00  0.00    -0.314 N 
ATOM     25  H   UNL     1       3.479  -7.420   8.613  0.00  0.00    +0.149 HD
BRANCH  24  26
ATOM     26  C   UNL     1       2.676  -9.293   8.018  0.00  0.00    +0.073 C 
ATOM     27  C   UNL     1       1.619  -9.747   9.026  0.00  0.00    +0.022 C 
ATOM     28  C   UNL     1       1.492 -11.271   8.981  0.00  0.00    +0.002 C 
ATOM     29  C   UNL     1       2.839 -11.905   9.335  0.00  0.00    +0.000 C 
ATOM     30  C   UNL     1       3.896 -11.451   8.327  0.00  0.00    +0.002 C 
ATOM     31  C   UNL     1       4.023  -9.927   8.372  0.00  0.00    +0.022 C 
ENDBRANCH  24  26
ENDBRANCH  21  22
ENDBRANCH  15  21
TORSDOF 3
