REMARK  Name = ZINC66814191
REMARK  3 active torsions:
REMARK  status: ('A' for Active; 'I' for Inactive)
REMARK    1  A    between atoms: C_5  and  C_7
REMARK    2  A    between atoms: C_17  and  S_19
REMARK    3  A    between atoms: S_19  and  N_22
REMARK                            x       y       z     vdW  Elec       q    Type
REMARK                         _______ _______ _______ _____ _____    ______ ____
ROOT
ATOM      1  C   UNL     1       1.228  -2.186  -0.022  0.00  0.00    +0.168 C 
ATOM      2  C   UNL     1       1.372  -2.705   1.413  0.00  0.00    +0.143 C 
ATOM      3  N   UNL     1       1.201  -4.166   1.398  0.00  0.00    -0.305 N 
ATOM      4  C   UNL     1       0.021  -4.718   0.714  0.00  0.00    +0.135 C 
ATOM      5  C   UNL     1      -0.057  -4.101  -0.687  0.00  0.00    +0.179 C 
ATOM      6  O   UNL     1       0.007  -2.677  -0.580  0.00  0.00    -0.369 OA
ATOM      7  C   UNL     1       2.125  -4.999   2.010  0.00  0.00    +0.163 A 
ATOM      8  N   UNL     1       3.220  -4.668   2.662  0.00  0.00    -0.231 NA
ATOM      9  C   UNL     1       4.003  -5.590   3.193  0.00  0.00    +0.149 A 
ATOM     10  C   UNL     1       3.627  -6.882   3.035  0.00  0.00    +0.163 A 
ATOM     11  S   UNL     1       2.116  -6.679   2.106  0.00  0.00    -0.032 S 
ENDROOT
BRANCH   1  16
ATOM     12  C   UNL     1      -0.017   1.378   0.010  0.00  0.00    +0.001 A 
ATOM     13  C   UNL     1       1.171   2.087   0.002  0.00  0.00    +0.003 A 
ATOM     14  C   UNL     1       2.377   1.414  -0.013  0.00  0.00    +0.039 A 
ATOM     15  C   UNL     1       2.397   0.029  -0.021  0.00  0.00    +0.129 A 
ATOM     16  C   UNL     1       1.208  -0.679  -0.013  0.00  0.00    +0.018 A 
ATOM     17  C   UNL     1       0.002  -0.004   0.002  0.00  0.00    +0.009 A 
ATOM     18  F   UNL     1       3.577  -0.630  -0.036  0.00  0.00    -0.205 F 
ENDBRANCH   1  16
BRANCH  10  19
ATOM     19  S   UNL     1       4.411  -8.356   3.597  0.00  0.00    +0.064 S 
ATOM     20  O   UNL     1       3.973  -9.402   2.740  0.00  0.00    -0.153 OA
ATOM     21  O   UNL     1       5.786  -8.043   3.775  0.00  0.00    -0.153 OA
BRANCH  19  22
ATOM     22  N   UNL     1       3.804  -8.691   5.101  0.00  0.00    -0.203 NA
ATOM     23  H   UNL     1       3.139  -8.106   5.497  0.00  0.00    +0.144 HD
ATOM     24  H   UNL     1       4.113  -9.473   5.586  0.00  0.00    +0.144 HD
ENDBRANCH  19  22
ENDBRANCH  10  19
TORSDOF 3
