REMARK  Name = ZINC05275296
REMARK  6 active torsions:
REMARK  status: ('A' for Active; 'I' for Inactive)
REMARK    1  A    between atoms: C_1  and  C_2
REMARK    2  A    between atoms: C_2  and  C_4
REMARK    3  A    between atoms: C_2  and  O_33
REMARK    4  A    between atoms: C_10  and  C_32
REMARK    5  A    between atoms: C_17  and  O_31
REMARK    6  A    between atoms: C_21  and  C_30
REMARK                            x       y       z     vdW  Elec       q    Type
REMARK                         _______ _______ _______ _____ _____    ______ ____
ROOT
ATOM      1  C   UNL     1      -2.056   0.843   1.282  0.00  0.00    +0.024 C 
ATOM      2  C   UNL     1      -1.665  -0.656   1.506  0.00  0.00    +0.007 C 
ATOM      3  C   UNL     1      -0.119  -0.661   1.744  0.00  0.00    +0.005 C 
ATOM      4  C   UNL     1       0.105   0.742   2.333  0.00  0.00    -0.001 C 
ATOM      5  C   UNL     1      -0.747   1.521   1.249  0.00  0.00    -0.024 C 
ATOM      6  C   UNL     1      -0.260   2.932   1.326  0.00  0.00    +0.011 C 
ATOM      7  C   UNL     1       1.249   2.594   1.177  0.00  0.00    -0.001 C 
ATOM      8  C   UNL     1       1.427   1.438   2.217  0.00  0.00    -0.001 C 
ATOM      9  C   UNL     1       2.698   0.728   1.810  0.00  0.00    +0.035 C 
ATOM     10  C   UNL     1       3.815   1.681   2.287  0.00  0.00    +0.119 C 
ATOM     11  C   UNL     1       3.414   3.111   2.327  0.00  0.00    +0.029 C 
ATOM     12  C   UNL     1       2.233   3.662   1.559  0.00  0.00    -0.023 C 
ATOM     13  C   UNL     1       1.633   4.803   2.391  0.00  0.00    +0.012 C 
ATOM     14  C   UNL     1       2.705   5.902   2.476  0.00  0.00    +0.065 C 
ATOM     15  C   UNL     1       3.977   5.375   3.136  0.00  0.00    +0.171 C 
ATOM     16  C   UNL     1       4.527   4.146   2.394  0.00  0.00    +0.071 C 
ATOM     17  O   UNL     1       3.699   5.016   4.500  0.00  0.00    -0.346 OA
ATOM     18  C   UNL     1       4.890   5.382   5.238  0.00  0.00    +0.191 C 
ATOM     19  C   UNL     1       5.320   6.676   4.502  0.00  0.00    +0.191 C 
ATOM     20  O   UNL     1       4.976   6.406   3.128  0.00  0.00    -0.346 OA
ATOM     21  C   UNL     1       2.788   4.270   0.269  0.00  0.00    +0.012 C 
ATOM     22  C   UNL     1      -0.075   0.965  -0.009  0.00  0.00    +0.012 C 
ENDROOT
BRANCH   1  24
ATOM     23  C   UNL     1      -4.211   0.463   0.076  0.00  0.00    +0.038 C 
ATOM     24  C   UNL     1      -2.791   1.019  -0.048  0.00  0.00    +0.115 C 
BRANCH  24  25
ATOM     25  O   UNL     1      -2.092   0.314  -1.076  0.00  0.00    -0.392 OA
ATOM     26  H   UNL     1      -2.502   0.381  -1.949  0.00  0.00    +0.210 HD
ENDBRANCH  24  25
ENDBRANCH   1  24
BRANCH  10  27
ATOM     27  O   UNL     1       4.219   1.284   3.599  0.00  0.00    -0.391 OA
ATOM     28  H   UNL     1       4.498   0.361   3.663  0.00  0.00    +0.210 HD
ENDBRANCH  10  27
TORSDOF 3
