REMARK  Name = ZINC11907159
REMARK  3 active torsions:
REMARK  status: ('A' for Active; 'I' for Inactive)
REMARK    1  A    between atoms: C_6  and  N_7
REMARK    2  A    between atoms: N_19  and  C_20
REMARK    3  A    between atoms: C_20  and  C_22
REMARK                            x       y       z     vdW  Elec       q    Type
REMARK                         _______ _______ _______ _____ _____    ______ ____
ROOT
ATOM      1  N   UNL     1       2.579  -3.217  -4.353  0.00  0.00    -0.276 N 
ATOM      2  C   UNL     1       2.100  -4.184  -5.321  0.00  0.00    +0.116 C 
ATOM      3  C   UNL     1       2.505  -5.602  -4.852  0.00  0.00    +0.190 C 
ATOM      4  S   UNL     1       1.084  -6.617  -5.445  0.00  0.00    -0.028 S 
ATOM      5  O   UNL     1       1.275  -6.939  -6.816  0.00  0.00    -0.174 OA
ATOM      6  O   UNL     1       0.822  -7.652  -4.508  0.00  0.00    -0.174 OA
ATOM      7  C   UNL     1      -0.228  -5.312  -5.330  0.00  0.00    +0.182 C 
ATOM      8  C   UNL     1       0.603  -4.047  -5.620  0.00  0.00    +0.097 C 
ATOM      9  S   UNL     1       0.115  -2.728  -4.448  0.00  0.00    -0.086 S 
ATOM     10  C   UNL     1       1.709  -2.378  -3.734  0.00  0.00    +0.154 C 
ATOM     11  N   UNL     1       1.989  -1.480  -2.796  0.00  0.00    -0.157 NA
ENDROOT
BRANCH   1  17
ATOM     12  C   UNL     1       4.396  -3.515  -2.789  0.00  0.00    +0.027 A 
ATOM     13  C   UNL     1       5.743  -3.450  -2.491  0.00  0.00    +0.051 A 
ATOM     14  C   UNL     1       6.649  -3.021  -3.450  0.00  0.00    +0.162 A 
ATOM     15  C   UNL     1       6.201  -2.658  -4.715  0.00  0.00    +0.164 A 
ATOM     16  C   UNL     1       4.850  -2.728  -5.015  0.00  0.00    +0.073 A 
ATOM     17  C   UNL     1       3.945  -3.151  -4.051  0.00  0.00    +0.039 A 
ATOM     18  O   UNL     1       7.076  -2.239  -5.670  0.00  0.00    -0.485 OA
ATOM     19  C   UNL     1       8.372  -1.830  -5.220  0.00  0.00    +0.270 C 
ATOM     20  C   UNL     1       8.892  -2.882  -4.231  0.00  0.00    +0.270 C 
ATOM     21  O   UNL     1       7.973  -2.960  -3.136  0.00  0.00    -0.485 OA
ENDBRANCH   1  17
BRANCH  11  22
ATOM     22  C   UNL     1       1.019  -0.724  -2.288  0.00  0.00    +0.267 C 
ATOM     23  O   UNL     1      -0.123  -0.854  -2.683  0.00  0.00    -0.271 OA
BRANCH  22  24
ATOM     24  C   UNL     1       1.337   0.295  -1.224  0.00  0.00    +0.206 C 
ATOM     25  C   UNL     1       2.249   1.396  -1.806  0.00  0.00    +0.043 C 
ATOM     26  C   UNL     1       1.684   2.679  -1.138  0.00  0.00    +0.031 C 
ATOM     27  C   UNL     1       0.176   2.331  -1.062  0.00  0.00    +0.161 C 
ATOM     28  O   UNL     1       0.130   0.924  -0.778  0.00  0.00    -0.367 OA
ENDBRANCH  22  24
ENDBRANCH  11  22
TORSDOF 3
