REMARK  Name = ZINC40561032
REMARK  12 active torsions:
REMARK  status: ('A' for Active; 'I' for Inactive)
REMARK    1  A    between atoms: C_1  and  C_2
REMARK    2  A    between atoms: C_2  and  N_3
REMARK    3  A    between atoms: N_3  and  C_4
REMARK    4  A    between atoms: N_3  and  C_6
REMARK    5  A    between atoms: C_4  and  C_5
REMARK    6  A    between atoms: C_6  and  C_7
REMARK    7  A    between atoms: C_7  and  N_8
REMARK    8  A    between atoms: C_9  and  C_26
REMARK    9  A    between atoms: C_17  and  C_24
REMARK   10  A    between atoms: C_30  and  O_32
REMARK   11  A    between atoms: O_32  and  C_33
REMARK   12  A    between atoms: C_33  and  C_34
REMARK                            x       y       z     vdW  Elec       q    Type
REMARK                         _______ _______ _______ _____ _____    ______ ____
ROOT
ATOM      1  N   UNL     1      -2.896  -4.091   0.190  0.00  0.00    -0.285 N 
ATOM      2  C   UNL     1      -2.723  -5.090  -0.878  0.00  0.00    +0.145 C 
ATOM      3  C   UNL     1      -2.791  -6.421  -0.205  0.00  0.00    +0.072 A 
ATOM      4  C   UNL     1      -2.696  -7.782  -0.744  0.00  0.00    +0.199 A 
ATOM      5  O   UNL     1      -2.360  -8.024  -1.890  0.00  0.00    -0.287 OA
ATOM      6  C   UNL     1      -3.048  -8.837   0.240  0.00  0.00    +0.066 A 
ATOM      7  C   UNL     1      -3.200 -10.162  -0.169  0.00  0.00    +0.035 A 
ATOM      8  C   UNL     1      -3.532 -11.127   0.756  0.00  0.00    +0.045 A 
ATOM      9  C   UNL     1      -3.715 -10.779   2.089  0.00  0.00    -0.029 A 
ATOM     10  C   UNL     1      -3.567  -9.475   2.504  0.00  0.00    +0.051 A 
ATOM     11  C   UNL     1      -3.228  -8.480   1.586  0.00  0.00    +0.140 A 
ATOM     12  O   UNL     1      -3.079  -7.209   2.023  0.00  0.00    -0.450 OA
ATOM     13  C   UNL     1      -2.981  -6.204   1.130  0.00  0.00    +0.199 A 
ATOM     14  C   UNL     1      -3.041  -4.750   1.357  0.00  0.00    +0.283 C 
ATOM     15  O   UNL     1      -3.201  -4.221   2.439  0.00  0.00    -0.267 OA
ATOM     16  C   UNL     1      -4.082 -11.842   3.092  0.00  0.00    +0.045 C 
ATOM     17 CL   UNL     1      -3.722 -12.779   0.258  0.00  0.00    -0.083 Cl
ENDROOT
BRANCH   2  18
ATOM     18  C   UNL     1      -3.829  -4.962  -1.894  0.00  0.00    -0.019 A 
ATOM     19  C   UNL     1      -5.123  -4.707  -1.478  0.00  0.00    +0.006 A 
ATOM     20  C   UNL     1      -6.140  -4.589  -2.407  0.00  0.00    +0.004 A 
ATOM     21  C   UNL     1      -5.866  -4.725  -3.754  0.00  0.00    +0.045 A 
ATOM     22  C   UNL     1      -4.569  -4.981  -4.174  0.00  0.00    +0.121 A 
ATOM     23  C   UNL     1      -3.549  -5.093  -3.240  0.00  0.00    +0.051 A 
BRANCH  22  24
ATOM     24  O   UNL     1      -4.296  -5.116  -5.499  0.00  0.00    -0.487 OA
BRANCH  24  25
ATOM     25  C   UNL     1      -5.394  -4.982  -6.404  0.00  0.00    +0.264 C 
BRANCH  25  26
ATOM     26  C   UNL     1      -4.904  -5.161  -7.817  0.00  0.00    -0.010 A 
ATOM     27  C   UNL     1      -4.467  -4.067  -8.541  0.00  0.00    +0.007 A 
ATOM     28  C   UNL     1      -4.018  -4.231  -9.838  0.00  0.00    +0.000 A 
ATOM     29  C   UNL     1      -4.005  -5.489 -10.411  0.00  0.00    +0.000 A 
ATOM     30  C   UNL     1      -4.441  -6.583  -9.687  0.00  0.00    +0.000 A 
ATOM     31  C   UNL     1      -4.886  -6.420  -8.389  0.00  0.00    +0.007 A 
ENDBRANCH  25  26
ENDBRANCH  24  25
ENDBRANCH  22  24
ENDBRANCH   2  18
BRANCH   1  32
ATOM     32  C   UNL     1      -2.903  -2.637   0.015  0.00  0.00    +0.090 C 
BRANCH  32  33
ATOM     33  C   UNL     1      -1.476  -2.100   0.149  0.00  0.00    -0.060 C 
BRANCH  33  34
ATOM     34  N   UNL     1      -1.465  -0.661  -0.147  0.00  0.00    +0.380 N 
ATOM     35  H   UNL     1      -1.873  -0.501  -1.056  0.00  0.00    -0.082 HD
BRANCH  34  37
ATOM     36  C   UNL     1      -2.336   1.535   0.497  0.00  0.00    -0.017 C 
ATOM     37  C   UNL     1      -2.244   0.054   0.873  0.00  0.00    -0.082 C 
ENDBRANCH  34  37
BRANCH  34  38
ATOM     38  C   UNL     1      -0.080  -0.171  -0.138  0.00  0.00    -0.082 C 
ATOM     39  C   UNL     1       0.691  -0.800  -1.300  0.00  0.00    -0.017 C 
ENDBRANCH  34  38
ENDBRANCH  33  34
ENDBRANCH  32  33
ENDBRANCH   1  32
TORSDOF 9
