REMARK  Name = ZINC35135944
REMARK  20 active torsions:
REMARK  status: ('A' for Active; 'I' for Inactive)
REMARK    1  A    between atoms: C_1  and  C_2
REMARK    2  A    between atoms: C_2  and  C_3
REMARK    3  A    between atoms: C_3  and  C_4
REMARK    4  A    between atoms: C_4  and  C_5
REMARK    5  A    between atoms: C_5  and  C_6
REMARK    6  A    between atoms: N_8  and  C_9
REMARK    7  A    between atoms: N_8  and  C_13
REMARK    8  A    between atoms: C_9  and  C_10
REMARK    9  A    between atoms: C_10  and  C_11
REMARK   10  A    between atoms: C_11  and  C_12
REMARK   11  A    between atoms: C_13  and  C_14
REMARK   12  A    between atoms: N_16  and  C_17
REMARK   13  A    between atoms: C_19  and  C_26
REMARK   14  A    between atoms: N_21  and  C_22
REMARK   15  A    between atoms: C_22  and  C_23
REMARK   16  A    between atoms: C_22  and  C_24
REMARK   17  A    between atoms: C_22  and  C_25
REMARK   18  A    between atoms: C_26  and  C_27
REMARK   19  A    between atoms: C_26  and  C_28
REMARK   20  A    between atoms: C_26  and  C_29
REMARK                            x       y       z     vdW  Elec       q    Type
REMARK                         _______ _______ _______ _____ _____    ______ ____
ROOT
ATOM      1  C   UNL     1       0.848  -6.668  -4.262  0.00  0.00    +0.236 C 
ATOM      2  O   UNL     1       0.035  -5.888  -4.711  0.00  0.00    -0.274 OA
ATOM      3  N   UNL     1       0.652  -7.995  -4.390  0.00  0.00    -0.269 N 
ATOM      4  H   UNL     1       1.302  -8.619  -4.031  0.00  0.00    +0.156 HD
ENDROOT
BRANCH   3   5
ATOM      5  C   UNL     1      -0.487  -8.472  -5.039  0.00  0.00    +0.124 A 
ATOM      6  C   UNL     1      -1.473  -7.715  -5.593  0.00  0.00    +0.069 A 
ATOM      7  C   UNL     1      -2.423  -8.583  -6.139  0.00  0.00    +0.070 A 
ATOM      8  N   UNL     1      -2.029  -9.812  -5.925  0.00  0.00    -0.174 NA
ATOM      9  N   UNL     1      -0.809  -9.771  -5.238  0.00  0.00    -0.245 N 
BRANCH   9  10
ATOM     10  C   UNL     1      -0.022 -10.929  -4.808  0.00  0.00    +0.057 C 
ATOM     11  C   UNL     1       0.131 -10.905  -3.286  0.00  0.00    +0.036 C 
ATOM     12  C   UNL     1      -0.736 -12.215  -5.229  0.00  0.00    +0.036 C 
ATOM     13  C   UNL     1       1.361 -10.877  -5.461  0.00  0.00    +0.036 C 
ENDBRANCH   9  10
BRANCH   7  14
ATOM     14  C   UNL     1      -3.686  -8.173  -6.852  0.00  0.00    +0.006 C 
ATOM     15  C   UNL     1      -3.339  -7.665  -8.253  0.00  0.00    +0.017 C 
ATOM     16  C   UNL     1      -4.622  -9.378  -6.964  0.00  0.00    +0.017 C 
ATOM     17  C   UNL     1      -4.379  -7.060  -6.063  0.00  0.00    +0.017 C 
ENDBRANCH   7  14
ENDBRANCH   3   5
BRANCH   1  18
ATOM     18  C   UNL     1       2.078  -6.153  -3.560  0.00  0.00    +0.203 C 
BRANCH  18  21
ATOM     19  C   UNL     1       1.476  -4.028  -2.532  0.00  0.00    +0.216 C 
ATOM     20  O   UNL     1       0.967  -4.646  -1.621  0.00  0.00    -0.276 OA
ATOM     21  N   UNL     1       2.058  -4.688  -3.552  0.00  0.00    -0.293 N 
BRANCH  19  22
ATOM     22  C   UNL     1       1.455  -2.521  -2.524  0.00  0.00    +0.096 C 
BRANCH  22  23
ATOM     23  C   UNL     1       0.739  -2.027  -1.265  0.00  0.00    +0.009 C 
BRANCH  23  24
ATOM     24  C   UNL     1       0.718  -0.497  -1.257  0.00  0.00    +0.000 C 
BRANCH  24  26
ATOM     25  C   UNL     1      -0.019   1.526   0.010  0.00  0.00    +0.004 C 
ATOM     26  C   UNL     1       0.002  -0.004   0.002  0.00  0.00    -0.003 C 
ENDBRANCH  24  26
ENDBRANCH  23  24
ENDBRANCH  22  23
ENDBRANCH  19  22
BRANCH  21  27
ATOM     27  C   UNL     1       2.672  -3.941  -4.653  0.00  0.00    +0.108 C 
BRANCH  27  28
ATOM     28  C   UNL     1       4.142  -3.668  -4.327  0.00  0.00    +0.019 C 
BRANCH  28  29
ATOM     29  C   UNL     1       4.783  -2.888  -5.476  0.00  0.00    -0.002 C 
ATOM     30  C   UNL     1       6.253  -2.615  -5.150  0.00  0.00    +0.004 C 
ENDBRANCH  28  29
ENDBRANCH  27  28
ENDBRANCH  21  27
ENDBRANCH  18  21
ENDBRANCH   1  18
TORSDOF 12
