REMARK  Name = ZINC12455798
REMARK  11 active torsions:
REMARK  status: ('A' for Active; 'I' for Inactive)
REMARK    1  A    between atoms: C_1  and  C_2
REMARK    2  A    between atoms: N_7  and  C_10
REMARK    3  A    between atoms: C_11  and  C_23
REMARK    4  A    between atoms: C_14  and  O_21
REMARK    5  A    between atoms: C_17  and  O_19
REMARK    6  A    between atoms: O_19  and  C_20
REMARK    7  A    between atoms: O_21  and  C_22
REMARK    8  A    between atoms: C_23  and  N_24
REMARK    9  A    between atoms: N_24  and  C_25
REMARK   10  A    between atoms: C_25  and  C_26
REMARK   11  A    between atoms: C_32  and  C_34
REMARK                            x       y       z     vdW  Elec       q    Type
REMARK                         _______ _______ _______ _____ _____    ______ ____
ROOT
ATOM      1  C   UNL     1      -2.260  -2.332   2.515  0.00  0.00    +0.104 A 
ATOM      2  C   UNL     1      -1.082  -2.205   1.766  0.00  0.00    +0.009 A 
ATOM      3  C   UNL     1       0.123  -2.468   2.347  0.00  0.00    +0.022 A 
ATOM      4  C   UNL     1       0.142  -2.852   3.702  0.00  0.00    +0.044 A 
ATOM      5  C   UNL     1       1.352  -3.133   4.364  0.00  0.00    +0.129 A 
ATOM      6  C   UNL     1       1.329  -3.512   5.688  0.00  0.00    +0.050 A 
ATOM      7  C   UNL     1       0.124  -3.618   6.375  0.00  0.00    +0.051 A 
ATOM      8  C   UNL     1      -1.065  -3.351   5.758  0.00  0.00    +0.144 A 
ATOM      9  C   UNL     1      -1.082  -2.961   4.404  0.00  0.00    +0.093 A 
ATOM     10  N   UNL     1      -2.302  -2.702   3.819  0.00  0.00    -0.340 N 
ATOM     11  H   UNL     1      -3.185  -2.784   4.336  0.00  0.00    +0.167 HD
ENDROOT
BRANCH   1  18
ATOM     12  C   UNL     1      -8.104  -3.650   1.081  0.00  0.00    +0.109 C 
ATOM     13  C   UNL     1      -7.532  -2.360   1.612  0.00  0.00    +0.213 C 
ATOM     14  O   UNL     1      -8.248  -1.575   2.197  0.00  0.00    -0.276 OA
ATOM     15  N   UNL     1      -6.226  -2.080   1.437  0.00  0.00    -0.299 N 
ATOM     16  C   UNL     1      -5.367  -2.958   0.628  0.00  0.00    +0.126 C 
ATOM     17  C   UNL     1      -4.119  -3.305   1.447  0.00  0.00    +0.125 C 
ATOM     18  N   UNL     1      -3.480  -2.066   1.909  0.00  0.00    -0.313 N 
ATOM     19  C   UNL     1      -4.363  -1.316   2.812  0.00  0.00    +0.125 C 
ATOM     20  C   UNL     1      -5.622  -0.887   2.049  0.00  0.00    +0.126 C 
ENDBRANCH   1  18
BRANCH   8  21
ATOM     21  O   UNL     1      -2.231  -3.461   6.450  0.00  0.00    -0.493 OA
ATOM     22  C   UNL     1      -2.138  -3.861   7.819  0.00  0.00    +0.277 C 
ENDBRANCH   8  21
BRANCH   5  23
ATOM     23  O   UNL     1       2.534  -3.032   3.702  0.00  0.00    -0.494 OA
ATOM     24  C   UNL     1       3.720  -3.333   4.441  0.00  0.00    +0.277 C 
ENDBRANCH   5  23
BRANCH   2  25
ATOM     25  C   UNL     1      -1.147  -1.787   0.320  0.00  0.00    +0.146 C 
BRANCH  25  26
ATOM     26  N   UNL     1      -1.289  -0.331   0.239  0.00  0.00    -0.294 N 
ATOM     27  C   UNL     1      -0.197   0.457   0.307  0.00  0.00    +0.219 C 
ATOM     28  O   UNL     1       0.909  -0.039   0.311  0.00  0.00    -0.275 OA
BRANCH  27  29
ATOM     29  C   UNL     1      -0.352   1.954   0.378  0.00  0.00    +0.075 C 
ATOM     30  C   UNL     1      -0.435   2.526  -1.039  0.00  0.00    +0.013 C 
ATOM     31  C   UNL     1      -0.592   4.046  -0.967  0.00  0.00    +0.001 C 
ATOM     32  C   UNL     1       0.613   4.650  -0.243  0.00  0.00    +0.000 C 
ATOM     33  C   UNL     1       0.696   4.078   1.173  0.00  0.00    +0.001 C 
ATOM     34  C   UNL     1       0.853   2.558   1.102  0.00  0.00    +0.013 C 
ENDBRANCH  27  29
BRANCH  26  35
ATOM     35  C   UNL     1      -2.616   0.269   0.084  0.00  0.00    +0.139 C 
BRANCH  35  36
ATOM     36  C   UNL     1      -3.012   0.256  -1.394  0.00  0.00    +0.136 C 
ATOM     37  C   UNL     1      -4.325   1.042  -1.606  0.00  0.00    +0.035 C 
ATOM     38  C   UNL     1      -5.073   0.237  -2.693  0.00  0.00    +0.031 C 
ATOM     39  C   UNL     1      -4.124  -0.940  -3.009  0.00  0.00    +0.160 C 
ATOM     40  O   UNL     1      -3.313  -1.091  -1.822  0.00  0.00    -0.375 OA
ENDBRANCH  35  36
ENDBRANCH  26  35
ENDBRANCH  25  26
ENDBRANCH   2  25
TORSDOF 8
