REMARK  Name = ZINC02951272
REMARK  2 active torsions:
REMARK  status: ('A' for Active; 'I' for Inactive)
REMARK    1  A    between atoms: C_8  and  C_19
REMARK    2  A    between atoms: N_10  and  C_11
REMARK                            x       y       z     vdW  Elec       q    Type
REMARK                         _______ _______ _______ _____ _____    ______ ____
ROOT
ATOM      1  C   UNL     1       1.161   1.763  -0.033  0.00  0.00    +0.001 A 
ATOM      2  C   UNL     1       1.157   3.150  -0.030  0.00  0.00    +0.004 A 
ATOM      3  C   UNL     1      -0.032   3.850  -0.007  0.00  0.00    +0.047 A 
ATOM      4  C   UNL     1      -1.237   3.163   0.013  0.00  0.00    +0.137 A 
ATOM      5  C   UNL     1      -1.231   1.755   0.001  0.00  0.00    +0.018 A 
ATOM      6  C   UNL     1      -0.013   1.065  -0.015  0.00  0.00    +0.011 A 
ATOM      7  C   UNL     1      -2.504   1.031   0.022  0.00  0.00    +0.030 A 
ATOM      8  C   UNL     1      -3.657   1.762  -0.233  0.00  0.00    +0.098 A 
ATOM      9  C   UNL     1      -3.493   3.206  -0.496  0.00  0.00    +0.212 A 
ATOM     10  N   UNL     1      -4.366   3.865  -1.227  0.00  0.00    -0.325 N 
ATOM     11  O   UNL     1      -2.415   3.833   0.040  0.00  0.00    -0.439 OA
ATOM     12  H   UNL     1      -5.185   3.325  -1.725  0.00  0.00    +0.169 HD
ENDROOT
BRANCH   8  13
ATOM     13  C   UNL     1      -4.984   1.126  -0.240  0.00  0.00    +0.255 C 
ATOM     14  O   UNL     1      -5.977   1.792  -0.466  0.00  0.00    -0.270 OA
ATOM     15  N   UNL     1      -5.100  -0.195   0.004  0.00  0.00    -0.261 N 
ATOM     16  C   UNL     1      -6.352  -0.795  -0.003  0.00  0.00    +0.165 A 
ATOM     17  N   UNL     1      -6.667  -2.058   0.210  0.00  0.00    -0.233 NA
ATOM     18  C   UNL     1      -7.920  -2.467   0.167  0.00  0.00    +0.120 A 
ATOM     19  C   UNL     1      -8.887  -1.557  -0.104  0.00  0.00    +0.068 A 
ATOM     20  S   UNL     1      -7.906  -0.074  -0.287  0.00  0.00    -0.061 S 
ATOM     21  H   UNL     1      -4.202  -0.797   0.208  0.00  0.00    +0.157 HD
ENDBRANCH   8  13
BRANCH  10  22
ATOM     22  C   UNL     1      -4.255   5.221  -1.368  0.00  0.00    +0.042 A 
ATOM     23  C   UNL     1      -4.816   6.073  -0.414  0.00  0.00    +0.027 A 
ATOM     24  C   UNL     1      -4.696   7.440  -0.559  0.00  0.00    +0.017 A 
ATOM     25  C   UNL     1      -4.031   7.967  -1.653  0.00  0.00    +0.018 A 
ATOM     26  C   UNL     1      -3.477   7.127  -2.605  0.00  0.00    +0.017 A 
ATOM     27  C   UNL     1      -3.585   5.759  -2.469  0.00  0.00    +0.027 A 
ATOM     28 BR   UNL     1      -3.877   9.841  -1.848  0.00  0.00    -0.050 Br
ENDBRANCH  10  22
TORSDOF 2
