REMARK  Name = ZINC09081681
REMARK  10 active torsions:
REMARK  status: ('A' for Active; 'I' for Inactive)
REMARK    1  A    between atoms: C_1  and  C_2
REMARK    2  A    between atoms: C_5  and  S_9
REMARK    3  A    between atoms: C_7  and  C_8
REMARK    4  A    between atoms: S_9  and  C_12
REMARK    5  A    between atoms: C_12  and  C_14
REMARK    6  A    between atoms: C_12  and  C_27
REMARK    7  A    between atoms: C_14  and  N_15
REMARK    8  A    between atoms: N_15  and  S_16
REMARK    9  A    between atoms: S_16  and  C_19
REMARK   10  A    between atoms: C_19  and  C_20
REMARK                            x       y       z     vdW  Elec       q    Type
REMARK                         _______ _______ _______ _____ _____    ______ ____
ROOT
ATOM      1  C   UNL     1      -1.333   3.373  -3.220  0.00  0.00    +0.217 C 
ENDROOT
BRANCH   1   2
ATOM      2  C   UNL     1      -1.518   4.826  -3.572  0.00  0.00    +0.131 A 
ATOM      3  C   UNL     1      -2.647   5.383  -4.048  0.00  0.00    +0.046 A 
ATOM      4  C   UNL     1      -2.378   6.758  -4.235  0.00  0.00    +0.041 A 
ATOM      5  C   UNL     1      -1.099   6.959  -3.870  0.00  0.00    +0.195 A 
ATOM      6  O   UNL     1      -0.584   5.785  -3.469  0.00  0.00    -0.466 OA
ENDBRANCH   1   2
BRANCH   1   7
ATOM      7  S   UNL     1      -0.009   2.668  -4.240  0.00  0.00    +0.008 S 
ATOM      8  O   UNL     1       1.194   3.402  -4.056  0.00  0.00    -0.169 OA
ATOM      9  O   UNL     1      -0.015   1.251  -4.139  0.00  0.00    -0.169 OA
BRANCH   7  14
ATOM     10  C   UNL     1      -1.656   3.813  -9.931  0.00  0.00    +0.044 C 
ATOM     11  C   UNL     1      -1.244   3.527  -8.509  0.00  0.00    -0.047 A 
ATOM     12  C   UNL     1      -0.470   4.440  -7.817  0.00  0.00    +0.005 A 
ATOM     13  C   UNL     1      -0.093   4.177  -6.513  0.00  0.00    +0.027 A 
ATOM     14  C   UNL     1      -0.490   3.003  -5.902  0.00  0.00    +0.089 A 
ATOM     15  C   UNL     1      -1.260   2.088  -6.596  0.00  0.00    +0.030 A 
ATOM     16  C   UNL     1      -1.641   2.353  -7.898  0.00  0.00    -0.046 A 
ATOM     17  C   UNL     1      -2.484   1.358  -8.653  0.00  0.00    +0.044 C 
ENDBRANCH   7  14
ENDBRANCH   1   7
BRANCH   1  18
ATOM     18  C   UNL     1      -0.958   3.250  -1.742  0.00  0.00    +0.140 C 
BRANCH  18  19
ATOM     19  N   UNL     1      -0.778   1.837  -1.400  0.00  0.00    -0.192 NA
ATOM     20  H   UNL     1      -1.104   1.147  -1.999  0.00  0.00    +0.148 HD
BRANCH  19  21
ATOM     21  S   UNL     1      -0.017   1.417   0.010  0.00  0.00    +0.034 S 
ATOM     22  O   UNL     1       0.002  -0.004   0.002  0.00  0.00    -0.158 OA
ATOM     23  O   UNL     1       1.195   2.158   0.002  0.00  0.00    -0.158 OA
BRANCH  21  24
ATOM     24  C   UNL     1      -1.110   2.020   1.327  0.00  0.00    +0.220 C 
BRANCH  24  25
ATOM     25  C   UNL     1      -0.509   1.688   2.668  0.00  0.00    -0.025 A 
ATOM     26  C   UNL     1      -0.817   0.490   3.286  0.00  0.00    +0.008 A 
ATOM     27  C   UNL     1      -0.263   0.183   4.514  0.00  0.00    +0.038 A 
ATOM     28  C   UNL     1       0.592   1.080   5.131  0.00  0.00    +0.123 A 
ATOM     29  C   UNL     1       0.895   2.282   4.514  0.00  0.00    +0.038 A 
ATOM     30  C   UNL     1       0.345   2.585   3.284  0.00  0.00    +0.008 A 
ATOM     31  F   UNL     1       1.130   0.783   6.334  0.00  0.00    -0.205 F 
ENDBRANCH  24  25
ENDBRANCH  21  24
ENDBRANCH  19  21
ENDBRANCH  18  19
ENDBRANCH   1  18
TORSDOF 8
