REMARK  Name = ZINC39928749
REMARK  12 active torsions:
REMARK  status: ('A' for Active; 'I' for Inactive)
REMARK    1  A    between atoms: C_1  and  O_2
REMARK    2  A    between atoms: O_2  and  C_3
REMARK    3  A    between atoms: C_7  and  O_9
REMARK    4  A    between atoms: O_9  and  C_10
REMARK    5  A    between atoms: C_12  and  C_24
REMARK    6  A    between atoms: C_14  and  O_23
REMARK    7  A    between atoms: C_16  and  O_22
REMARK    8  A    between atoms: C_18  and  O_21
REMARK    9  A    between atoms: C_24  and  O_25
REMARK   10  A    between atoms: C_28  and  O_40
REMARK   11  A    between atoms: C_30  and  C_33
REMARK   12  A    between atoms: C_36  and  O_39
REMARK                            x       y       z     vdW  Elec       q    Type
REMARK                         _______ _______ _______ _____ _____    ______ ____
ROOT
ATOM      1  C   UNL     1       0.605  -0.606  -1.054  0.00  0.00    +0.127 A 
ATOM      2  C   UNL     1       0.650  -1.993  -1.121  0.00  0.00    +0.092 A 
ATOM      3  C   UNL     1       1.263  -2.619  -2.191  0.00  0.00    +0.139 A 
ATOM      4  C   UNL     1       1.843  -1.835  -3.207  0.00  0.00    +0.104 A 
ATOM      5  C   UNL     1       1.789  -0.435  -3.137  0.00  0.00    +0.141 A 
ATOM      6  C   UNL     1       1.165   0.171  -2.060  0.00  0.00    +0.092 A 
ATOM      7  C   UNL     1       2.506  -2.504  -4.332  0.00  0.00    +0.202 C 
ATOM      8  O   UNL     1       3.206  -1.894  -5.113  0.00  0.00    -0.289 OA
ATOM      9  C   UNL     1       2.271  -3.998  -4.468  0.00  0.00    +0.230 C 
ATOM     10  C   UNL     1       2.304  -4.593  -3.053  0.00  0.00    +0.240 C 
ATOM     11  O   UNL     1       1.298  -3.971  -2.255  0.00  0.00    -0.480 OA
ENDROOT
BRANCH  10  12
ATOM     12  C   UNL     1       2.044  -6.076  -3.125  0.00  0.00    -0.004 A 
ATOM     13  C   UNL     1       0.750  -6.543  -3.261  0.00  0.00    +0.011 A 
ATOM     14  C   UNL     1       0.508  -7.902  -3.327  0.00  0.00    +0.046 A 
ATOM     15  C   UNL     1       1.565  -8.797  -3.258  0.00  0.00    +0.117 A 
ATOM     16  C   UNL     1       2.863  -8.326  -3.122  0.00  0.00    +0.046 A 
ATOM     17  C   UNL     1       3.100  -6.966  -3.062  0.00  0.00    +0.011 A 
BRANCH  15  18
ATOM     18  O   UNL     1       1.330 -10.134  -3.322  0.00  0.00    -0.507 OA
ATOM     19  H   UNL     1       1.343 -10.493  -4.220  0.00  0.00    +0.292 HD
ENDBRANCH  15  18
ENDBRANCH  10  12
BRANCH   1  21
ATOM     20  C   UNL     1      -0.017   1.425   0.010  0.00  0.00    +0.277 C 
ATOM     21  O   UNL     1       0.002  -0.004   0.002  0.00  0.00    -0.495 OA
ENDBRANCH   1  21
BRANCH   9  22
ATOM     22  O   UNL     1       3.302  -4.581  -5.268  0.00  0.00    -0.380 OA
ATOM     23  H   UNL     1       3.356  -4.222  -6.164  0.00  0.00    +0.211 HD
ENDBRANCH   9  22
BRANCH   5  24
ATOM     24  O   UNL     1       2.340   0.320  -4.120  0.00  0.00    -0.462 OA
BRANCH  24  25
ATOM     25  C   UNL     1       2.245   1.739  -3.979  0.00  0.00    +0.318 C 
ATOM     26  C   UNL     1       2.690   2.412  -5.280  0.00  0.00    +0.114 C 
ATOM     27  C   UNL     1       4.159   2.069  -5.546  0.00  0.00    +0.159 C 
ATOM     28  C   UNL     1       5.001   2.510  -4.346  0.00  0.00    +0.199 C 
ATOM     29  C   UNL     1       4.467   1.833  -3.081  0.00  0.00    +0.282 C 
ATOM     30  O   UNL     1       3.088   2.169  -2.908  0.00  0.00    -0.310 OA
BRANCH  29  31
ATOM     31  O   UNL     1       5.213   2.283  -1.948  0.00  0.00    -0.365 OA
ATOM     32  H   UNL     1       4.928   1.894  -1.110  0.00  0.00    +0.213 HD
ENDBRANCH  29  31
BRANCH  28  33
ATOM     33  O   UNL     1       6.363   2.131  -4.553  0.00  0.00    -0.384 OA
ATOM     34  H   UNL     1       6.955   2.380  -3.830  0.00  0.00    +0.210 HD
ENDBRANCH  28  33
BRANCH  27  35
ATOM     35  O   UNL     1       4.603   2.751  -6.721  0.00  0.00    -0.388 OA
ATOM     36  H   UNL     1       5.527   2.579  -6.950  0.00  0.00    +0.210 HD
ENDBRANCH  27  35
BRANCH  26  37
ATOM     37  C   UNL     1       1.827   1.908  -6.438  0.00  0.00    +0.168 C 
BRANCH  37  38
ATOM     38  O   UNL     1       0.474   2.324  -6.241  0.00  0.00    -0.394 OA
ATOM     39  H   UNL     1      -0.131   2.039  -6.939  0.00  0.00    +0.209 HD
ENDBRANCH  37  38
ENDBRANCH  26  37
ENDBRANCH  24  25
ENDBRANCH   5  24
TORSDOF 11
