REMARK  Name = ZINC04119130
REMARK  8 active torsions:
REMARK  status: ('A' for Active; 'I' for Inactive)
REMARK    1  A    between atoms: C_1  and  C_2
REMARK    2  A    between atoms: C_2  and  C_3
REMARK    3  A    between atoms: C_2  and  N_4
REMARK    4  A    between atoms: C_11  and  C_23
REMARK    5  A    between atoms: C_13  and  C_19
REMARK    6  A    between atoms: C_13  and  C_21
REMARK    7  A    between atoms: C_14  and  N_18
REMARK    8  A    between atoms: C_15  and  C_16
REMARK                            x       y       z     vdW  Elec       q    Type
REMARK                         _______ _______ _______ _____ _____    ______ ____
ROOT
ATOM      1  N   UNL     1      -0.880   1.495   3.089  0.00  0.00    -0.296 NA
ATOM      2  C   UNL     1       0.356   2.297   3.056  0.00  0.00    +0.112 C 
ATOM      3  C   UNL     1       1.292   1.740   4.099  0.00  0.00    -0.006 C 
ATOM      4  C   UNL     1       1.280   0.450   4.378  0.00  0.00    -0.026 C 
ATOM      5  C   UNL     1       0.402  -0.535   3.661  0.00  0.00    +0.044 C 
ATOM      6  C   UNL     1      -0.591   0.106   2.719  0.00  0.00    +0.094 C 
ATOM      7  C   UNL     1      -0.290  -1.408   4.710  0.00  0.00    +0.069 C 
ATOM      8  C   UNL     1       0.772  -2.197   5.478  0.00  0.00    +0.188 C 
ATOM      9  C   UNL     1       1.864  -1.306   5.989  0.00  0.00    +0.054 C 
ATOM     10  C   UNL     1       2.124  -0.074   5.482  0.00  0.00    +0.074 C 
ENDROOT
BRANCH   7  11
ATOM     11  C   UNL     1      -1.236  -2.363   4.028  0.00  0.00    -0.023 A 
ATOM     12  C   UNL     1      -0.838  -3.055   2.894  0.00  0.00    +0.007 A 
ATOM     13  C   UNL     1      -1.741  -3.922   2.300  0.00  0.00    +0.020 A 
ATOM     14  C   UNL     1      -2.999  -4.067   2.853  0.00  0.00    +0.111 A 
ATOM     15  N   UNL     1      -3.343  -3.393   3.933  0.00  0.00    -0.263 NA
ATOM     16  C   UNL     1      -2.508  -2.564   4.528  0.00  0.00    +0.114 A 
ENDBRANCH   7  11
BRANCH   1  18
ATOM     17  C   UNL     1      -1.444   1.971   0.754  0.00  0.00    +0.024 C 
ATOM     18  C   UNL     1      -1.905   2.072   2.209  0.00  0.00    +0.051 C 
ATOM     19  C   UNL     1      -2.123   3.541   2.575  0.00  0.00    +0.024 C 
ENDBRANCH   1  18
BRANCH   9  20
ATOM     20  N   UNL     1       2.638  -1.758   7.020  0.00  0.00    -0.358 N 
ATOM     21  H   UNL     1       3.447  -1.128   7.418  0.00  0.00    +0.142 HD
ATOM     22  H   UNL     1       2.452  -2.753   7.453  0.00  0.00    +0.142 HD
ENDBRANCH   9  20
BRANCH  10  23
ATOM     23  C   UNL     1       3.200   0.712   6.007  0.00  0.00    +0.101 C 
ATOM     24  N   UNL     1       4.053   1.336   6.423  0.00  0.00    -0.191 NA
ENDBRANCH  10  23
BRANCH   8  25
ATOM     25  C   UNL     1       0.134  -2.877   6.617  0.00  0.00    +0.091 C 
ATOM     26  N   UNL     1      -0.358  -3.401   7.496  0.00  0.00    -0.194 NA
ENDBRANCH   8  25
BRANCH   8  27
ATOM     27  C   UNL     1       1.359  -3.208   4.583  0.00  0.00    +0.091 C 
ATOM     28  N   UNL     1       1.812  -3.988   3.893  0.00  0.00    -0.194 NA
ENDBRANCH   8  27
TORSDOF 6
