REMARK  Name = ZINC08994938
REMARK  3 active torsions:
REMARK  status: ('A' for Active; 'I' for Inactive)
REMARK    1  A    between atoms: C_6  and  N_7
REMARK    2  A    between atoms: N_19  and  C_20
REMARK    3  A    between atoms: C_20  and  C_22
REMARK                            x       y       z     vdW  Elec       q    Type
REMARK                         _______ _______ _______ _____ _____    ______ ____
ROOT
ATOM      1  N   UNL     1      -1.199  -0.721   0.010  0.00  0.00    -0.276 N 
ATOM      2  C   UNL     1      -1.245  -2.142  -0.096  0.00  0.00    +0.116 C 
ATOM      3  C   UNL     1      -0.073  -3.021  -0.516  0.00  0.00    +0.190 C 
ATOM      4  S   UNL     1      -0.968  -4.648  -0.515  0.00  0.00    -0.028 S 
ATOM      5  O   UNL     1      -0.848  -5.242   0.770  0.00  0.00    -0.174 OA
ATOM      6  O   UNL     1      -0.586  -5.387  -1.667  0.00  0.00    -0.174 OA
ATOM      7  C   UNL     1      -2.699  -4.034  -0.737  0.00  0.00    +0.182 C 
ATOM      8  C   UNL     1      -2.440  -2.548  -1.038  0.00  0.00    +0.097 C 
ATOM      9  S   UNL     1      -3.632  -1.399  -0.246  0.00  0.00    -0.086 S 
ATOM     10  C   UNL     1      -2.442  -0.102   0.129  0.00  0.00    +0.154 C 
ATOM     11  N   UNL     1      -2.691   1.164   0.445  0.00  0.00    -0.157 NA
ENDROOT
BRANCH   1  17
ATOM     12  C   UNL     1       0.899  -0.138   1.054  0.00  0.00    +0.024 A 
ATOM     13  C   UNL     1       2.084   0.571   1.043  0.00  0.00    +0.017 A 
ATOM     14  C   UNL     1       2.378   1.414  -0.014  0.00  0.00    +0.018 A 
ATOM     15  C   UNL     1       1.486   1.549  -1.063  0.00  0.00    +0.017 A 
ATOM     16  C   UNL     1       0.299   0.843  -1.058  0.00  0.00    +0.024 A 
ATOM     17  C   UNL     1       0.002  -0.004   0.002  0.00  0.00    +0.036 A 
ATOM     18 BR   UNL     1       4.001   2.384  -0.025  0.00  0.00    -0.050 Br
ENDBRANCH   1  17
BRANCH  11  19
ATOM     19  C   UNL     1      -3.947   1.597   0.516  0.00  0.00    +0.267 C 
ATOM     20  O   UNL     1      -4.866   0.834   0.290  0.00  0.00    -0.271 OA
BRANCH  19  21
ATOM     21  C   UNL     1      -4.230   3.033   0.875  0.00  0.00    +0.206 C 
ATOM     22  C   UNL     1      -3.772   3.310   2.323  0.00  0.00    +0.043 C 
ATOM     23  C   UNL     1      -4.901   4.234   2.855  0.00  0.00    +0.031 C 
ATOM     24  C   UNL     1      -6.130   3.656   2.109  0.00  0.00    +0.161 C 
ATOM     25  O   UNL     1      -5.639   3.281   0.810  0.00  0.00    -0.367 OA
ENDBRANCH  19  21
ENDBRANCH  11  19
TORSDOF 3
