REMARK  Name = ZINC40214452
REMARK  15 active torsions:
REMARK  status: ('A' for Active; 'I' for Inactive)
REMARK    1  A    between atoms: C_1  and  C_2
REMARK    2  A    between atoms: C_5  and  C_35
REMARK    3  A    between atoms: C_6  and  O_8
REMARK    4  A    between atoms: O_8  and  C_9
REMARK    5  A    between atoms: C_9  and  C_10
REMARK    6  A    between atoms: C_10  and  N_11
REMARK    7  A    between atoms: C_19  and  C_20
REMARK    8  A    between atoms: C_20  and  C_21
REMARK    9  A    between atoms: C_21  and  C_22
REMARK   10  A    between atoms: C_22  and  C_23
REMARK   11  A    between atoms: C_23  and  C_24
REMARK   12  A    between atoms: C_24  and  N_25
REMARK   13  A    between atoms: C_26  and  C_28
REMARK   14  A    between atoms: C_35  and  C_36
REMARK   15  A    between atoms: C_35  and  C_37
REMARK                            x       y       z     vdW  Elec       q    Type
REMARK                         _______ _______ _______ _____ _____    ______ ____
ROOT
ATOM      1  N   UNL     1       0.058  -2.156   6.003  0.00  0.00    -0.324 N 
ATOM      2  C   UNL     1       1.167  -1.696   6.684  0.00  0.00    +0.069 A 
ATOM      3  C   UNL     1       2.537  -1.795   6.481  0.00  0.00    +0.028 A 
ATOM      4  C   UNL     1       3.405  -1.204   7.374  0.00  0.00    +0.002 A 
ATOM      5  C   UNL     1       2.918  -0.512   8.474  0.00  0.00    +0.002 A 
ATOM      6  C   UNL     1       1.573  -0.404   8.691  0.00  0.00    +0.030 A 
ATOM      7  C   UNL     1       0.675  -0.995   7.798  0.00  0.00    +0.089 A 
ATOM      8  N   UNL     1      -0.680  -1.062   7.740  0.00  0.00    -0.232 NA
ATOM      9  C   UNL     1      -1.040  -1.737   6.688  0.00  0.00    +0.111 A 
ENDROOT
BRANCH   1  10
ATOM     10  C   UNL     1       0.063  -2.946   4.769  0.00  0.00    +0.164 C 
BRANCH  10  11
ATOM     11  C   UNL     1       0.045  -2.006   3.562  0.00  0.00    +0.250 C 
BRANCH  11  12
ATOM     12  O   UNL     1       0.050  -2.776   2.358  0.00  0.00    -0.490 OA
BRANCH  12  18
ATOM     13  C   UNL     1      -0.018   1.503   0.010  0.00  0.00    +0.044 C 
ATOM     14  C   UNL     1       0.002  -0.004   0.002  0.00  0.00    -0.047 A 
ATOM     15  C   UNL     1       0.006  -0.688  -1.200  0.00  0.00    +0.004 A 
ATOM     16  C   UNL     1       0.024  -2.071  -1.211  0.00  0.00    +0.008 A 
ATOM     17  C   UNL     1       0.039  -2.772  -0.020  0.00  0.00    -0.003 A 
ATOM     18  C   UNL     1       0.035  -2.088   1.186  0.00  0.00    +0.124 A 
ATOM     19  C   UNL     1       0.023  -0.700   1.195  0.00  0.00    +0.049 A 
BRANCH  17  20
ATOM     20  C   UNL     1       0.059  -4.279  -0.033  0.00  0.00    +0.016 C 
ATOM     21  C   UNL     1      -1.188  -4.799  -0.753  0.00  0.00    +0.012 C 
ATOM     22  C   UNL     1       1.311  -4.766  -0.764  0.00  0.00    +0.012 C 
ENDBRANCH  17  20
ENDBRANCH  12  18
ENDBRANCH  11  12
ENDBRANCH  10  11
ENDBRANCH   1  10
BRANCH   9  23
ATOM     23  C   UNL     1      -2.466  -2.015   6.287  0.00  0.00    +0.074 C 
BRANCH  23  24
ATOM     24  C   UNL     1      -2.929  -3.325   6.927  0.00  0.00    +0.008 C 
BRANCH  24  25
ATOM     25  C   UNL     1      -4.377  -3.608   6.520  0.00  0.00    +0.002 C 
BRANCH  25  26
ATOM     26  C   UNL     1      -4.840  -4.918   7.161  0.00  0.00    +0.019 C 
BRANCH  26  27
ATOM     27  C   UNL     1      -6.287  -5.201   6.754  0.00  0.00    +0.104 C 
BRANCH  27  28
ATOM     28  N   UNL     1      -6.731  -6.455   7.368  0.00  0.00    -0.311 N 
ATOM     29  C   UNL     1      -7.981  -6.907   7.148  0.00  0.00    +0.244 C 
ATOM     30  O   UNL     1      -8.741  -6.275   6.440  0.00  0.00    -0.270 OA
ATOM     31  H   UNL     1      -6.125  -6.960   7.932  0.00  0.00    +0.149 HD
BRANCH  29  32
ATOM     32  C   UNL     1      -8.429  -8.172   7.766  0.00  0.00    +0.037 A 
ATOM     33  C   UNL     1      -7.560  -8.898   8.584  0.00  0.00    +0.016 A 
ATOM     34  C   UNL     1      -7.982 -10.077   9.159  0.00  0.00    +0.039 A 
ATOM     35  C   UNL     1      -9.267 -10.543   8.926  0.00  0.00    +0.123 A 
ATOM     36  C   UNL     1     -10.134  -9.827   8.115  0.00  0.00    +0.039 A 
ATOM     37  C   UNL     1      -9.724  -8.643   7.540  0.00  0.00    +0.016 A 
ATOM     38  F   UNL     1      -9.676 -11.700   9.491  0.00  0.00    -0.205 F 
ENDBRANCH  29  32
ENDBRANCH  27  28
ENDBRANCH  26  27
ENDBRANCH  25  26
ENDBRANCH  24  25
ENDBRANCH  23  24
ENDBRANCH   9  23
TORSDOF 12
