REMARK  Name = ZINC06881478
REMARK  7 active torsions:
REMARK  status: ('A' for Active; 'I' for Inactive)
REMARK    1  A    between atoms: C_1  and  N_41
REMARK    2  A    between atoms: C_2  and  C_3
REMARK    3  A    between atoms: C_2  and  N_41
REMARK    4  A    between atoms: N_5  and  C_6
REMARK    5  A    between atoms: C_13  and  C_14
REMARK    6  A    between atoms: C_13  and  N_41
REMARK    7  A    between atoms: N_16  and  C_17
REMARK                            x       y       z     vdW  Elec       q    Type
REMARK                         _______ _______ _______ _____ _____    ______ ____
ROOT
ATOM      1  C   UNL     1       2.736  -0.427   1.099  0.00  0.00    -0.095 C 
ATOM      2  N   UNL     1       2.525   0.290  -0.177  0.00  0.00    +0.389 N 
ATOM      3  H   UNL     1       2.519  -0.391  -0.945  0.00  0.00    -0.081 HD
ENDROOT
BRANCH   2   4
ATOM      4  C   UNL     1       3.621   1.256  -0.400  0.00  0.00    +0.019 C 
BRANCH   4   5
ATOM      5  C   UNL     1       4.899   0.495  -0.641  0.00  0.00    +0.201 C 
ATOM      6  O   UNL     1       4.897  -0.718  -0.612  0.00  0.00    -0.278 OA
ATOM      7  N   UNL     1       6.044   1.161  -0.889  0.00  0.00    -0.287 N 
ATOM      8  H   UNL     1       6.063   2.129  -0.836  0.00  0.00    +0.155 HD
BRANCH   7   9
ATOM      9  C   UNL     1       7.206   0.455  -1.223  0.00  0.00    +0.033 A 
ATOM     10  C   UNL     1       8.446   0.919  -0.804  0.00  0.00    +0.025 A 
ATOM     11  C   UNL     1       9.590   0.219  -1.131  0.00  0.00    +0.022 A 
ATOM     12  C   UNL     1       9.503  -0.939  -1.884  0.00  0.00    +0.041 A 
ATOM     13  C   UNL     1       8.269  -1.400  -2.308  0.00  0.00    +0.022 A 
ATOM     14  C   UNL     1       7.121  -0.706  -1.979  0.00  0.00    +0.025 A 
ATOM     15 CL   UNL     1      10.944  -1.814  -2.299  0.00  0.00    -0.084 Cl
ENDBRANCH   7   9
ENDBRANCH   4   5
ENDBRANCH   2   4
BRANCH   2  16
ATOM     16  C   UNL     1       1.227   0.996  -0.151  0.00  0.00    +0.019 C 
BRANCH  16  17
ATOM     17  C   UNL     1       0.118  -0.025  -0.144  0.00  0.00    +0.201 C 
ATOM     18  O   UNL     1       0.384  -1.208  -0.143  0.00  0.00    -0.278 OA
ATOM     19  N   UNL     1      -1.168   0.377  -0.145  0.00  0.00    -0.287 N 
ATOM     20  H   UNL     1      -1.382   1.320  -0.068  0.00  0.00    +0.155 HD
BRANCH  19  21
ATOM     21  C   UNL     1      -2.196  -0.567  -0.258  0.00  0.00    +0.035 A 
ATOM     22  C   UNL     1      -2.020  -1.697  -1.045  0.00  0.00    +0.026 A 
ATOM     23  C   UNL     1      -3.033  -2.630  -1.151  0.00  0.00    +0.041 A 
ATOM     24  C   UNL     1      -4.228  -2.434  -0.480  0.00  0.00    +0.142 A 
ATOM     25  C   UNL     1      -4.409  -1.304   0.301  0.00  0.00    +0.078 A 
ATOM     26  C   UNL     1      -3.396  -0.371   0.414  0.00  0.00    +0.046 A 
ATOM     27 CL   UNL     1      -5.909  -1.061   1.141  0.00  0.00    -0.081 Cl
ATOM     28  F   UNL     1      -5.220  -3.345  -0.589  0.00  0.00    -0.204 F 
ENDBRANCH  19  21
ENDBRANCH  16  17
ENDBRANCH   2  16
TORSDOF 6
