REMARK  Name = ZINC61365078
REMARK  3 active torsions:
REMARK  status: ('A' for Active; 'I' for Inactive)
REMARK    1  A    between atoms: C_1  and  C_2
REMARK    2  A    between atoms: C_2  and  C_4
REMARK    3  A    between atoms: C_2  and  N_9
REMARK                            x       y       z     vdW  Elec       q    Type
REMARK                         _______ _______ _______ _____ _____    ______ ____
ROOT
ATOM      1  N   UNL     1      -1.406  -0.397  -0.091  0.00  0.00    -0.305 N 
ATOM      2  C   UNL     1      -1.971  -1.204  -1.065  0.00  0.00    +0.071 A 
ATOM      3  C   UNL     1      -1.476  -1.838  -2.195  0.00  0.00    +0.029 A 
ATOM      4  C   UNL     1      -2.319  -2.593  -2.984  0.00  0.00    +0.017 A 
ATOM      5  C   UNL     1      -3.661  -2.722  -2.656  0.00  0.00    +0.020 A 
ATOM      6  C   UNL     1      -4.170  -2.099  -1.538  0.00  0.00    +0.045 A 
ATOM      7  C   UNL     1      -3.329  -1.332  -0.728  0.00  0.00    +0.092 A 
ATOM      8  N   UNL     1      -3.527  -0.614   0.409  0.00  0.00    -0.215 NA
ATOM      9  C   UNL     1      -2.398  -0.069   0.788  0.00  0.00    +0.195 A 
ATOM     10  N   UNL     1      -2.236   0.722   1.906  0.00  0.00    -0.329 N 
ATOM     11 BR   UNL     1      -4.800  -3.760  -3.752  0.00  0.00    -0.050 Br
ATOM     12  H   UNL     1      -1.350   1.024   2.162  0.00  0.00    +0.145 HD
ATOM     13  H   UNL     1      -3.007   0.978   2.435  0.00  0.00    +0.145 HD
ENDROOT
BRANCH   1  15
ATOM     14  C   UNL     1       0.802  -0.696  -1.101  0.00  0.00    +0.036 C 
ATOM     15  C   UNL     1      -0.004   0.021  -0.016  0.00  0.00    +0.118 C 
BRANCH  15  16
ATOM     16  C   UNL     1       0.088   1.511  -0.225  0.00  0.00    -0.018 A 
ATOM     17  C   UNL     1       0.740   2.310   0.696  0.00  0.00    +0.013 A 
ATOM     18  C   UNL     1       0.804   3.646   0.478  0.00  0.00    +0.045 A 
ATOM     19  S   UNL     1      -0.075   3.811  -1.067  0.00  0.00    -0.105 S 
ATOM     20  C   UNL     1      -0.464   2.087  -1.321  0.00  0.00    +0.050 A 
ENDBRANCH  15  16
ENDBRANCH   1  15
TORSDOF 2
