REMARK  Name = ZINC35319308
REMARK  7 active torsions:
REMARK  status: ('A' for Active; 'I' for Inactive)
REMARK    1  A    between atoms: C_1  and  C_2
REMARK    2  A    between atoms: C_2  and  C_33
REMARK    3  A    between atoms: C_7  and  C_11
REMARK    4  A    between atoms: C_11  and  S_12
REMARK    5  A    between atoms: S_12  and  N_15
REMARK    6  A    between atoms: C_19  and  C_21
REMARK    7  A    between atoms: C_23  and  C_26
REMARK                            x       y       z     vdW  Elec       q    Type
REMARK                         _______ _______ _______ _____ _____    ______ ____
ROOT
ATOM      1  N   UNL     1       4.512  -0.577   2.882  0.00  0.00    -0.169 NA
ATOM      2  C   UNL     1       5.615  -1.330   2.258  0.00  0.00    +0.110 C 
ATOM      3  C   UNL     1       6.719  -0.275   2.000  0.00  0.00    +0.019 C 
ATOM      4  C   UNL     1       6.584   0.630   3.253  0.00  0.00    +0.031 C 
ATOM      5  C   UNL     1       5.064   0.630   3.515  0.00  0.00    +0.168 C 
ENDROOT
BRANCH   5   6
ATOM      6  C   UNL     1       4.802   0.596   4.999  0.00  0.00    +0.247 A 
ATOM      7  N   UNL     1       4.360   1.589   5.717  0.00  0.00    -0.190 NA
ATOM      8  C   UNL     1       4.242   1.211   7.002  0.00  0.00    +0.202 A 
ATOM      9  N   UNL     1       4.614  -0.041   7.106  0.00  0.00    -0.056 NA
ATOM     10  O   UNL     1       4.979  -0.462   5.801  0.00  0.00    -0.336 OA
BRANCH   8  11
ATOM     11  C   UNL     1       3.770   2.070   8.117  0.00  0.00    +0.023 A 
ATOM     12  C   UNL     1       3.397   3.390   7.873  0.00  0.00    +0.013 A 
ATOM     13  C   UNL     1       2.958   4.184   8.913  0.00  0.00    +0.016 A 
ATOM     14  C   UNL     1       2.889   3.671  10.197  0.00  0.00    +0.018 A 
ATOM     15  C   UNL     1       3.259   2.361  10.444  0.00  0.00    +0.016 A 
ATOM     16  C   UNL     1       3.692   1.556   9.410  0.00  0.00    +0.013 A 
ATOM     17 BR   UNL     1       2.288   4.765  11.617  0.00  0.00    -0.050 Br
ENDBRANCH   8  11
ENDBRANCH   5   6
BRANCH   1  18
ATOM     18  S   UNL     1       2.915  -1.015   2.867  0.00  0.00    +0.033 S 
ATOM     19  O   UNL     1       2.360  -0.403   4.024  0.00  0.00    -0.158 OA
ATOM     20  O   UNL     1       2.928  -2.429   2.732  0.00  0.00    -0.158 OA
BRANCH  18  21
ATOM     21  C   UNL     1       2.236  -0.250   1.369  0.00  0.00    +0.200 C 
BRANCH  21  27
ATOM     22  C   UNL     1      -0.019   1.526   0.010  0.00  0.00    +0.012 C 
ATOM     23  C   UNL     1       0.002  -0.004   0.002  0.00  0.00    -0.018 C 
ATOM     24  C   UNL     1      -1.400  -0.616   0.356  0.00  0.00    +0.003 C 
ATOM     25  C   UNL     1      -1.598  -0.063   1.801  0.00  0.00    +0.005 C 
ATOM     26  C   UNL     1      -0.174  -0.040   2.404  0.00  0.00    +0.017 C 
ATOM     27  C   UNL     1       0.749  -0.591   1.251  0.00  0.00    +0.055 C 
ATOM     28  C   UNL     1       0.397  -2.080   1.125  0.00  0.00    +0.142 C 
ATOM     29  O   UNL     1       1.089  -3.024   1.423  0.00  0.00    -0.297 OA
ATOM     30  C   UNL     1      -1.009  -2.114   0.545  0.00  0.00    +0.079 C 
ATOM     31  C   UNL     1       0.557  -0.556  -1.312  0.00  0.00    +0.012 C 
ENDBRANCH  21  27
ENDBRANCH  18  21
ENDBRANCH   1  18
TORSDOF 5
