REMARK  Name = ZINC00668749
REMARK  4 active torsions:
REMARK  status: ('A' for Active; 'I' for Inactive)
REMARK    1  A    between atoms: N_5  and  C_6
REMARK    2  A    between atoms: C_6  and  C_7
REMARK    3  A    between atoms: N_9  and  C_10
REMARK    4  A    between atoms: C_11  and  C_21
REMARK                            x       y       z     vdW  Elec       q    Type
REMARK                         _______ _______ _______ _____ _____    ______ ____
ROOT
ATOM      1  C   UNL     1      -0.742   1.585  -1.213  0.00  0.00    +0.239 C 
ATOM      2  O   UNL     1      -1.736   2.268  -1.088  0.00  0.00    -0.273 OA
ATOM      3  N   UNL     1      -0.288   1.272  -2.443  0.00  0.00    -0.277 N 
ATOM      4  H   UNL     1       0.507   0.726  -2.543  0.00  0.00    +0.155 HD
ENDROOT
BRANCH   3   5
ATOM      5  C   UNL     1      -0.960   1.732  -3.568  0.00  0.00    +0.090 A 
ATOM      6  C   UNL     1      -0.651   1.526  -4.898  0.00  0.00    +0.084 A 
ATOM      7  C   UNL     1      -1.537   2.103  -5.916  0.00  0.00    -0.018 A 
ATOM      8  C   UNL     1      -2.550   2.827  -5.410  0.00  0.00    -0.004 A 
ATOM      9  S   UNL     1      -2.384   2.711  -3.647  0.00  0.00    -0.077 S 
ATOM     10  C   UNL     1      -3.586   3.633  -6.143  0.00  0.00    +0.043 C 
ATOM     11  C   UNL     1      -2.923   4.971  -6.515  0.00  0.00    +0.005 C 
ATOM     12  C   UNL     1      -1.623   4.670  -7.271  0.00  0.00    +0.000 C 
ATOM     13  C   UNL     1      -2.048   3.932  -8.522  0.00  0.00    +0.000 C 
ATOM     14  C   UNL     1      -2.274   2.444  -8.318  0.00  0.00    +0.005 C 
ATOM     15  C   UNL     1      -1.242   1.817  -7.389  0.00  0.00    +0.037 C 
BRANCH   6  16
ATOM     16  C   UNL     1       0.501   0.763  -5.274  0.00  0.00    +0.102 C 
ATOM     17  N   UNL     1       1.415   0.158  -5.572  0.00  0.00    -0.191 NA
ENDBRANCH   6  16
ENDBRANCH   3   5
BRANCH   1  18
ATOM     18  C   UNL     1      -0.013   1.086   0.008  0.00  0.00    +0.239 C 
BRANCH  18  23
ATOM     19  C   UNL     1      -1.156   0.785   2.221  0.00  0.00    +0.125 A 
ATOM     20  C   UNL     1      -1.721   1.601   3.142  0.00  0.00    +0.082 A 
ATOM     21  C   UNL     1      -1.613   2.916   2.677  0.00  0.00    +0.248 A 
ATOM     22  N   UNL     1      -1.000   2.891   1.521  0.00  0.00    -0.145 NA
ATOM     23  N   UNL     1      -0.698   1.558   1.213  0.00  0.00    -0.259 N 
ATOM     24  N   UNL     1      -2.106   4.126   3.372  0.00  0.00    +0.078 N 
ATOM     25  O   UNL     1      -1.954   5.223   2.866  0.00  0.00    -0.125 OA
ATOM     26  O   UNL     1      -2.664   4.024   4.450  0.00  0.00    -0.125 OA
ATOM     27  I   UNL     1      -2.609   0.999   4.941  0.00  0.00    -0.038 I 
ENDBRANCH  18  23
ENDBRANCH   1  18
TORSDOF 4
