REMARK  Name = ZINC28466385
REMARK  6 active torsions:
REMARK  status: ('A' for Active; 'I' for Inactive)
REMARK    1  A    between atoms: C_1  and  C_2
REMARK    2  A    between atoms: C_2  and  N_3
REMARK    3  A    between atoms: C_7  and  C_20
REMARK    4  A    between atoms: C_11  and  O_19
REMARK    5  A    between atoms: C_13  and  C_17
REMARK    6  A    between atoms: C_13  and  C_18
REMARK                            x       y       z     vdW  Elec       q    Type
REMARK                         _______ _______ _______ _____ _____    ______ ____
ROOT
ATOM      1  N   UNL     1      -0.853  -1.034  -0.159  0.00  0.00    -0.257 N 
ATOM      2  C   UNL     1      -0.869  -1.908   0.858  0.00  0.00    +0.305 C 
ATOM      3  O   UNL     1      -1.190  -1.514   1.962  0.00  0.00    -0.253 OA
ATOM      4  N   UNL     1      -0.547  -3.201   0.704  0.00  0.00    -0.292 N 
ATOM      5  C   UNL     1      -0.139  -3.735  -0.596  0.00  0.00    +0.119 C 
ATOM      6  C   UNL     1      -0.810  -2.922  -1.708  0.00  0.00    +0.130 C 
ATOM      7  C   UNL     1      -0.470  -1.443  -1.510  0.00  0.00    +0.148 C 
ATOM      8  C   UNL     1       1.040  -1.238  -1.694  0.00  0.00    +0.062 C 
ATOM      9  C   UNL     1       1.442  -1.594  -3.126  0.00  0.00    -0.024 C 
ATOM     10  C   UNL     1       1.177  -3.083  -3.373  0.00  0.00    +0.081 C 
ATOM     11  C   UNL     1      -0.271  -3.372  -3.046  0.00  0.00    +0.143 C 
ATOM     12  O   UNL     1      -0.980  -3.948  -3.836  0.00  0.00    -0.297 OA
ATOM     13  C   UNL     1       2.931  -1.300  -3.325  0.00  0.00    +0.011 C 
ATOM     14  C   UNL     1       0.621  -0.758  -4.110  0.00  0.00    +0.011 C 
ATOM     15  H   UNL     1      -0.594  -3.865   1.581  0.00  0.00    +0.151 HD
ENDROOT
BRANCH   5  16
ATOM     16  C   UNL     1      -0.561  -5.178  -0.703  0.00  0.00    -0.026 A 
ATOM     17  C   UNL     1      -1.788  -5.577  -0.207  0.00  0.00    +0.007 A 
ATOM     18  C   UNL     1      -2.178  -6.899  -0.309  0.00  0.00    +0.020 A 
ATOM     19  C   UNL     1      -1.336  -7.825  -0.899  0.00  0.00    +0.041 A 
ATOM     20  C   UNL     1      -0.106  -7.425  -1.391  0.00  0.00    +0.020 A 
ATOM     21  C   UNL     1       0.281  -6.102  -1.293  0.00  0.00    +0.007 A 
ATOM     22 CL   UNL     1      -1.822  -9.487  -1.023  0.00  0.00    -0.084 Cl
ENDBRANCH   5  16
BRANCH   1  24
ATOM     23  C   UNL     1       0.011   1.166   0.473  0.00  0.00    +0.024 C 
ATOM     24  C   UNL     1      -1.231   0.360   0.088  0.00  0.00    +0.109 C 
ENDBRANCH   1  24
BRANCH   7  25
ATOM     25  O   UNL     1      -1.184  -0.657  -2.467  0.00  0.00    -0.371 OA
ATOM     26  H   UNL     1      -1.026  -0.822  -3.543  0.00  0.00    +0.212 HD
ENDBRANCH   7  25
TORSDOF 3
