REMARK  Name = ZINC16001416
REMARK  5 active torsions:
REMARK  status: ('A' for Active; 'I' for Inactive)
REMARK    1  A    between atoms: C_1  and  O_2
REMARK    2  A    between atoms: O_2  and  C_3
REMARK    3  A    between atoms: C_6  and  N_9
REMARK    4  A    between atoms: C_10  and  C_12
REMARK    5  A    between atoms: N_31  and  C_34
REMARK                            x       y       z     vdW  Elec       q    Type
REMARK                         _______ _______ _______ _____ _____    ______ ____
ROOT
ATOM      1  C   UNL     1       3.125  -4.487   5.521  0.00  0.00    +0.172 C 
ATOM      2  C   UNL     1       4.656  -4.609   5.387  0.00  0.00    +0.119 C 
ATOM      3  C   UNL     1       4.968  -6.012   5.992  0.00  0.00    +0.115 C 
ATOM      4  C   UNL     1       3.685  -6.809   5.772  0.00  0.00    +0.117 C 
ATOM      5  N   UNL     1       2.578  -5.833   5.636  0.00  0.00    -0.316 N 
ATOM      6  C   UNL     1       1.243  -6.214   5.674  0.00  0.00    +0.072 C 
ATOM      7  C   UNL     1       0.935  -7.231   6.504  0.00  0.00    +0.023 C 
ATOM      8  C   UNL     1       2.001  -7.848   7.319  0.00  0.00    -0.019 A 
ATOM      9  C   UNL     1       3.357  -7.680   6.956  0.00  0.00    -0.019 A 
ATOM     10  C   UNL     1       4.349  -8.264   7.708  0.00  0.00    +0.006 A 
ATOM     11  C   UNL     1       4.017  -9.055   8.796  0.00  0.00    +0.000 A 
ATOM     12  C   UNL     1       2.690  -9.262   9.129  0.00  0.00    +0.001 A 
ATOM     13  C   UNL     1       1.675  -8.629   8.428  0.00  0.00    +0.008 A 
ATOM     14  C   UNL     1       5.173  -5.685   7.456  0.00  0.00    +0.232 C 
ATOM     15  O   UNL     1       5.103  -6.471   8.376  0.00  0.00    -0.274 OA
ATOM     16  N   UNL     1       5.444  -4.374   7.560  0.00  0.00    -0.210 N 
ATOM     17  C   UNL     1       5.295  -3.670   6.398  0.00  0.00    +0.232 C 
ATOM     18  O   UNL     1       5.613  -2.518   6.194  0.00  0.00    -0.274 OA
ENDROOT
BRANCH  16  19
ATOM     19  C   UNL     1       5.847  -3.772   8.761  0.00  0.00    +0.045 A 
ATOM     20  C   UNL     1       6.116  -4.556   9.876  0.00  0.00    +0.027 A 
ATOM     21  C   UNL     1       6.513  -3.962  11.057  0.00  0.00    +0.041 A 
ATOM     22  C   UNL     1       6.644  -2.586  11.133  0.00  0.00    +0.142 A 
ATOM     23  C   UNL     1       6.376  -1.802  10.022  0.00  0.00    +0.078 A 
ATOM     24  C   UNL     1       5.983  -2.393   8.836  0.00  0.00    +0.046 A 
ATOM     25 CL   UNL     1       6.540  -0.076  10.119  0.00  0.00    -0.081 Cl
ATOM     26  F   UNL     1       7.032  -2.007  12.290  0.00  0.00    -0.204 F 
ENDBRANCH  16  19
BRANCH   1  28
ATOM     27  N   UNL     1       2.616  -2.467   4.187  0.00  0.00    -0.284 N 
ATOM     28  C   UNL     1       2.558  -3.808   4.300  0.00  0.00    +0.238 C 
ATOM     29  O   UNL     1       2.051  -4.470   3.419  0.00  0.00    -0.273 OA
ATOM     30  H   UNL     1       3.081  -1.943   4.858  0.00  0.00    +0.155 HD
BRANCH  27  34
ATOM     31  C   UNL     1       0.793  -0.567   0.954  0.00  0.00    +0.120 A 
ATOM     32  C   UNL     1       1.387  -1.809   0.783  0.00  0.00    +0.047 A 
ATOM     33  C   UNL     1       1.991  -2.439   1.854  0.00  0.00    +0.027 A 
ATOM     34  C   UNL     1       2.004  -1.828   3.101  0.00  0.00    +0.034 A 
ATOM     35  C   UNL     1       1.409  -0.585   3.270  0.00  0.00    +0.027 A 
ATOM     36  C   UNL     1       0.811   0.046   2.198  0.00  0.00    +0.047 A 
BRANCH  31  38
ATOM     37  C   UNL     1       0.218  -0.636  -1.353  0.00  0.00    +0.277 C 
ATOM     38  O   UNL     1       0.199   0.052  -0.101  0.00  0.00    -0.495 OA
ENDBRANCH  31  38
ENDBRANCH  27  34
ENDBRANCH   1  28
TORSDOF 4
