REMARK  Name = ZINC38926026
REMARK  6 active torsions:
REMARK  status: ('A' for Active; 'I' for Inactive)
REMARK    1  A    between atoms: N_7  and  S_8
REMARK    2  A    between atoms: S_8  and  C_11
REMARK    3  A    between atoms: C_14  and  N_17
REMARK    4  A    between atoms: N_17  and  C_18
REMARK    5  A    between atoms: C_19  and  C_20
REMARK    6  A    between atoms: C_20  and  C_22
REMARK                            x       y       z     vdW  Elec       q    Type
REMARK                         _______ _______ _______ _____ _____    ______ ____
ROOT
ATOM      1  C   UNL     1       7.435  -2.929  -0.058  0.00  0.00    +0.113 A 
ATOM      2  C   UNL     1       8.227  -2.773  -1.181  0.00  0.00    +0.031 A 
ATOM      3  C   UNL     1       9.530  -3.232  -1.179  0.00  0.00    +0.025 A 
ATOM      4  C   UNL     1      10.044  -3.851  -0.046  0.00  0.00    +0.031 A 
ATOM      5  C   UNL     1       9.246  -4.005   1.080  0.00  0.00    +0.025 A 
ATOM      6  C   UNL     1       7.946  -3.539   1.073  0.00  0.00    +0.031 A 
ENDROOT
BRANCH   1   7
ATOM      7  S   UNL     1       5.774  -2.342  -0.066  0.00  0.00    +0.100 S 
ATOM      8  O   UNL     1       5.074  -3.091   0.919  0.00  0.00    -0.146 OA
ATOM      9  O   UNL     1       5.364  -2.301  -1.425  0.00  0.00    -0.146 OA
BRANCH   7  16
ATOM     10  C   UNL     1       1.263   3.444   1.329  0.00  0.00    +0.002 A 
ATOM     11  C   UNL     1       2.531   3.954   1.657  0.00  0.00    +0.002 A 
ATOM     12  C   UNL     1       3.662   3.224   1.550  0.00  0.00    +0.030 A 
ATOM     13  C   UNL     1       3.609   1.883   1.091  0.00  0.00    +0.089 A 
ATOM     14  N   UNL     1       4.715   1.175   0.989  0.00  0.00    -0.227 NA
ATOM     15  C   UNL     1       4.700  -0.096   0.559  0.00  0.00    +0.170 C 
ATOM     16  N   UNL     1       5.806  -0.774   0.467  0.00  0.00    -0.112 NA
ATOM     17  C   UNL     1       3.379  -0.728   0.183  0.00  0.00    +0.191 C 
ATOM     18  N   UNL     1       2.164   0.092   0.310  0.00  0.00    -0.376 N 
ATOM     19  C   UNL     1       2.283   1.318   0.738  0.00  0.00    +0.061 A 
ATOM     20  C   UNL     1       1.100   2.179   0.883  0.00  0.00    +0.027 A 
ATOM     21  H   UNL     1       1.295  -0.271   0.080  0.00  0.00    +0.160 HD
ENDBRANCH   7  16
ENDBRANCH   1   7
BRANCH   4  22
ATOM     22  N   UNL     1      11.362  -4.316  -0.041  0.00  0.00    -0.320 N 
ATOM     23  H   UNL     1      11.918  -4.208  -0.828  0.00  0.00    +0.152 HD
BRANCH  22  24
ATOM     24  C   UNL     1      11.866  -4.924   1.074  0.00  0.00    +0.076 C 
ATOM     25  C   UNL     1      13.097  -5.485   1.040  0.00  0.00    +0.066 C 
BRANCH  25  26
ATOM     26  C   UNL     1      13.785  -5.603  -0.188  0.00  0.00    +0.187 C 
ATOM     27  O   UNL     1      13.229  -5.304  -1.229  0.00  0.00    -0.287 OA
BRANCH  26  28
ATOM     28  C   UNL     1      15.182  -6.090  -0.208  0.00  0.00    +0.023 A 
ATOM     29  C   UNL     1      15.820  -6.439   0.983  0.00  0.00    +0.013 A 
ATOM     30  C   UNL     1      17.122  -6.893   0.958  0.00  0.00    +0.022 A 
ATOM     31  C   UNL     1      17.797  -7.003  -0.246  0.00  0.00    +0.059 A 
ATOM     32  C   UNL     1      17.170  -6.658  -1.432  0.00  0.00    +0.060 A 
ATOM     33  C   UNL     1      15.864  -6.208  -1.420  0.00  0.00    +0.033 A 
ATOM     34 CL   UNL     1      18.024  -6.797  -2.937  0.00  0.00    -0.082 Cl
ATOM     35 CL   UNL     1      19.436  -7.574  -0.269  0.00  0.00    -0.082 Cl
ENDBRANCH  26  28
ENDBRANCH  25  26
ENDBRANCH  22  24
ENDBRANCH   4  22
TORSDOF 6
