REMARK  Name = ZINC23732222
REMARK  11 active torsions:
REMARK  status: ('A' for Active; 'I' for Inactive)
REMARK    1  A    between atoms: C_1  and  C_2
REMARK    2  A    between atoms: C_3  and  C_16
REMARK    3  A    between atoms: C_4  and  C_15
REMARK    4  A    between atoms: N_5  and  C_7
REMARK    5  A    between atoms: C_7  and  C_8
REMARK    6  A    between atoms: C_16  and  N_17
REMARK    7  A    between atoms: N_17  and  C_18
REMARK    8  A    between atoms: C_19  and  C_21
REMARK    9  A    between atoms: C_21  and  C_22
REMARK   10  A    between atoms: C_22  and  N_23
REMARK   11  A    between atoms: C_24  and  C_26
REMARK                            x       y       z     vdW  Elec       q    Type
REMARK                         _______ _______ _______ _____ _____    ______ ____
ROOT
ATOM      1  C   UNL     1       7.306   1.448  -0.055  0.00  0.00    +0.146 C 
ENDROOT
BRANCH   1   4
ATOM      2  C   UNL     1       9.330   3.418  -1.494  0.00  0.00    +0.068 C 
ATOM      3  C   UNL     1       8.690   2.201  -2.111  0.00  0.00    +0.065 A 
ATOM      4  C   UNL     1       7.796   1.333  -1.476  0.00  0.00    +0.013 A 
ATOM      5  C   UNL     1       7.455   0.367  -2.360  0.00  0.00    +0.041 A 
ATOM      6  N   UNL     1       8.101   0.621  -3.517  0.00  0.00    -0.264 N 
ATOM      7  N   UNL     1       8.873   1.775  -3.335  0.00  0.00    -0.176 NA
ATOM      8  C   UNL     1       6.516  -0.783  -2.100  0.00  0.00    +0.065 C 
BRANCH   6   9
ATOM      9  C   UNL     1       8.016  -0.175  -4.744  0.00  0.00    +0.180 C 
BRANCH   9  10
ATOM     10  C   UNL     1       9.076  -1.246  -4.723  0.00  0.00    -0.008 A 
ATOM     11  C   UNL     1       8.745  -2.540  -4.370  0.00  0.00    +0.007 A 
ATOM     12  C   UNL     1       9.717  -3.522  -4.351  0.00  0.00    +0.000 A 
ATOM     13  C   UNL     1      11.022  -3.211  -4.685  0.00  0.00    +0.001 A 
ATOM     14  C   UNL     1      11.355  -1.917  -5.038  0.00  0.00    +0.020 A 
ATOM     15  C   UNL     1      10.381  -0.934  -5.063  0.00  0.00    +0.046 A 
ATOM     16 CL   UNL     1      10.797   0.690  -5.514  0.00  0.00    -0.083 Cl
ENDBRANCH   9  10
ENDBRANCH   6   9
ENDBRANCH   1   4
BRANCH   1  17
ATOM     17  N   UNL     1       6.013   2.136  -0.040  0.00  0.00    -0.300 N 
ATOM     18  C   UNL     1       5.962   3.600  -0.048  0.00  0.00    +0.132 C 
ATOM     19  C   UNL     1       4.870   1.422  -0.018  0.00  0.00    +0.217 C 
ATOM     20  O   UNL     1       4.913   0.210  -0.011  0.00  0.00    -0.276 OA
BRANCH  19  21
ATOM     21  C   UNL     1       3.540   2.130  -0.001  0.00  0.00    +0.114 C 
BRANCH  21  22
ATOM     22  C   UNL     1       2.412   1.095   0.022  0.00  0.00    +0.113 C 
BRANCH  22  23
ATOM     23  N   UNL     1       1.119   1.783   0.038  0.00  0.00    -0.311 N 
ATOM     24  C   UNL     1      -0.024   1.069   0.060  0.00  0.00    +0.245 C 
ATOM     25  O   UNL     1       0.019  -0.147   0.067  0.00  0.00    -0.270 OA
ATOM     26  H   UNL     1       1.080   2.882   0.032  0.00  0.00    +0.149 HD
BRANCH  24  27
ATOM     27  C   UNL     1      -1.323   1.760   0.070  0.00  0.00    +0.044 A 
ATOM     28  C   UNL     1      -2.565   1.028   0.082  0.00  0.00    +0.020 A 
ATOM     29  C   UNL     1      -3.703   1.750   0.096  0.00  0.00    +0.046 A 
ATOM     30  S   UNL     1      -3.114   3.431   0.079  0.00  0.00    -0.104 S 
ATOM     31  C   UNL     1      -1.407   3.137   0.063  0.00  0.00    +0.058 A 
ENDBRANCH  24  27
ENDBRANCH  22  23
ENDBRANCH  21  22
ENDBRANCH  19  21
ENDBRANCH   1  17
TORSDOF 8
