REMARK  Name = ZINC34969395
REMARK  21 active torsions:
REMARK  status: ('A' for Active; 'I' for Inactive)
REMARK    1  A    between atoms: C_1  and  C_2
REMARK    2  A    between atoms: C_2  and  C_3
REMARK    3  A    between atoms: C_3  and  C_5
REMARK    4  A    between atoms: C_3  and  C_6
REMARK    5  A    between atoms: C_6  and  C_8
REMARK    6  A    between atoms: C_6  and  N_23
REMARK    7  A    between atoms: N_10  and  C_11
REMARK    8  A    between atoms: C_11  and  C_12
REMARK    9  A    between atoms: C_12  and  C_13
REMARK   10  A    between atoms: C_16  and  O_21
REMARK   11  A    between atoms: C_17  and  O_19
REMARK   12  A    between atoms: O_19  and  C_20
REMARK   13  A    between atoms: O_21  and  C_22
REMARK   14  A    between atoms: C_24  and  C_26
REMARK   15  A    between atoms: C_26  and  C_27
REMARK   16  A    between atoms: C_27  and  C_29
REMARK   17  A    between atoms: C_27  and  C_30
REMARK   18  A    between atoms: C_30  and  C_31
REMARK   19  A    between atoms: C_31  and  C_32
REMARK   20  A    between atoms: C_31  and  C_33
REMARK   21  A    between atoms: C_31  and  C_34
REMARK                            x       y       z     vdW  Elec       q    Type
REMARK                         _______ _______ _______ _____ _____    ______ ____
ROOT
ATOM      1  C   UNL     1       1.694   0.470   1.135  0.00  0.00    +0.162 C 
ENDROOT
BRANCH   1   2
ATOM      2  C   UNL     1       0.203   0.371   0.941  0.00  0.00    +0.234 C 
ATOM      3  O   UNL     1      -0.253  -0.401   0.124  0.00  0.00    -0.274 OA
ATOM      4  N   UNL     1      -0.625   1.142   1.675  0.00  0.00    -0.313 N 
ATOM      5  H   UNL     1      -0.268   1.700   2.383  0.00  0.00    +0.149 HD
BRANCH   4   6
ATOM      6  C   UNL     1      -2.064   1.136   1.403  0.00  0.00    +0.109 C 
BRANCH   6   7
ATOM      7  C   UNL     1      -2.770   2.089   2.369  0.00  0.00    +0.054 C 
BRANCH   7   8
ATOM      8  C   UNL     1      -4.251   2.084   2.089  0.00  0.00    -0.042 A 
ATOM      9  C   UNL     1      -4.784   2.975   1.177  0.00  0.00    +0.007 A 
ATOM     10  C   UNL     1      -6.141   2.974   0.917  0.00  0.00    +0.049 A 
ATOM     11  C   UNL     1      -6.971   2.078   1.571  0.00  0.00    +0.161 A 
ATOM     12  C   UNL     1      -6.435   1.180   2.489  0.00  0.00    +0.162 A 
ATOM     13  C   UNL     1      -5.072   1.183   2.741  0.00  0.00    +0.053 A 
BRANCH  12  14
ATOM     14  O   UNL     1      -7.245   0.298   3.133  0.00  0.00    -0.491 OA
ATOM     15  C   UNL     1      -6.625  -0.594   4.061  0.00  0.00    +0.277 C 
ENDBRANCH  12  14
BRANCH  11  16
ATOM     16  O   UNL     1      -8.307   2.075   1.316  0.00  0.00    -0.491 OA
ATOM     17  C   UNL     1      -8.787   3.025   0.362  0.00  0.00    +0.277 C 
ENDBRANCH  11  16
ENDBRANCH   7   8
ENDBRANCH   6   7
ENDBRANCH   4   6
ENDBRANCH   1   2
BRANCH   1  18
ATOM     18  N   UNL     1       2.356  -0.596   0.379  0.00  0.00    -0.304 N 
ATOM     19  C   UNL     1       3.570  -1.039   0.761  0.00  0.00    +0.214 C 
ATOM     20  O   UNL     1       4.115  -0.555   1.731  0.00  0.00    -0.276 OA
ATOM     21  H   UNL     1       1.921  -0.983  -0.396  0.00  0.00    +0.149 HD
BRANCH  19  22
ATOM     22  C   UNL     1       4.252  -2.135  -0.016  0.00  0.00    +0.099 C 
BRANCH  22  23
ATOM     23  C   UNL     1       5.606  -2.447   0.623  0.00  0.00    -0.005 C 
ATOM     24  C   UNL     1       5.389  -3.020   2.025  0.00  0.00    +0.008 C 
BRANCH  23  25
ATOM     25  C   UNL     1       6.352  -3.470  -0.237  0.00  0.00    +0.010 C 
BRANCH  25  26
ATOM     26  C   UNL     1       7.758  -3.683   0.328  0.00  0.00    -0.037 C 
ATOM     27  C   UNL     1       7.683  -4.594   1.554  0.00  0.00    +0.010 C 
ATOM     28  C   UNL     1       8.643  -4.333  -0.738  0.00  0.00    +0.010 C 
ATOM     29  C   UNL     1       8.354  -2.333   0.731  0.00  0.00    +0.010 C 
ENDBRANCH  25  26
ENDBRANCH  23  25
ENDBRANCH  22  23
ENDBRANCH  19  22
ENDBRANCH   1  18
BRANCH   1  30
ATOM     30  C   UNL     1       2.185   1.830   0.636  0.00  0.00    +0.015 C 
ATOM     31  C   UNL     1       1.975   1.924  -0.877  0.00  0.00    +0.010 C 
BRANCH  30  33
ATOM     32  C   UNL     1       4.135   3.390   0.569  0.00  0.00    +0.004 C 
ATOM     33  C   UNL     1       3.673   1.984   0.955  0.00  0.00    +0.002 C 
ENDBRANCH  30  33
ENDBRANCH   1  30
TORSDOF 13
