REMARK  Name = ZINC45630525
REMARK  10 active torsions:
REMARK  status: ('A' for Active; 'I' for Inactive)
REMARK    1  A    between atoms: C_1  and  C_2
REMARK    2  A    between atoms: C_4  and  S_26
REMARK    3  A    between atoms: C_6  and  N_9
REMARK    4  A    between atoms: C_7  and  C_8
REMARK    5  A    between atoms: C_10  and  C_12
REMARK    6  A    between atoms: C_12  and  N_13
REMARK    7  A    between atoms: N_16  and  C_19
REMARK    8  A    between atoms: S_26  and  N_29
REMARK    9  A    between atoms: N_29  and  C_30
REMARK   10  A    between atoms: N_29  and  C_31
REMARK                            x       y       z     vdW  Elec       q    Type
REMARK                         _______ _______ _______ _____ _____    ______ ____
ROOT
ATOM      1  N   UNL     1       0.054  -2.799   2.383  0.00  0.00    -0.287 N 
ATOM      2  C   UNL     1      -0.030  -4.144   2.379  0.00  0.00    +0.201 C 
ATOM      3  O   UNL     1      -0.031  -4.748   1.327  0.00  0.00    -0.278 OA
ATOM      4  H   UNL     1       0.136  -2.321   3.223  0.00  0.00    +0.155 HD
ENDROOT
BRANCH   1  10
ATOM      5  C   UNL     1       1.203   1.229  -0.192  0.00  0.00    +0.044 C 
ATOM      6  C   UNL     1       0.574  -0.137  -0.100  0.00  0.00    -0.044 A 
ATOM      7  C   UNL     1      -0.035  -0.693  -1.210  0.00  0.00    +0.032 A 
ATOM      8  C   UNL     1      -0.613  -1.947  -1.131  0.00  0.00    +0.107 A 
ATOM      9  C   UNL     1      -0.585  -2.647   0.059  0.00  0.00    +0.052 A 
ATOM     10  C   UNL     1       0.025  -2.092   1.176  0.00  0.00    +0.038 A 
ATOM     11  C   UNL     1       0.610  -0.835   1.091  0.00  0.00    -0.026 A 
ATOM     12  C   UNL     1       1.278  -0.231   2.299  0.00  0.00    +0.046 C 
BRANCH   8  13
ATOM     13  S   UNL     1      -1.388  -2.650  -2.548  0.00  0.00    +0.060 S 
ATOM     14  O   UNL     1      -2.330  -3.599  -2.067  0.00  0.00    -0.153 OA
ATOM     15  O   UNL     1      -1.759  -1.566  -3.389  0.00  0.00    -0.153 OA
BRANCH  13  16
ATOM     16  N   UNL     1      -0.229  -3.507  -3.365  0.00  0.00    -0.183 NA
ATOM     17  C   UNL     1      -0.008  -4.921  -3.053  0.00  0.00    +0.131 C 
ATOM     18  C   UNL     1       0.575  -2.850  -4.399  0.00  0.00    +0.131 C 
ENDBRANCH  13  16
ENDBRANCH   8  13
ENDBRANCH   1  10
BRANCH   2  19
ATOM     19  C   UNL     1      -0.125  -4.898   3.680  0.00  0.00    +0.019 C 
BRANCH  19  20
ATOM     20  N   UNL     1      -0.206  -6.339   3.407  0.00  0.00    +0.387 N 
ATOM     21  C   UNL     1       1.042  -6.787   2.777  0.00  0.00    -0.059 C 
ATOM     22  C   UNL     1       0.916  -8.263   2.387  0.00  0.00    +0.086 C 
ATOM     23  N   UNL     1       0.530  -9.029   3.582  0.00  0.00    -0.333 N 
ATOM     24  C   UNL     1      -0.617  -8.553   4.371  0.00  0.00    +0.086 C 
ATOM     25  C   UNL     1      -0.418  -7.063   4.667  0.00  0.00    -0.059 C 
ATOM     26  H   UNL     1      -0.978  -6.519   2.783  0.00  0.00    -0.081 HD
BRANCH  23  27
ATOM     27  C   UNL     1       1.234 -10.177   3.959  0.00  0.00    +0.030 A 
ATOM     28  C   UNL     1       0.787 -10.950   5.022  0.00  0.00    +0.026 A 
ATOM     29  C   UNL     1       1.484 -12.084   5.392  0.00  0.00    +0.040 A 
ATOM     30  C   UNL     1       2.627 -12.450   4.703  0.00  0.00    +0.124 A 
ATOM     31  C   UNL     1       3.075 -11.681   3.642  0.00  0.00    +0.040 A 
ATOM     32  C   UNL     1       2.378 -10.550   3.265  0.00  0.00    +0.026 A 
ATOM     33  F   UNL     1       3.308 -13.559   5.066  0.00  0.00    -0.205 F 
ENDBRANCH  23  27
ENDBRANCH  19  20
ENDBRANCH   2  19
TORSDOF 6
