REMARK  Name = ZINC63281401
REMARK  4 active torsions:
REMARK  status: ('A' for Active; 'I' for Inactive)
REMARK    1  A    between atoms: C_1  and  C_2
REMARK    2  A    between atoms: N_4  and  C_5
REMARK    3  A    between atoms: C_8  and  N_11
REMARK    4  A    between atoms: C_15  and  N_19
REMARK                            x       y       z     vdW  Elec       q    Type
REMARK                         _______ _______ _______ _____ _____    ______ ____
ROOT
ATOM      1  N   UNL     1       0.061  -6.225  -1.620  0.00  0.00    -0.209 N 
ATOM      2  C   UNL     1      -0.076  -7.039  -0.566  0.00  0.00    +0.228 C 
ATOM      3  O   UNL     1      -0.228  -6.682   0.583  0.00  0.00    -0.275 OA
ATOM      4  C   UNL     1      -0.014  -8.476  -1.035  0.00  0.00    +0.125 C 
ATOM      5  C   UNL     1       0.186  -8.351  -2.559  0.00  0.00    +0.153 C 
ATOM      6  C   UNL     1       0.209  -6.855  -2.792  0.00  0.00    +0.244 C 
ATOM      7  O   UNL     1       0.344  -6.314  -3.868  0.00  0.00    -0.273 OA
ENDROOT
BRANCH   5   8
ATOM      8  N   UNL     1      -0.936  -8.966  -3.281  0.00  0.00    -0.287 NA
ATOM      9  C   UNL     1      -1.131 -10.356  -2.860  0.00  0.00    +0.088 C 
ATOM     10  C   UNL     1      -2.437 -10.935  -3.418  0.00  0.00    +0.044 C 
ATOM     11  C   UNL     1      -2.325 -10.976  -4.945  0.00  0.00    +0.109 C 
ATOM     12  C   UNL     1      -1.917  -9.572  -5.377  0.00  0.00    -0.024 C 
ATOM     13  C   UNL     1      -2.812  -9.181  -6.273  0.00  0.00    +0.001 A 
ATOM     14  C   UNL     1      -2.911  -7.971  -7.105  0.00  0.00    +0.010 A 
ATOM     15  C   UNL     1      -3.988  -7.881  -7.926  0.00  0.00    +0.002 A 
ATOM     16  C   UNL     1      -4.986  -8.855  -8.020  0.00  0.00    +0.017 A 
ATOM     17  C   UNL     1      -4.996 -10.012  -7.306  0.00  0.00    +0.041 A 
ATOM     18  C   UNL     1      -3.874 -10.229  -6.382  0.00  0.00    +0.057 A 
ATOM     19  N   UNL     1      -3.606 -11.252  -5.593  0.00  0.00    -0.377 N 
ATOM     20 BR   UNL     1      -6.387 -11.280  -7.492  0.00  0.00    -0.048 Br
ATOM     21  C   UNL     1      -0.754  -8.851  -4.742  0.00  0.00    +0.118 C 
ATOM     22  H   UNL     1      -4.153 -12.042  -5.458  0.00  0.00    +0.160 HD
ENDBRANCH   5   8
BRANCH   1  26
ATOM     23  C   UNL     1       0.014  -2.067  -1.281  0.00  0.00    +0.033 A 
ATOM     24  C   UNL     1      -0.998  -2.719  -1.973  0.00  0.00    +0.025 A 
ATOM     25  C   UNL     1      -0.982  -4.095  -2.085  0.00  0.00    +0.026 A 
ATOM     26  C   UNL     1       0.046  -4.827  -1.506  0.00  0.00    +0.044 A 
ATOM     27  C   UNL     1       1.058  -4.175  -0.814  0.00  0.00    +0.026 A 
ATOM     28  C   UNL     1       1.045  -2.799  -0.707  0.00  0.00    +0.025 A 
BRANCH  23  32
ATOM     29  C   UNL     1       1.135   1.525  -1.163  0.00  0.00    +0.109 C 
ATOM     30  C   UNL     1       1.156   0.018  -1.181  0.00  0.00    +0.214 C 
ATOM     31  O   UNL     1       2.215  -0.573  -1.208  0.00  0.00    -0.276 OA
ATOM     32  N   UNL     1      -0.001  -0.672  -1.168  0.00  0.00    -0.286 N 
ATOM     33  H   UNL     1      -0.845  -0.202  -1.080  0.00  0.00    +0.155 HD
ENDBRANCH  23  32
ENDBRANCH   1  26
TORSDOF 3
