REMARK  Name = ZINC13963625
REMARK  6 active torsions:
REMARK  status: ('A' for Active; 'I' for Inactive)
REMARK    1  A    between atoms: C_2  and  C_3
REMARK    2  A    between atoms: C_3  and  N_4
REMARK    3  A    between atoms: N_13  and  C_14
REMARK    4  A    between atoms: C_14  and  C_16
REMARK    5  A    between atoms: N_22  and  S_23
REMARK    6  A    between atoms: S_23  and  C_26
REMARK                            x       y       z     vdW  Elec       q    Type
REMARK                         _______ _______ _______ _____ _____    ______ ____
ROOT
ATOM      1  C   UNL     1       4.267   3.335  -1.117  0.00  0.00    +0.257 C 
ATOM      2  O   UNL     1       5.034   3.067  -0.213  0.00  0.00    -0.272 OA
ENDROOT
BRANCH   1  12
ATOM      3  N   UNL     1       3.437   6.686  -0.093  0.00  0.00    -0.317 N 
ATOM      4  C   UNL     1       3.814   7.482   0.973  0.00  0.00    +0.058 A 
ATOM      5  C   UNL     1       3.409   8.794   1.267  0.00  0.00    +0.028 A 
ATOM      6  C   UNL     1       3.892   9.447   2.376  0.00  0.00    +0.022 A 
ATOM      7  C   UNL     1       4.790   8.835   3.236  0.00  0.00    +0.042 A 
ATOM      8  C   UNL     1       5.206   7.541   2.970  0.00  0.00    +0.037 A 
ATOM      9  C   UNL     1       4.723   6.888   1.861  0.00  0.00    +0.040 A 
ATOM     10  S   UNL     1       4.980   5.276   1.162  0.00  0.00    -0.052 S 
ATOM     11  C   UNL     1       3.933   5.427  -0.212  0.00  0.00    +0.167 A 
ATOM     12  N   UNL     1       3.680   4.526  -1.160  0.00  0.00    -0.155 NA
ATOM     13 CL   UNL     1       5.386   9.680   4.630  0.00  0.00    -0.084 Cl
BRANCH   3  14
ATOM     14  C   UNL     1       2.497   7.200  -1.092  0.00  0.00    +0.151 C 
BRANCH  14  16
ATOM     15  C   UNL     1       0.199   7.833  -0.561  0.00  0.00    +0.005 C 
ATOM     16  C   UNL     1       1.087   6.876  -0.669  0.00  0.00    -0.013 C 
ENDBRANCH  14  16
ENDBRANCH   3  14
ENDBRANCH   1  12
BRANCH   1  17
ATOM     17  C   UNL     1       3.981   2.316  -2.190  0.00  0.00    +0.167 C 
ATOM     18  C   UNL     1       5.281   1.955  -2.915  0.00  0.00    +0.030 C 
ATOM     19  C   UNL     1       5.010   0.821  -3.907  0.00  0.00    +0.003 C 
ATOM     20  C   UNL     1       4.521  -0.415  -3.149  0.00  0.00    +0.017 C 
ATOM     21  C   UNL     1       3.217  -0.083  -2.425  0.00  0.00    +0.110 C 
ATOM     22  N   UNL     1       3.427   1.099  -1.579  0.00  0.00    -0.164 NA
BRANCH  22  23
ATOM     23  S   UNL     1       3.054   1.060   0.034  0.00  0.00    +0.068 S 
ATOM     24  O   UNL     1       2.045   0.073   0.193  0.00  0.00    -0.152 OA
ATOM     25  O   UNL     1       2.871   2.409   0.441  0.00  0.00    -0.152 OA
BRANCH  23  26
ATOM     26  C   UNL     1       4.478   0.467   0.884  0.00  0.00    +0.144 A 
ATOM     27  C   UNL     1       5.439   1.169   1.533  0.00  0.00    +0.038 A 
ATOM     28  C   UNL     1       6.481   0.484   2.131  0.00  0.00    +0.030 A 
ATOM     29  C   UNL     1       6.504  -0.870   2.061  0.00  0.00    +0.080 A 
ATOM     30  S   UNL     1       5.029  -1.216   1.115  0.00  0.00    -0.057 S 
ATOM     31 CL   UNL     1       7.669  -1.979   2.714  0.00  0.00    -0.076 Cl
ENDBRANCH  23  26
ENDBRANCH  22  23
ENDBRANCH   1  17
TORSDOF 6
