REMARK  Name = ZINC34756813
REMARK  8 active torsions:
REMARK  status: ('A' for Active; 'I' for Inactive)
REMARK    1  A    between atoms: C_1  and  O_2
REMARK    2  A    between atoms: O_2  and  C_3
REMARK    3  A    between atoms: C_6  and  N_9
REMARK    4  A    between atoms: C_10  and  C_12
REMARK    5  A    between atoms: C_12  and  S_13
REMARK    6  A    between atoms: S_13  and  C_14
REMARK    7  A    between atoms: N_30  and  C_33
REMARK    8  A    between atoms: C_33  and  C_34
REMARK                            x       y       z     vdW  Elec       q    Type
REMARK                         _______ _______ _______ _____ _____    ______ ____
ROOT
ATOM      1  C   UNL     1       3.832  -6.962   6.783  0.00  0.00    +0.191 A 
ATOM      2  N   UNL     1       3.856  -8.275   6.984  0.00  0.00    -0.206 NA
ATOM      3  C   UNL     1       4.215  -8.802   8.142  0.00  0.00    +0.134 A 
ATOM      4  C   UNL     1       4.589  -7.941   9.212  0.00  0.00    +0.051 A 
ATOM      5  C   UNL     1       5.015  -8.297  10.568  0.00  0.00    -0.025 A 
ATOM      6  C   UNL     1       5.317  -7.282  11.401  0.00  0.00    -0.004 A 
ATOM      7  S   UNL     1       5.058  -5.809  10.448  0.00  0.00    -0.073 S 
ATOM      8  C   UNL     1       4.541  -6.562   8.928  0.00  0.00    +0.115 A 
ATOM      9  N   UNL     1       4.176  -6.113   7.742  0.00  0.00    -0.214 NA
ATOM     10  C   UNL     1       5.773  -7.381  12.825  0.00  0.00    +0.043 C 
ATOM     11  C   UNL     1       5.492  -8.805  13.326  0.00  0.00    +0.005 C 
ATOM     12  C   UNL     1       6.002  -9.802  12.281  0.00  0.00    +0.005 C 
ATOM     13  C   UNL     1       5.118  -9.747  11.035  0.00  0.00    +0.037 C 
ATOM     14  N   UNL     1       4.226 -10.174   8.312  0.00  0.00    -0.318 N 
ATOM     15  C   UNL     1       3.066 -10.875   8.885  0.00  0.00    +0.088 C 
ATOM     16  C   UNL     1       2.702 -12.044   7.963  0.00  0.00    -0.059 C 
ATOM     17  N   UNL     1       3.883 -12.893   7.760  0.00  0.00    +0.384 N 
ATOM     18  C   UNL     1       4.924 -12.139   7.050  0.00  0.00    -0.059 C 
ATOM     19  C   UNL     1       5.396 -10.975   7.921  0.00  0.00    +0.088 C 
ATOM     20  H   UNL     1       4.239 -13.192   8.656  0.00  0.00    -0.081 HD
ENDROOT
BRANCH   1  21
ATOM     21  S   UNL     1       3.341  -6.338   5.210  0.00  0.00    -0.077 S 
BRANCH  21  22
ATOM     22  C   UNL     1       3.467  -4.537   5.394  0.00  0.00    +0.173 C 
BRANCH  22  24
ATOM     23  N   UNL     1       3.087  -2.527   4.004  0.00  0.00    -0.285 N 
ATOM     24  C   UNL     1       3.070  -3.871   4.102  0.00  0.00    +0.227 C 
ATOM     25  O   UNL     1       2.735  -4.545   3.151  0.00  0.00    -0.275 OA
ATOM     26  H   UNL     1       3.417  -1.991   4.742  0.00  0.00    +0.155 HD
BRANCH  23  30
ATOM     27  C   UNL     1       1.720  -0.673   0.528  0.00  0.00    +0.120 A 
ATOM     28  C   UNL     1       1.137  -1.856   0.958  0.00  0.00    +0.047 A 
ATOM     29  C   UNL     1       1.589  -2.471   2.109  0.00  0.00    +0.027 A 
ATOM     30  C   UNL     1       2.627  -1.904   2.836  0.00  0.00    +0.034 A 
ATOM     31  C   UNL     1       3.210  -0.720   2.406  0.00  0.00    +0.027 A 
ATOM     32  C   UNL     1       2.760  -0.109   1.252  0.00  0.00    +0.047 A 
BRANCH  27  34
ATOM     33  C   UNL     1       0.199  -0.704  -1.299  0.00  0.00    +0.277 C 
ATOM     34  O   UNL     1       1.274  -0.068  -0.605  0.00  0.00    -0.495 OA
ENDBRANCH  27  34
ENDBRANCH  23  30
ENDBRANCH  22  24
ENDBRANCH  21  22
ENDBRANCH   1  21
BRANCH  17  35
ATOM     35  C   UNL     1       3.507 -14.071   6.968  0.00  0.00    -0.052 C 
BRANCH  35  36
ATOM     36  C   UNL     1       4.687 -15.002   6.862  0.00  0.00    -0.053 C 
ATOM     37  C   UNL     1       4.570 -16.253   7.235  0.00  0.00    +0.002 C 
ENDBRANCH  35  36
ENDBRANCH  17  35
TORSDOF 7
