REMARK  Name = ZINC39668973
REMARK  5 active torsions:
REMARK  status: ('A' for Active; 'I' for Inactive)
REMARK    1  A    between atoms: C_10  and  C_12
REMARK    2  A    between atoms: C_12  and  N_13
REMARK    3  A    between atoms: C_14  and  C_16
REMARK    4  A    between atoms: C_27  and  C_29
REMARK    5  A    between atoms: C_31  and  C_36
REMARK                            x       y       z     vdW  Elec       q    Type
REMARK                         _______ _______ _______ _____ _____    ______ ____
ROOT
ATOM      1  C   UNL     1       8.207  -0.345  -1.522  0.00  0.00    +0.100 C 
ATOM      2  C   UNL     1       9.040  -0.470  -0.227  0.00  0.00    +0.121 C 
ATOM      3  N   UNL     1      10.448  -0.376  -0.678  0.00  0.00    -0.296 N 
ATOM      4  C   UNL     1      10.428   0.663  -1.736  0.00  0.00    +0.115 C 
ATOM      5  C   UNL     1       9.121   0.400  -2.510  0.00  0.00    -0.004 C 
ATOM      6  C   UNL     1       8.482   1.721  -2.928  0.00  0.00    -0.010 C 
ATOM      7  C   UNL     1       9.381   2.416  -3.954  0.00  0.00    -0.082 C 
ATOM      8  N   UNL     1       9.559   1.544  -5.121  0.00  0.00    +0.379 N 
ATOM      9  C   UNL     1      10.259   0.316  -4.726  0.00  0.00    -0.082 C 
ATOM     10  C   UNL     1       9.396  -0.468  -3.733  0.00  0.00    -0.010 C 
ATOM     11  C   UNL     1      11.509  -1.076  -0.228  0.00  0.00    +0.247 C 
ATOM     12  O   UNL     1      11.345  -1.988   0.558  0.00  0.00    -0.270 OA
ATOM     13  H   UNL     1       8.656   1.308  -5.504  0.00  0.00    -0.086 HD
ATOM     14  H   UNL     1      10.102   2.028  -5.821  0.00  0.00    -0.086 HD
ENDROOT
BRANCH  11  15
ATOM     15  C   UNL     1      12.871  -0.733  -0.691  0.00  0.00    +0.040 A 
ATOM     16  C   UNL     1      13.898  -1.674  -0.602  0.00  0.00    +0.025 A 
ATOM     17  C   UNL     1      15.167  -1.350  -1.035  0.00  0.00    +0.058 A 
ATOM     18  C   UNL     1      15.424  -0.095  -1.558  0.00  0.00    +0.050 A 
ATOM     19  C   UNL     1      14.410   0.844  -1.649  0.00  0.00    +0.125 A 
ATOM     20  C   UNL     1      13.133   0.529  -1.223  0.00  0.00    +0.051 A 
ATOM     21  F   UNL     1      14.668   2.068  -2.159  0.00  0.00    -0.205 F 
BRANCH  17  22
ATOM     22  C   UNL     1      16.276  -2.366  -0.939  0.00  0.00    +0.418 C 
ATOM     23  F   UNL     1      16.320  -3.122  -2.115  0.00  0.00    -0.166 F 
ATOM     24  F   UNL     1      17.498  -1.707  -0.762  0.00  0.00    -0.166 F 
ATOM     25  F   UNL     1      16.041  -3.212   0.150  0.00  0.00    -0.166 F 
ENDBRANCH  17  22
ENDBRANCH  11  15
BRANCH   1  27
ATOM     26  N   UNL     1       5.839   0.206  -1.982  0.00  0.00    -0.312 N 
ATOM     27  C   UNL     1       6.953   0.452  -1.264  0.00  0.00    +0.218 C 
ATOM     28  O   UNL     1       6.947   1.313  -0.411  0.00  0.00    -0.275 OA
ATOM     29  H   UNL     1       5.844  -0.484  -2.664  0.00  0.00    +0.149 HD
BRANCH  26  30
ATOM     30  C   UNL     1       4.621   0.980  -1.731  0.00  0.00    +0.140 C 
BRANCH  30  40
ATOM     31  C   UNL     1      -0.033   2.752  -1.861  0.00  0.00    +0.000 A 
ATOM     32  C   UNL     1       0.742   2.265  -0.824  0.00  0.00    +0.000 A 
ATOM     33  C   UNL     1       1.885   1.542  -1.100  0.00  0.00    +0.006 A 
ATOM     34  C   UNL     1       2.261   1.303  -2.413  0.00  0.00    -0.014 A 
ATOM     35  C   UNL     1       1.490   1.792  -3.447  0.00  0.00    -0.040 A 
ATOM     36  C   UNL     1       0.341   2.515  -3.169  0.00  0.00    +0.004 A 
ATOM     37  C   UNL     1       1.874   1.565  -4.887  0.00  0.00    +0.063 C 
ATOM     38  C   UNL     1       2.895   0.429  -4.977  0.00  0.00    +0.165 C 
ATOM     39  O   UNL     1       3.936   0.677  -4.026  0.00  0.00    -0.370 OA
ATOM     40  C   UNL     1       3.513   0.505  -2.673  0.00  0.00    +0.165 C 
ENDBRANCH  30  40
ENDBRANCH  26  30
ENDBRANCH   1  27
TORSDOF 5
