REMARK  Name = ZINC35161661
REMARK  2 active torsions:
REMARK  status: ('A' for Active; 'I' for Inactive)
REMARK    1  A    between atoms: C_13  and  C_15
REMARK    2  A    between atoms: C_21  and  C_23
REMARK                            x       y       z     vdW  Elec       q    Type
REMARK                         _______ _______ _______ _____ _____    ______ ____
ROOT
ATOM      1  C   UNL     1      -0.154   0.940  -0.036  0.00  0.00    +0.000 C 
ATOM      2  C   UNL     1       1.164   1.711   0.069  0.00  0.00    +0.002 C 
ATOM      3  C   UNL     1       1.979   1.491  -1.206  0.00  0.00    +0.023 C 
ATOM      4  C   UNL     1       2.270   0.005  -1.388  0.00  0.00    +0.079 C 
ATOM      5  C   UNL     1       0.962  -0.789  -1.447  0.00  0.00    +0.010 C 
ATOM      6  C   UNL     1       0.145  -0.552  -0.190  0.00  0.00    +0.005 C 
ATOM      7  C   UNL     1       1.298  -2.282  -1.550  0.00  0.00    +0.007 C 
ATOM      8  C   UNL     1       2.064  -2.715  -0.298  0.00  0.00    +0.019 C 
ATOM      9  C   UNL     1       3.376  -1.931  -0.204  0.00  0.00    +0.108 C 
ATOM     10  N   UNL     1       3.065  -0.496  -0.261  0.00  0.00    -0.298 N 
ATOM     11  C   UNL     1       3.513   0.343   0.694  0.00  0.00    +0.220 C 
ATOM     12  O   UNL     1       3.382   1.541   0.558  0.00  0.00    -0.275 OA
ENDROOT
BRANCH  11  13
ATOM     13  C   UNL     1       4.177  -0.207   1.930  0.00  0.00    +0.089 C 
ATOM     14  C   UNL     1       3.159  -1.009   2.742  0.00  0.00    +0.013 C 
ATOM     15  C   UNL     1       1.999  -0.098   3.148  0.00  0.00    +0.001 C 
ATOM     16  C   UNL     1       2.532   1.057   3.998  0.00  0.00    +0.001 C 
ATOM     17  C   UNL     1       3.550   1.860   3.186  0.00  0.00    +0.015 C 
ATOM     18  C   UNL     1       4.710   0.949   2.779  0.00  0.00    +0.114 C 
BRANCH  18  19
ATOM     19  C   UNL     1       5.713   1.739   1.979  0.00  0.00    +0.360 C 
ATOM     20  O   UNL     1       5.854   2.932   2.187  0.00  0.00    -0.246 OA
ATOM     21  O   UNL     1       6.384   1.186   1.125  0.00  0.00    -0.246 OA
ENDBRANCH  18  19
ENDBRANCH  11  13
TORSDOF 2
