REMARK  Name = ZINC36358217
REMARK  6 active torsions:
REMARK  status: ('A' for Active; 'I' for Inactive)
REMARK    1  A    between atoms: C_1  and  O_2
REMARK    2  A    between atoms: O_2  and  C_3
REMARK    3  A    between atoms: C_6  and  C_10
REMARK    4  A    between atoms: C_8  and  O_9
REMARK    5  A    between atoms: C_13  and  O_28
REMARK    6  A    between atoms: N_19  and  C_20
REMARK                            x       y       z     vdW  Elec       q    Type
REMARK                         _______ _______ _______ _____ _____    ______ ____
ROOT
ATOM      1  C   UNL     1       2.590  -2.548   4.315  0.00  0.00    +0.080 C 
ATOM      2  C   UNL     1       1.918  -2.145   5.633  0.00  0.00    +0.110 C 
ATOM      3  C   UNL     1       2.334  -0.769   6.065  0.00  0.00    +0.190 C 
ATOM      4  N   UNL     1       3.511  -0.272   5.826  0.00  0.00    -0.197 NA
ATOM      5  C   UNL     1       4.411  -1.013   5.119  0.00  0.00    +0.165 A 
ATOM      6  C   UNL     1       4.030  -2.105   4.378  0.00  0.00    +0.094 A 
ATOM      7  N   UNL     1       5.112  -2.614   3.802  0.00  0.00    -0.237 NA
ATOM      8  C   UNL     1       6.160  -1.906   4.141  0.00  0.00    +0.206 A 
ATOM      9  N   UNL     1       5.762  -0.891   4.970  0.00  0.00    -0.283 N 
ENDROOT
BRANCH   9  10
ATOM     10  C   UNL     1       6.583   0.085   5.553  0.00  0.00    +0.051 A 
ATOM     11  C   UNL     1       6.240   1.427   5.460  0.00  0.00    +0.029 A 
ATOM     12  C   UNL     1       7.049   2.388   6.035  0.00  0.00    +0.042 A 
ATOM     13  C   UNL     1       8.202   2.013   6.704  0.00  0.00    +0.142 A 
ATOM     14  C   UNL     1       8.547   0.674   6.797  0.00  0.00    +0.078 A 
ATOM     15  C   UNL     1       7.736  -0.290   6.228  0.00  0.00    +0.049 A 
ATOM     16 CL   UNL     1       9.994   0.206   7.634  0.00  0.00    -0.081 Cl
ATOM     17  F   UNL     1       8.993   2.954   7.265  0.00  0.00    -0.204 F 
ENDBRANCH   9  10
BRANCH   1  21
ATOM     18  C   UNL     1       0.626  -0.619   1.042  0.00  0.00    +0.161 A 
ATOM     19  C   UNL     1       1.202   0.137   2.051  0.00  0.00    +0.049 A 
ATOM     20  C   UNL     1       1.836  -0.490   3.108  0.00  0.00    +0.008 A 
ATOM     21  C   UNL     1       1.897  -1.870   3.161  0.00  0.00    -0.034 A 
ATOM     22  C   UNL     1       1.325  -2.630   2.158  0.00  0.00    +0.053 A 
ATOM     23  C   UNL     1       0.683  -2.008   1.099  0.00  0.00    +0.159 A 
BRANCH  18  25
ATOM     24  C   UNL     1      -0.017   1.425   0.010  0.00  0.00    +0.277 C 
ATOM     25  O   UNL     1       0.002  -0.004   0.002  0.00  0.00    -0.491 OA
ENDBRANCH  18  25
BRANCH  23  26
ATOM     26  O   UNL     1       0.115  -2.754   0.114  0.00  0.00    -0.503 OA
ATOM     27  H   UNL     1       0.711  -2.957  -0.620  0.00  0.00    +0.292 HD
ENDBRANCH  23  26
ENDBRANCH   1  21
BRANCH   3  28
ATOM     28  O   UNL     1       1.442  -0.011   6.735  0.00  0.00    -0.495 OA
ATOM     29  H   UNL     1       1.775   0.863   6.983  0.00  0.00    +0.293 HD
ENDBRANCH   3  28
TORSDOF 5
