REMARK  Name = ZINC09307098
REMARK  6 active torsions:
REMARK  status: ('A' for Active; 'I' for Inactive)
REMARK    1  A    between atoms: C_3  and  S_22
REMARK    2  A    between atoms: C_6  and  C_7
REMARK    3  A    between atoms: C_10  and  C_12
REMARK    4  A    between atoms: N_13  and  N_14
REMARK    5  A    between atoms: C_15  and  C_16
REMARK    6  A    between atoms: S_22  and  N_25
REMARK                            x       y       z     vdW  Elec       q    Type
REMARK                         _______ _______ _______ _____ _____    ______ ____
ROOT
ATOM      1  C   UNL     1      -2.975   1.748   3.506  0.00  0.00    +0.136 A 
ATOM      2  C   UNL     1      -2.581   3.006   3.850  0.00  0.00    +0.050 A 
ATOM      3  C   UNL     1      -3.282   3.353   5.013  0.00  0.00    +0.051 A 
ATOM      4  C   UNL     1      -4.082   2.277   5.331  0.00  0.00    +0.148 A 
ATOM      5  O   UNL     1      -3.884   1.319   4.402  0.00  0.00    -0.454 OA
ENDROOT
BRANCH   1  11
ATOM      6  C   UNL     1      -2.973  -0.305   2.095  0.00  0.00    +0.013 A 
ATOM      7  C   UNL     1      -2.515  -1.013   1.004  0.00  0.00    +0.029 A 
ATOM      8  C   UNL     1      -1.579  -0.452   0.153  0.00  0.00    +0.105 A 
ATOM      9  C   UNL     1      -1.091   0.821   0.394  0.00  0.00    +0.029 A 
ATOM     10  C   UNL     1      -1.544   1.543   1.477  0.00  0.00    +0.013 A 
ATOM     11  C   UNL     1      -2.490   0.983   2.340  0.00  0.00    +0.017 A 
BRANCH   8  12
ATOM     12  S   UNL     1      -0.999  -1.365  -1.238  0.00  0.00    +0.056 S 
ATOM     13  O   UNL     1      -1.196  -2.739  -0.933  0.00  0.00    -0.153 OA
ATOM     14  O   UNL     1       0.277  -0.834  -1.569  0.00  0.00    -0.153 OA
BRANCH  12  15
ATOM     15  N   UNL     1      -2.002  -1.013  -2.507  0.00  0.00    -0.204 NA
ATOM     16  H   UNL     1      -2.743  -0.399  -2.384  0.00  0.00    +0.144 HD
ATOM     17  H   UNL     1      -1.850  -1.421  -3.374  0.00  0.00    +0.144 HD
ENDBRANCH  12  15
ENDBRANCH   8  12
ENDBRANCH   1  11
BRANCH   4  18
ATOM     18  C   UNL     1      -4.992   2.191   6.475  0.00  0.00    +0.176 C 
ATOM     19  N   UNL     1      -5.697   1.113   6.666  0.00  0.00    -0.186 NA
BRANCH  19  20
ATOM     20  N   UNL     1      -6.568   1.030   7.760  0.00  0.00    -0.221 N 
ATOM     21  C   UNL     1      -7.314  -0.110   7.962  0.00  0.00    +0.142 C 
ATOM     22  H   UNL     1      -6.646   1.776   8.375  0.00  0.00    +0.176 HD
ATOM     23  H   UNL     1      -7.827  -1.882   7.100  0.00  0.00    +0.157 HD
ATOM     24  N   UNL     1      -7.237  -1.052   7.034  0.00  0.00    -0.384 N 
ATOM     25  H   UNL     1      -6.585  -0.948   6.248  0.00  0.00    +0.157 HD
BRANCH  21  26
ATOM     26  C   UNL     1      -8.148  -0.244   9.179  0.00  0.00    +0.187 A 
ATOM     27  C   UNL     1      -8.411   0.758  10.237  0.00  0.00    +0.191 A 
ATOM     28  N   UNL     1      -9.204   0.107  11.056  0.00  0.00    -0.033 NA
ATOM     29  O   UNL     1      -9.392  -1.008  10.632  0.00  0.00    -0.240 OA
ATOM     30  N   UNL     1      -8.845  -1.281   9.589  0.00  0.00    -0.044 NA
ATOM     31  N   UNL     1      -7.938   2.060  10.337  0.00  0.00    -0.339 N 
ATOM     32  H   UNL     1      -7.293   2.393   9.694  0.00  0.00    +0.144 HD
ATOM     33  H   UNL     1      -8.254   2.637  11.050  0.00  0.00    +0.144 HD
ENDBRANCH  21  26
ENDBRANCH  19  20
ENDBRANCH   4  18
TORSDOF 6
