REMARK  Name = ZINC22645275
REMARK  1 active torsions:
REMARK  status: ('A' for Active; 'I' for Inactive)
REMARK    1  A    between atoms: N_20  and  C_21
REMARK                            x       y       z     vdW  Elec       q    Type
REMARK                         _______ _______ _______ _____ _____    ______ ____
ROOT
ATOM      1  C   UNL     1      -1.341  -4.717  -2.915  0.00  0.00    +0.003 A 
ATOM      2  C   UNL     1      -2.254  -4.208  -2.013  0.00  0.00    +0.006 A 
ATOM      3  C   UNL     1      -3.357  -3.493  -2.454  0.00  0.00    -0.020 A 
ATOM      4  C   UNL     1      -3.543  -3.279  -3.803  0.00  0.00    -0.006 A 
ATOM      5  C   UNL     1      -2.625  -3.797  -4.710  0.00  0.00    +0.127 A 
ATOM      6  C   UNL     1      -1.529  -4.513  -4.269  0.00  0.00    +0.038 A 
ATOM      7  F   UNL     1      -2.807  -3.599  -6.034  0.00  0.00    -0.205 F 
ATOM      8  C   UNL     1      -4.709  -2.499  -4.350  0.00  0.00    +0.057 C 
ATOM      9  C   UNL     1      -5.842  -2.412  -3.329  0.00  0.00    +0.113 C 
ATOM     10  N   UNL     1      -5.247  -2.025  -2.031  0.00  0.00    -0.291 N 
ATOM     11  C   UNL     1      -4.326  -2.971  -1.428  0.00  0.00    +0.124 C 
ATOM     12  C   UNL     1      -3.602  -2.455  -0.201  0.00  0.00    +0.137 C 
ATOM     13  N   UNL     1      -3.573  -0.988  -0.190  0.00  0.00    -0.274 N 
ATOM     14  C   UNL     1      -4.869  -0.292  -0.286  0.00  0.00    +0.205 C 
ATOM     15  C   UNL     1      -5.571  -0.833  -1.512  0.00  0.00    +0.234 C 
ATOM     16  O   UNL     1      -6.446  -0.175  -2.034  0.00  0.00    -0.274 OA
ATOM     17  C   UNL     1      -2.414  -0.307  -0.090  0.00  0.00    +0.307 C 
ATOM     18  O   UNL     1      -1.355  -0.904  -0.102  0.00  0.00    -0.252 OA
ATOM     19  N   UNL     1      -2.429   1.036   0.023  0.00  0.00    -0.267 N 
ATOM     20  H   UNL     1      -3.386   1.569   0.128  0.00  0.00    +0.156 HD
ENDROOT
BRANCH  19  21
ATOM     21  C   UNL     1      -1.225   1.754   0.006  0.00  0.00    +0.073 A 
ATOM     22  C   UNL     1      -0.105   1.220  -0.616  0.00  0.00    +0.029 A 
ATOM     23  C   UNL     1       1.079   1.930  -0.636  0.00  0.00    +0.043 A 
ATOM     24  C   UNL     1       1.153   3.174  -0.034  0.00  0.00    +0.161 A 
ATOM     25  C   UNL     1       0.039   3.710   0.593  0.00  0.00    +0.195 A 
ATOM     26  C   UNL     1      -1.150   3.001   0.617  0.00  0.00    +0.182 A 
ATOM     27  F   UNL     1      -2.237   3.522   1.227  0.00  0.00    -0.200 F 
ATOM     28  F   UNL     1       0.113   4.924   1.182  0.00  0.00    -0.199 F 
ATOM     29  F   UNL     1       2.313   3.867  -0.056  0.00  0.00    -0.202 F 
ENDBRANCH  19  21
TORSDOF 1
