REMARK  Name = ZINC23483411
REMARK  11 active torsions:
REMARK  status: ('A' for Active; 'I' for Inactive)
REMARK    1  A    between atoms: C_1  and  C_2
REMARK    2  A    between atoms: C_2  and  C_4
REMARK    3  A    between atoms: C_2  and  N_34
REMARK    4  A    between atoms: C_7  and  S_16
REMARK    5  A    between atoms: N_8  and  C_9
REMARK    6  A    between atoms: S_16  and  C_17
REMARK    7  A    between atoms: C_17  and  C_19
REMARK    8  A    between atoms: C_17  and  C_20
REMARK    9  A    between atoms: N_22  and  C_23
REMARK   10  A    between atoms: N_34  and  C_35
REMARK   11  A    between atoms: N_34  and  C_36
REMARK                            x       y       z     vdW  Elec       q    Type
REMARK                         _______ _______ _______ _____ _____    ______ ____
ROOT
ATOM      1  C   UNL     1      -4.407   0.048   1.661  0.00  0.00    +0.125 A 
ATOM      2  N   UNL     1      -3.918  -0.450   0.561  0.00  0.00    -0.135 NA
ATOM      3  N   UNL     1      -2.730  -0.003   0.362  0.00  0.00    -0.122 NA
ATOM      4  C   UNL     1      -2.391   0.813   1.334  0.00  0.00    +0.197 A 
ATOM      5  N   UNL     1      -3.450   0.868   2.198  0.00  0.00    -0.275 N 
ENDROOT
BRANCH   5   6
ATOM      6  C   UNL     1      -3.539   1.611   3.384  0.00  0.00    +0.050 A 
ATOM      7  C   UNL     1      -3.646   0.960   4.606  0.00  0.00    +0.028 A 
ATOM      8  C   UNL     1      -3.728   1.694   5.773  0.00  0.00    +0.022 A 
ATOM      9  C   UNL     1      -3.715   3.077   5.724  0.00  0.00    +0.041 A 
ATOM     10  C   UNL     1      -3.613   3.728   4.507  0.00  0.00    +0.022 A 
ATOM     11  C   UNL     1      -3.525   2.998   3.338  0.00  0.00    +0.028 A 
ATOM     12 CL   UNL     1      -3.825   3.997   7.193  0.00  0.00    -0.084 Cl
ENDBRANCH   5   6
BRANCH   1  14
ATOM     13  C   UNL     1      -5.782  -1.627   2.867  0.00  0.00    -0.005 C 
ATOM     14  C   UNL     1      -5.771  -0.232   2.239  0.00  0.00    -0.003 C 
BRANCH  14  15
ATOM     15  N   UNL     1      -6.778  -0.166   1.172  0.00  0.00    +0.382 N 
ATOM     16  C   UNL     1      -6.583  -1.248   0.198  0.00  0.00    -0.096 C 
ATOM     17  C   UNL     1      -8.137  -0.197   1.728  0.00  0.00    -0.096 C 
ATOM     18  H   UNL     1      -6.650   0.791   0.644  0.00  0.00    -0.082 HD
ENDBRANCH  14  15
ENDBRANCH   1  14
BRANCH   4  19
ATOM     19  S   UNL     1      -0.860   1.669   1.497  0.00  0.00    -0.073 S 
BRANCH  19  20
ATOM     20  C   UNL     1      -0.013   1.086   0.008  0.00  0.00    +0.137 C 
ATOM     21  C   UNL     1      -0.753   1.593  -1.232  0.00  0.00    +0.029 C 
BRANCH  20  22
ATOM     22  C   UNL     1       1.401   1.607  -0.003  0.00  0.00    +0.227 C 
ATOM     23  O   UNL     1       1.698   2.569   0.675  0.00  0.00    -0.275 OA
ATOM     24  N   UNL     1       2.336   1.006  -0.765  0.00  0.00    -0.308 N 
ATOM     25  H   UNL     1       2.066   0.134  -1.380  0.00  0.00    +0.149 HD
BRANCH  24  26
ATOM     26  C   UNL     1       3.710   1.513  -0.775  0.00  0.00    +0.103 C 
ATOM     27  C   UNL     1       4.381   1.123  -2.091  0.00  0.00    +0.027 C 
ATOM     28  C   UNL     1       5.872   1.469  -1.995  0.00  0.00    +0.007 C 
ATOM     29  C   UNL     1       6.526   0.508  -1.004  0.00  0.00    +0.035 C 
ATOM     30  C   UNL     1       5.756   0.476   0.290  0.00  0.00    -0.042 A 
ATOM     31  C   UNL     1       4.462   0.934   0.395  0.00  0.00    -0.024 A 
ATOM     32  C   UNL     1       3.806   0.871   1.617  0.00  0.00    +0.006 A 
ATOM     33  C   UNL     1       4.442   0.356   2.728  0.00  0.00    +0.000 A 
ATOM     34  C   UNL     1       5.742  -0.101   2.624  0.00  0.00    +0.000 A 
ATOM     35  C   UNL     1       6.395  -0.040   1.410  0.00  0.00    +0.004 A 
ENDBRANCH  24  26
ENDBRANCH  20  22
ENDBRANCH  19  20
ENDBRANCH   4  19
TORSDOF 7
