REMARK  Name = ZINC33194231
REMARK  3 active torsions:
REMARK  status: ('A' for Active; 'I' for Inactive)
REMARK    1  A    between atoms: C_2  and  C_12
REMARK    2  A    between atoms: C_13  and  C_14
REMARK    3  A    between atoms: N_16  and  C_17
REMARK                            x       y       z     vdW  Elec       q    Type
REMARK                         _______ _______ _______ _____ _____    ______ ____
ROOT
ATOM      1  C   UNL     1      -2.484   5.166   0.155  0.00  0.00    +0.241 C 
ATOM      2  O   UNL     1      -1.441   5.794   0.149  0.00  0.00    -0.270 OA
ATOM      3  N   UNL     1      -2.462   3.823   0.046  0.00  0.00    -0.281 N 
ATOM      4  H   UNL     1      -3.405   3.263  -0.040  0.00  0.00    +0.155 HD
ENDROOT
BRANCH   3   5
ATOM      5  C   UNL     1      -1.240   3.141   0.042  0.00  0.00    +0.056 A 
ATOM      6  C   UNL     1      -0.125   3.711   0.644  0.00  0.00    +0.072 A 
ATOM      7  C   UNL     1       1.081   3.034   0.638  0.00  0.00    +0.144 A 
ATOM      8  C   UNL     1       1.176   1.784   0.029  0.00  0.00    +0.077 A 
ATOM      9  C   UNL     1       0.063   1.217  -0.571  0.00  0.00    +0.048 A 
ATOM     10  C   UNL     1      -1.142   1.896  -0.570  0.00  0.00    +0.064 A 
ATOM     11 CL   UNL     1      -2.535   1.191  -1.327  0.00  0.00    -0.082 Cl
ATOM     12  N   UNL     1       2.408   1.111   0.031  0.00  0.00    -0.280 N 
ATOM     13  C   UNL     1       3.378   1.524   0.876  0.00  0.00    +0.255 C 
ATOM     14  O   UNL     1       4.461   0.978   0.874  0.00  0.00    -0.272 OA
ATOM     15  C   UNL     1       3.108   2.667   1.823  0.00  0.00    +0.325 C 
ATOM     16  O   UNL     1       2.182   3.578   1.224  0.00  0.00    -0.481 OA
ATOM     17  H   UNL     1       2.573   0.263  -0.649  0.00  0.00    +0.155 HD
ENDBRANCH   3   5
BRANCH   1  19
ATOM     18  C   UNL     1      -3.782   7.214   0.392  0.00  0.00    +0.013 C 
ATOM     19  C   UNL     1      -3.760   5.869   0.282  0.00  0.00    +0.068 C 
BRANCH  18  21
ATOM     20  C   UNL     1      -5.090   9.314   0.638  0.00  0.00    +0.057 A 
ATOM     21  C   UNL     1      -5.064   7.920   0.518  0.00  0.00    -0.020 A 
ATOM     22  C   UNL     1      -6.265   7.201   0.526  0.00  0.00    +0.031 A 
ATOM     23  C   UNL     1      -7.465   7.867   0.644  0.00  0.00    +0.087 A 
ATOM     24  C   UNL     1      -7.489   9.254   0.757  0.00  0.00    +0.180 A 
ATOM     25  C   UNL     1      -6.298   9.976   0.752  0.00  0.00    +0.164 A 
ATOM     26  O   UNL     1      -6.306  11.332   0.866  0.00  0.00    -0.485 OA
ATOM     27  C   UNL     1      -7.550  11.992   0.608  0.00  0.00    +0.270 C 
ATOM     28  C   UNL     1      -8.658  11.236   1.353  0.00  0.00    +0.270 C 
ATOM     29  O   UNL     1      -8.687   9.890   0.869  0.00  0.00    -0.483 OA
ATOM     30 CL   UNL     1      -8.953   6.973   0.652  0.00  0.00    -0.080 Cl
ENDBRANCH  18  21
ENDBRANCH   1  19
TORSDOF 3
