REMARK  Name = ZINC03067000
REMARK  4 active torsions:
REMARK  status: ('A' for Active; 'I' for Inactive)
REMARK    1  A    between atoms: C_3  and  C_10
REMARK    2  A    between atoms: C_5  and  N_7
REMARK    3  A    between atoms: N_12  and  N_13
REMARK    4  A    between atoms: N_13  and  C_14
REMARK                            x       y       z     vdW  Elec       q    Type
REMARK                         _______ _______ _______ _____ _____    ______ ____
ROOT
ATOM      1  C   UNL     1      -4.981   1.167  -0.020  0.00  0.00    +0.260 C 
ATOM      2  O   UNL     1      -4.967  -0.048  -0.047  0.00  0.00    -0.269 OA
ATOM      3  N   UNL     1      -6.155   1.827   0.014  0.00  0.00    -0.233 N 
ATOM      4  H   UNL     1      -6.167   2.927   0.038  0.00  0.00    +0.173 HD
ENDROOT
BRANCH   1   7
ATOM      5  C   UNL     1      -2.530   4.013   0.001  0.00  0.00    +0.003 A 
ATOM      6  C   UNL     1      -3.721   3.316   0.006  0.00  0.00    +0.013 A 
ATOM      7  C   UNL     1      -3.709   1.921  -0.025  0.00  0.00    +0.040 A 
ATOM      8  C   UNL     1      -2.490   1.240  -0.060  0.00  0.00    +0.045 A 
ATOM      9  C   UNL     1      -1.307   1.949  -0.064  0.00  0.00    +0.127 A 
ATOM     10  C   UNL     1      -1.326   3.332  -0.029  0.00  0.00    +0.033 A 
BRANCH   9  11
ATOM     11  N   UNL     1      -0.015   1.229  -0.101  0.00  0.00    +0.056 N 
ATOM     12  O   UNL     1       0.004   0.011  -0.128  0.00  0.00    -0.126 OA
ATOM     13  O   UNL     1       1.031   1.854  -0.110  0.00  0.00    -0.126 OA
ENDBRANCH   9  11
ENDBRANCH   1   7
BRANCH   3  14
ATOM     14  N   UNL     1      -7.360   1.113   0.018  0.00  0.00    -0.271 N 
ATOM     15  H   UNL     1      -7.348   0.013  -0.006  0.00  0.00    +0.169 HD
BRANCH  14  16
ATOM     16  C   UNL     1      -8.535   1.773   0.053  0.00  0.00    +0.106 C 
ATOM     17  C   UNL     1      -9.724   1.075  -0.050  0.00  0.00    +0.116 C 
ATOM     18  C   UNL     1      -9.751  -0.399  -0.069  0.00  0.00    +0.276 C 
ATOM     19  O   UNL     1      -8.722  -1.044   0.007  0.00  0.00    -0.268 OA
ATOM     20  N   UNL     1     -10.948  -1.013  -0.167  0.00  0.00    -0.154 NA
ATOM     21  C   UNL     1     -12.089  -0.314  -0.256  0.00  0.00    +0.164 C 
ATOM     22  S   UNL     1     -13.561  -1.179  -0.383  0.00  0.00    -0.016 S 
ATOM     23  N   UNL     1     -12.138   1.025  -0.251  0.00  0.00    -0.262 N 
ATOM     24  C   UNL     1     -11.019   1.772  -0.153  0.00  0.00    +0.256 C 
ATOM     25  O   UNL     1     -11.076   2.987  -0.149  0.00  0.00    -0.270 OA
ATOM     26  H   UNL     1     -13.107   1.540  -0.328  0.00  0.00    +0.157 HD
ENDBRANCH  14  16
ENDBRANCH   3  14
TORSDOF 4
