REMARK  Name = ZINC06275823
REMARK  6 active torsions:
REMARK  status: ('A' for Active; 'I' for Inactive)
REMARK    1  A    between atoms: C_1  and  C_2
REMARK    2  A    between atoms: C_4  and  C_26
REMARK    3  A    between atoms: C_8  and  N_14
REMARK    4  A    between atoms: C_9  and  C_11
REMARK    5  A    between atoms: C_15  and  C_17
REMARK    6  A    between atoms: C_20  and  N_23
REMARK                            x       y       z     vdW  Elec       q    Type
REMARK                         _______ _______ _______ _____ _____    ______ ____
ROOT
ATOM      1  C   UNL     1      -4.115  -0.963  -0.015  0.00  0.00    +0.044 C 
ATOM      2  C   UNL     1      -3.754  -2.421   0.102  0.00  0.00    -0.037 A 
ATOM      3  C   UNL     1      -4.672  -3.332   0.569  0.00  0.00    +0.033 A 
ATOM      4  C   UNL     1      -4.337  -4.674   0.676  0.00  0.00    +0.108 A 
ATOM      5  N   UNL     1      -3.134  -5.092   0.332  0.00  0.00    -0.239 NA
ATOM      6  C   UNL     1      -2.221  -4.259  -0.120  0.00  0.00    +0.111 A 
ATOM      7  C   UNL     1      -2.463  -2.874  -0.267  0.00  0.00    +0.033 A 
ATOM      8  C   UNL     1      -1.342  -2.102  -0.781  0.00  0.00    +0.063 A 
ATOM      9  C   UNL     1      -0.174  -2.766  -1.079  0.00  0.00    +0.097 A 
ATOM     10  S   UNL     1      -0.543  -4.459  -0.665  0.00  0.00    -0.062 S 
ENDROOT
BRANCH   9  11
ATOM     11  C   UNL     1       1.073  -2.214  -1.608  0.00  0.00    +0.250 C 
ATOM     12  O   UNL     1       1.207  -1.008  -1.716  0.00  0.00    -0.270 OA
ATOM     13  N   UNL     1       2.073  -3.039  -1.976  0.00  0.00    -0.325 N 
ATOM     14  H   UNL     1       1.966  -3.999  -1.889  0.00  0.00    +0.145 HD
ATOM     15  H   UNL     1       2.900  -2.672  -2.326  0.00  0.00    +0.145 HD
ENDBRANCH   9  11
BRANCH   8  16
ATOM     16  N   UNL     1      -1.450  -0.729  -0.972  0.00  0.00    -0.280 N 
ATOM     17  C   UNL     1      -0.545   0.102  -0.418  0.00  0.00    +0.248 C 
ATOM     18  O   UNL     1       0.330  -0.344   0.298  0.00  0.00    -0.270 OA
ATOM     19  H   UNL     1      -2.177  -0.369  -1.504  0.00  0.00    +0.155 HD
BRANCH  17  20
ATOM     20  C   UNL     1      -0.617   1.554  -0.681  0.00  0.00    +0.037 A 
ATOM     21  C   UNL     1      -1.617   2.069  -1.507  0.00  0.00    +0.015 A 
ATOM     22  C   UNL     1      -1.682   3.426  -1.745  0.00  0.00    +0.033 A 
ATOM     23  C   UNL     1      -0.750   4.276  -1.175  0.00  0.00    +0.126 A 
ATOM     24  C   UNL     1       0.247   3.772  -0.358  0.00  0.00    +0.033 A 
ATOM     25  C   UNL     1       0.319   2.417  -0.108  0.00  0.00    +0.015 A 
BRANCH  23  26
ATOM     26  N   UNL     1      -0.822   5.731  -1.439  0.00  0.00    +0.056 N 
ATOM     27  O   UNL     1      -0.004   6.481  -0.938  0.00  0.00    -0.126 OA
ATOM     28  O   UNL     1      -1.698   6.177  -2.157  0.00  0.00    -0.126 OA
ENDBRANCH  23  26
ENDBRANCH  17  20
ENDBRANCH   8  16
BRANCH   4  29
ATOM     29  C   UNL     1      -5.353  -5.660   1.189  0.00  0.00    +0.390 C 
ATOM     30  F   UNL     1      -4.697  -6.709   1.843  0.00  0.00    -0.202 F 
ATOM     31  F   UNL     1      -6.215  -5.019   2.085  0.00  0.00    -0.202 F 
ENDBRANCH   4  29
TORSDOF 5
