REMARK  Name = ZINC36695526
REMARK  3 active torsions:
REMARK  status: ('A' for Active; 'I' for Inactive)
REMARK    1  A    between atoms: C_1  and  C_2
REMARK    2  A    between atoms: C_12  and  C_14
REMARK    3  A    between atoms: C_16  and  C_26
REMARK                            x       y       z     vdW  Elec       q    Type
REMARK                         _______ _______ _______ _____ _____    ______ ____
ROOT
ATOM      1  C   UNL     1       0.339   1.557   0.050  0.00  0.00    +0.046 C 
ATOM      2  C   UNL     1       0.323   0.051   0.036  0.00  0.00    -0.023 A 
ATOM      3  C   UNL     1       0.355  -0.616  -1.161  0.00  0.00    +0.025 A 
ATOM      4  C   UNL     1       0.342  -2.003  -1.219  0.00  0.00    +0.042 A 
ATOM      5  C   UNL     1       0.296  -2.730  -0.042  0.00  0.00    +0.037 A 
ATOM      6  C   UNL     1       0.265  -2.070   1.161  0.00  0.00    +0.042 A 
ATOM      7  C   UNL     1       0.282  -0.659   1.258  0.00  0.00    +0.083 A 
ATOM      8  N   UNL     1       0.253  -0.159   2.512  0.00  0.00    -0.224 NA
ATOM      9  C   UNL     1       0.216  -0.926   3.577  0.00  0.00    +0.166 A 
ATOM     10  S   UNL     1       0.205  -2.566   2.865  0.00  0.00    -0.052 S 
ATOM     11  N   UNL     1       0.183  -0.558   4.912  0.00  0.00    -0.261 N 
ATOM     12  C   UNL     1       0.146  -1.504   5.871  0.00  0.00    +0.263 C 
ATOM     13  O   UNL     1       0.052  -2.674   5.566  0.00  0.00    -0.271 OA
ATOM     14 CL   UNL     1       0.381  -2.817  -2.752  0.00  0.00    -0.083 Cl
ATOM     15  H   UNL     1       0.186   0.381   5.157  0.00  0.00    +0.157 HD
ENDROOT
BRANCH  12  16
ATOM     16  C   UNL     1       0.223  -1.108   7.323  0.00  0.00    +0.299 C 
ATOM     17  C   UNL     1      -1.103  -0.467   7.755  0.00  0.00    +0.220 C 
ATOM     18  O   UNL     1      -2.148  -1.427   7.564  0.00  0.00    -0.481 OA
ATOM     19  C   UNL     1      -1.909  -2.689   8.014  0.00  0.00    +0.163 A 
ATOM     20  C   UNL     1      -2.973  -3.561   8.195  0.00  0.00    +0.049 A 
ATOM     21  C   UNL     1      -2.746  -4.846   8.648  0.00  0.00    +0.004 A 
ATOM     22  C   UNL     1      -1.458  -5.268   8.921  0.00  0.00    +0.004 A 
ATOM     23  C   UNL     1      -0.393  -4.405   8.744  0.00  0.00    +0.049 A 
ATOM     24  C   UNL     1      -0.615  -3.112   8.291  0.00  0.00    +0.163 A 
ATOM     25  O   UNL     1       0.444  -2.271   8.130  0.00  0.00    -0.472 OA
ATOM     26  C   UNL     1      -1.379   0.773   6.903  0.00  0.00    +0.056 C 
ENDBRANCH  12  16
TORSDOF 1
