REMARK  Name = ZINC64622847
REMARK  6 active torsions:
REMARK  status: ('A' for Active; 'I' for Inactive)
REMARK    1  A    between atoms: C_1  and  O_2
REMARK    2  A    between atoms: O_2  and  C_3
REMARK    3  A    between atoms: C_6  and  N_11
REMARK    4  A    between atoms: C_7  and  O_9
REMARK    5  A    between atoms: O_9  and  C_10
REMARK    6  A    between atoms: C_27  and  C_29
REMARK                            x       y       z     vdW  Elec       q    Type
REMARK                         _______ _______ _______ _____ _____    ______ ____
ROOT
ATOM      1  N   UNL     1      -5.026  -2.959  -0.084  0.00  0.00    -0.266 N 
ATOM      2  C   UNL     1      -6.072  -2.124   0.080  0.00  0.00    +0.307 C 
ATOM      3  O   UNL     1      -5.888  -0.924   0.138  0.00  0.00    -0.252 OA
ATOM      4  N   UNL     1      -7.321  -2.621   0.179  0.00  0.00    -0.276 N 
ATOM      5  C   UNL     1      -7.525  -4.073   0.200  0.00  0.00    +0.114 C 
ATOM      6  C   UNL     1      -8.459  -4.477  -0.955  0.00  0.00    +0.052 C 
ATOM      7  C   UNL     1      -9.606  -3.497  -0.947  0.00  0.00    -0.035 C 
ATOM      8  C   UNL     1     -10.920  -3.684  -0.938  0.00  0.00    -0.001 A 
ATOM      9  C   UNL     1     -11.737  -4.904  -1.044  0.00  0.00    +0.010 A 
ATOM     10  C   UNL     1     -13.083  -4.731  -0.978  0.00  0.00    +0.001 A 
ATOM     11  C   UNL     1     -13.692  -3.483  -0.819  0.00  0.00    +0.002 A 
ATOM     12  C   UNL     1     -13.019  -2.308  -0.721  0.00  0.00    +0.026 A 
ATOM     13  C   UNL     1     -11.596  -2.360  -0.786  0.00  0.00    +0.043 A 
ATOM     14  N   UNL     1     -10.717  -1.403  -0.743  0.00  0.00    -0.375 N 
ATOM     15  C   UNL     1      -9.388  -1.988  -0.924  0.00  0.00    +0.131 C 
ATOM     16  C   UNL     1      -8.465  -1.700   0.270  0.00  0.00    +0.137 C 
ATOM     17  H   UNL     1      -5.177  -3.912  -0.179  0.00  0.00    +0.156 HD
ATOM     18  H   UNL     1     -10.909  -0.461  -0.614  0.00  0.00    +0.160 HD
ENDROOT
BRANCH  16  19
ATOM     19  C   UNL     1      -9.206  -1.934   1.561  0.00  0.00    +0.010 A 
ATOM     20  C   UNL     1      -9.711  -3.187   1.851  0.00  0.00    +0.008 A 
ATOM     21  C   UNL     1     -10.391  -3.402   3.035  0.00  0.00    +0.000 A 
ATOM     22  C   UNL     1     -10.567  -2.364   3.931  0.00  0.00    +0.003 A 
ATOM     23  C   UNL     1     -10.063  -1.110   3.644  0.00  0.00    +0.039 A 
ATOM     24  C   UNL     1      -9.377  -0.895   2.460  0.00  0.00    +0.128 A 
ATOM     25  F   UNL     1      -8.879   0.330   2.180  0.00  0.00    -0.205 F 
ENDBRANCH  16  19
BRANCH   1  29
ATOM     26  C   UNL     1      -1.138  -1.438  -0.179  0.00  0.00    +0.124 A 
ATOM     27  C   UNL     1      -2.207  -0.640  -0.560  0.00  0.00    +0.047 A 
ATOM     28  C   UNL     1      -3.494  -1.143  -0.529  0.00  0.00    +0.030 A 
ATOM     29  C   UNL     1      -3.719  -2.448  -0.116  0.00  0.00    +0.077 A 
ATOM     30  C   UNL     1      -2.647  -3.251   0.266  0.00  0.00    +0.145 A 
ATOM     31  C   UNL     1      -1.358  -2.745   0.229  0.00  0.00    +0.093 A 
BRANCH  26  33
ATOM     32  C   UNL     1       0.280   0.414  -0.640  0.00  0.00    +0.277 C 
ATOM     33  O   UNL     1       0.126  -0.940  -0.210  0.00  0.00    -0.495 OA
ENDBRANCH  26  33
BRANCH  30  34
ATOM     34  O   UNL     1      -2.865  -4.530   0.671  0.00  0.00    -0.493 OA
ATOM     35  C   UNL     1      -1.719  -5.295   1.049  0.00  0.00    +0.277 C 
ENDBRANCH  30  34
ENDBRANCH   1  29
TORSDOF 4
