REMARK  Name = ZINC14162141
REMARK  6 active torsions:
REMARK  status: ('A' for Active; 'I' for Inactive)
REMARK    1  A    between atoms: C_1  and  N_2
REMARK    2  A    between atoms: N_2  and  C_3
REMARK    3  A    between atoms: N_2  and  C_4
REMARK    4  A    between atoms: C_7  and  N_9
REMARK    5  A    between atoms: N_15  and  S_18
REMARK    6  A    between atoms: S_18  and  C_21
REMARK                            x       y       z     vdW  Elec       q    Type
REMARK                         _______ _______ _______ _____ _____    ______ ____
ROOT
ATOM      1  N   UNL     1      -1.184   1.864   0.007  0.00  0.00    -0.268 N 
ATOM      2  C   UNL     1      -0.102   1.277  -0.541  0.00  0.00    +0.307 C 
ATOM      3  O   UNL     1      -0.204   0.185  -1.067  0.00  0.00    -0.252 OA
ATOM      4  N   UNL     1       1.092   1.901  -0.509  0.00  0.00    -0.283 N 
ATOM      5  C   UNL     1       1.208   3.268   0.019  0.00  0.00    +0.126 C 
ATOM      6  C   UNL     1       2.266   3.268   1.135  0.00  0.00    +0.128 C 
ATOM      7  N   UNL     1       3.474   2.597   0.636  0.00  0.00    -0.174 NA
ATOM      8  C   UNL     1       3.357   1.232   0.102  0.00  0.00    +0.128 C 
ATOM      9  C   UNL     1       2.301   1.230  -1.009  0.00  0.00    +0.126 C 
ATOM     10  H   UNL     1      -1.129   2.778   0.328  0.00  0.00    +0.156 HD
ENDROOT
BRANCH   1  14
ATOM     11  C   UNL     1      -4.687  -0.293   0.327  0.00  0.00    +0.098 A 
ATOM     12  C   UNL     1      -4.773   1.081   0.128  0.00  0.00    +0.043 A 
ATOM     13  C   UNL     1      -3.610   1.820   0.018  0.00  0.00    +0.028 A 
ATOM     14  C   UNL     1      -2.389   1.155   0.113  0.00  0.00    +0.051 A 
ATOM     15  C   UNL     1      -2.380  -0.218   0.307  0.00  0.00    +0.107 A 
ATOM     16  N   UNL     1      -3.507  -0.970   0.424  0.00  0.00    -0.348 N 
ATOM     17  H   UNL     1      -3.472  -1.985   0.576  0.00  0.00    +0.167 HD
BRANCH  11  19
ATOM     18  C   UNL     1      -7.157  -0.412   0.238  0.00  0.00    +0.130 C 
ATOM     19  N   UNL     1      -5.852  -1.047   0.439  0.00  0.00    -0.323 N 
ATOM     20  C   UNL     1      -5.774  -2.474   0.758  0.00  0.00    +0.130 C 
ENDBRANCH  11  19
ENDBRANCH   1  14
BRANCH   7  21
ATOM     21  S   UNL     1       4.941   3.364   0.673  0.00  0.00    +0.061 S 
ATOM     22  O   UNL     1       4.858   4.350   1.694  0.00  0.00    -0.153 OA
ATOM     23  O   UNL     1       5.933   2.346   0.677  0.00  0.00    -0.153 OA
BRANCH  21  24
ATOM     24  C   UNL     1       5.115   4.231  -0.851  0.00  0.00    +0.106 A 
ATOM     25  C   UNL     1       5.704   3.610  -1.936  0.00  0.00    +0.029 A 
ATOM     26  C   UNL     1       5.836   4.288  -3.133  0.00  0.00    +0.017 A 
ATOM     27  C   UNL     1       5.388   5.592  -3.242  0.00  0.00    +0.018 A 
ATOM     28  C   UNL     1       4.803   6.215  -2.155  0.00  0.00    +0.017 A 
ATOM     29  C   UNL     1       4.666   5.534  -0.959  0.00  0.00    +0.029 A 
ATOM     30 BR   UNL     1       5.574   6.522  -4.878  0.00  0.00    -0.050 Br
ENDBRANCH  21  24
ENDBRANCH   7  21
TORSDOF 4
