REMARK  Name = ZINC16357322
REMARK  4 active torsions:
REMARK  status: ('A' for Active; 'I' for Inactive)
REMARK    1  A    between atoms: C_3  and  N_11
REMARK    2  A    between atoms: C_4  and  N_8
REMARK    3  A    between atoms: C_16  and  N_17
REMARK    4  A    between atoms: C_16  and  N_44
REMARK                            x       y       z     vdW  Elec       q    Type
REMARK                         _______ _______ _______ _____ _____    ______ ____
ROOT
ATOM      1  N   UNL     1       2.401   1.107  -0.015  0.00  0.00    -0.332 N 
ATOM      2  C   UNL     1       2.554   0.328  -1.252  0.00  0.00    +0.086 C 
ATOM      3  C   UNL     1       3.933  -0.336  -1.265  0.00  0.00    -0.057 C 
ATOM      4  C   UNL     1       3.917  -0.419   1.154  0.00  0.00    -0.057 C 
ATOM      5  C   UNL     1       2.538   0.245   1.167  0.00  0.00    +0.086 C 
ATOM      6  N   UNL     1       4.050  -1.217  -0.084  0.00  0.00    +0.395 N 
ATOM      7  H   UNL     1       3.298  -1.915  -0.113  0.00  0.00    -0.079 HD
ENDROOT
BRANCH   1  10
ATOM      8  C   UNL     1      -1.218   1.751   0.017  0.00  0.00    +0.022 A 
ATOM      9  C   UNL     1      -0.013   1.076   0.008  0.00  0.00    +0.027 A 
ATOM     10  C   UNL     1       1.180   1.787   0.000  0.00  0.00    +0.060 A 
ATOM     11  C   UNL     1       1.158   3.176   0.008  0.00  0.00    +0.148 A 
ATOM     12  C   UNL     1      -0.050   3.846   0.022  0.00  0.00    +0.054 A 
ATOM     13  C   UNL     1      -1.237   3.134   0.030  0.00  0.00    +0.043 A 
ATOM     14 CL   UNL     1      -2.753   3.979   0.048  0.00  0.00    -0.083 Cl
BRANCH  11  15
ATOM     15  N   UNL     1       2.427   3.938   0.000  0.00  0.00    +0.058 N 
ATOM     16  O   UNL     1       2.406   5.155   0.006  0.00  0.00    -0.126 OA
ATOM     17  O   UNL     1       3.492   3.346  -0.013  0.00  0.00    -0.126 OA
ENDBRANCH  11  15
ENDBRANCH   1  10
BRANCH   6  18
ATOM     18  C   UNL     1       5.354  -1.913  -0.099  0.00  0.00    +0.072 C 
BRANCH  18  19
ATOM     19  N   UNL     1       5.580  -2.480  -1.431  0.00  0.00    -0.257 N 
ATOM     20  C   UNL     1       5.202  -3.705  -1.850  0.00  0.00    +0.181 A 
ATOM     21  S   UNL     1       4.372  -4.877  -0.918  0.00  0.00    -0.011 S 
ATOM     22  N   UNL     1       5.592  -3.842  -3.133  0.00  0.00    -0.276 N 
ATOM     23  C   UNL     1       5.457  -4.880  -4.025  0.00  0.00    +0.115 A 
ATOM     24  C   UNL     1       5.946  -4.779  -5.275  0.00  0.00    +0.059 A 
ATOM     25  C   UNL     1       6.606  -3.605  -5.694  0.00  0.00    +0.045 A 
ATOM     26  C   UNL     1       6.752  -2.568  -4.833  0.00  0.00    +0.087 A 
ATOM     27  C   UNL     1       6.234  -2.680  -3.516  0.00  0.00    +0.178 A 
ATOM     28  N   UNL     1       6.234  -1.851  -2.499  0.00  0.00    -0.151 NA
ATOM     29 CL   UNL     1       7.562  -1.117  -5.335  0.00  0.00    -0.080 Cl
ATOM     30 CL   UNL     1       5.762  -6.104  -6.381  0.00  0.00    -0.082 Cl
ENDBRANCH  18  19
ENDBRANCH   6  18
TORSDOF 4
