REMARK  Name = ZINC09353118
REMARK  5 active torsions:
REMARK  status: ('A' for Active; 'I' for Inactive)
REMARK    1  A    between atoms: C_3  and  C_10
REMARK    2  A    between atoms: C_5  and  N_7
REMARK    3  A    between atoms: C_10  and  C_12
REMARK    4  A    between atoms: C_22  and  C_24
REMARK    5  A    between atoms: N_28  and  C_31
REMARK                            x       y       z     vdW  Elec       q    Type
REMARK                         _______ _______ _______ _____ _____    ______ ____
ROOT
ATOM      1  C   UNL     1      -0.531   1.975  -1.304  0.00  0.00    +0.141 C 
ATOM      2  C   UNL     1      -0.059   1.233  -0.046  0.00  0.00    +0.116 C 
ATOM      3  C   UNL     1       1.462   1.570   0.052  0.00  0.00    +0.113 C 
ATOM      4  C   UNL     1       1.581   2.915  -0.675  0.00  0.00    +0.093 C 
ATOM      5  C   UNL     1       0.371   4.008  -2.574  0.00  0.00    +0.054 C 
ATOM      6  C   UNL     1       1.555   4.337  -3.132  0.00  0.00    +0.032 C 
ATOM      7  C   UNL     1       2.784   3.649  -2.691  0.00  0.00    +0.051 C 
ATOM      8  C   UNL     1       2.826   2.969  -1.526  0.00  0.00    +0.013 C 
ATOM      9  C   UNL     1       1.622   1.794   1.548  0.00  0.00    +0.232 C 
ATOM     10  O   UNL     1       2.663   1.741   2.166  0.00  0.00    -0.274 OA
ATOM     11  N   UNL     1       0.413   2.060   2.066  0.00  0.00    -0.210 N 
ATOM     12  C   UNL     1      -0.604   1.884   1.207  0.00  0.00    +0.232 C 
ATOM     13  O   UNL     1      -1.760   2.192   1.402  0.00  0.00    -0.274 OA
ATOM     14  N   UNL     1       0.310   3.200  -1.290  0.00  0.00    -0.384 NA
ATOM     15  H   UNL     1      -0.161   3.829  -0.629  0.00  0.00    +0.127 HD
ENDROOT
BRANCH  11  16
ATOM     16  C   UNL     1       0.228   2.486   3.389  0.00  0.00    +0.044 A 
ATOM     17  C   UNL     1      -0.424   1.665   4.300  0.00  0.00    +0.025 A 
ATOM     18  C   UNL     1      -0.600   2.084   5.604  0.00  0.00    +0.022 A 
ATOM     19  C   UNL     1      -0.137   3.326   6.001  0.00  0.00    +0.041 A 
ATOM     20  C   UNL     1       0.507   4.149   5.094  0.00  0.00    +0.022 A 
ATOM     21  C   UNL     1       0.691   3.732   3.790  0.00  0.00    +0.025 A 
ATOM     22 CL   UNL     1      -0.366   3.853   7.639  0.00  0.00    -0.084 Cl
ENDBRANCH  11  16
BRANCH   1  23
ATOM     23  C   UNL     1      -0.579   1.023  -2.471  0.00  0.00    +0.183 C 
ATOM     24  O   UNL     1       0.325   1.008  -3.279  0.00  0.00    -0.290 OA
BRANCH  23  27
ATOM     25  C   UNL     1      -3.837  -0.732  -1.855  0.00  0.00    +0.003 A 
ATOM     26  C   UNL     1      -2.768   0.125  -1.700  0.00  0.00    +0.011 A 
ATOM     27  C   UNL     1      -1.723   0.111  -2.629  0.00  0.00    +0.021 A 
ATOM     28  C   UNL     1      -1.774  -0.771  -3.714  0.00  0.00    +0.044 A 
ATOM     29  C   UNL     1      -2.847  -1.626  -3.853  0.00  0.00    +0.127 A 
ATOM     30  C   UNL     1      -3.877  -1.605  -2.928  0.00  0.00    +0.033 A 
BRANCH  29  31
ATOM     31  N   UNL     1      -2.901  -2.564  -4.996  0.00  0.00    +0.056 N 
ATOM     32  O   UNL     1      -3.850  -3.316  -5.123  0.00  0.00    -0.126 OA
ATOM     33  O   UNL     1      -1.995  -2.583  -5.811  0.00  0.00    -0.126 OA
ENDBRANCH  29  31
ENDBRANCH  23  27
ENDBRANCH   1  23
BRANCH   7  34
ATOM     34  C   UNL     1       3.954   3.705  -3.515  0.00  0.00    +0.099 C 
ATOM     35  N   UNL     1       4.883   3.750  -4.168  0.00  0.00    -0.191 NA
ENDBRANCH   7  34
TORSDOF 5
