REMARK  Name = ZINC13352507
REMARK  8 active torsions:
REMARK  status: ('A' for Active; 'I' for Inactive)
REMARK    1  A    between atoms: C_1  and  C_2
REMARK    2  A    between atoms: C_2  and  C_4
REMARK    3  A    between atoms: C_2  and  S_16
REMARK    4  A    between atoms: N_6  and  C_7
REMARK    5  A    between atoms: C_10  and  C_13
REMARK    6  A    between atoms: S_16  and  C_17
REMARK    7  A    between atoms: C_20  and  C_29
REMARK    8  A    between atoms: N_21  and  C_22
REMARK                            x       y       z     vdW  Elec       q    Type
REMARK                         _______ _______ _______ _____ _____    ______ ____
ROOT
ATOM      1  C   UNL     1       2.445   7.709   1.369  0.00  0.00    +0.029 C 
ATOM      2  C   UNL     1       1.482   7.825   0.186  0.00  0.00    +0.137 C 
ENDROOT
BRANCH   2   3
ATOM      3  C   UNL     1       0.994   9.246   0.072  0.00  0.00    +0.230 C 
ATOM      4  O   UNL     1      -0.056   9.570   0.586  0.00  0.00    -0.274 OA
ATOM      5  N   UNL     1       1.725  10.158  -0.599  0.00  0.00    -0.285 N 
ATOM      6  H   UNL     1       2.599   9.920  -0.944  0.00  0.00    +0.155 HD
BRANCH   5   7
ATOM      7  C   UNL     1       1.223  11.444  -0.799  0.00  0.00    +0.033 A 
ATOM      8  C   UNL     1      -0.143  11.636  -0.978  0.00  0.00    +0.024 A 
ATOM      9  C   UNL     1      -0.643  12.904  -1.170  0.00  0.00    +0.015 A 
ATOM     10  C   UNL     1       0.226  13.999  -1.196  0.00  0.00    +0.037 A 
ATOM     11  C   UNL     1       1.598  13.802  -1.021  0.00  0.00    +0.015 A 
ATOM     12  C   UNL     1       2.090  12.531  -0.824  0.00  0.00    +0.024 A 
BRANCH  10  13
ATOM     13  C   UNL     1      -0.305  15.359  -1.407  0.00  0.00    +0.242 C 
ATOM     14  O   UNL     1       0.451  16.311  -1.429  0.00  0.00    -0.270 OA
ATOM     15  N   UNL     1      -1.629  15.547  -1.576  0.00  0.00    -0.325 N 
ATOM     16  H   UNL     1      -2.233  14.788  -1.558  0.00  0.00    +0.145 HD
ATOM     17  H   UNL     1      -1.978  16.442  -1.714  0.00  0.00    +0.145 HD
ENDBRANCH  10  13
ENDBRANCH   5   7
ENDBRANCH   2   3
BRANCH   2  18
ATOM     18  S   UNL     1       0.071   6.722   0.446  0.00  0.00    -0.075 S 
BRANCH  18  19
ATOM     19  C   UNL     1       0.888   5.162   0.390  0.00  0.00    +0.175 A 
ATOM     20  N   UNL     1       2.181   4.981   0.204  0.00  0.00    -0.229 NA
ATOM     21  C   UNL     1       2.466   3.682   0.223  0.00  0.00    +0.147 A 
ATOM     22  C   UNL     1       1.290   2.990   0.424  0.00  0.00    +0.156 A 
ATOM     23  N   UNL     1       0.288   3.950   0.533  0.00  0.00    -0.282 N 
BRANCH  23  24
ATOM     24  C   UNL     1      -1.077   3.714   0.748  0.00  0.00    +0.049 A 
ATOM     25  C   UNL     1      -2.005   4.056  -0.227  0.00  0.00    +0.029 A 
ATOM     26  C   UNL     1      -3.348   3.817  -0.015  0.00  0.00    +0.040 A 
ATOM     27  C   UNL     1      -3.772   3.248   1.174  0.00  0.00    +0.124 A 
ATOM     28  C   UNL     1      -2.849   2.911   2.150  0.00  0.00    +0.040 A 
ATOM     29  C   UNL     1      -1.504   3.143   1.940  0.00  0.00    +0.029 A 
ATOM     30  F   UNL     1      -5.087   3.020   1.382  0.00  0.00    -0.205 F 
ENDBRANCH  23  24
BRANCH  22  31
ATOM     31  C   UNL     1       1.133   1.584   0.508  0.00  0.00    +0.405 C 
ATOM     32  O   UNL     1       2.102   0.856   0.394  0.00  0.00    -0.239 OA
ATOM     33  O   UNL     1      -0.090   1.052   0.715  0.00  0.00    -0.239 OA
ENDBRANCH  22  31
ENDBRANCH  18  19
ENDBRANCH   2  18
TORSDOF 7
