REMARK  Name = ZINC67605008
REMARK  9 active torsions:
REMARK  status: ('A' for Active; 'I' for Inactive)
REMARK    1  A    between atoms: C_1  and  C_2
REMARK    2  A    between atoms: C_2  and  C_3
REMARK    3  A    between atoms: C_2  and  C_4
REMARK    4  A    between atoms: C_6  and  N_14
REMARK    5  A    between atoms: C_8  and  C_10
REMARK    6  A    between atoms: N_14  and  C_15
REMARK    7  A    between atoms: C_15  and  C_16
REMARK    8  A    between atoms: C_21  and  N_22
REMARK    9  A    between atoms: C_26  and  O_29
REMARK                            x       y       z     vdW  Elec       q    Type
REMARK                         _______ _______ _______ _____ _____    ______ ____
ROOT
ATOM      1  C   UNL     1      -3.294  -0.980   3.857  0.00  0.00    +0.141 C 
ENDROOT
BRANCH   1   2
ATOM      2  C   UNL     1      -4.405  -1.250   4.839  0.00  0.00    +0.008 A 
ATOM      3  C   UNL     1      -5.062  -0.203   5.460  0.00  0.00    +0.010 A 
ATOM      4  C   UNL     1      -6.079  -0.498   6.358  0.00  0.00    +0.018 A 
ATOM      5  C   UNL     1      -6.402  -1.817   6.604  0.00  0.00    +0.084 A 
ATOM      6  N   UNL     1      -5.758  -2.796   5.997  0.00  0.00    -0.349 N 
ATOM      7  C   UNL     1      -4.787  -2.555   5.130  0.00  0.00    +0.104 A 
ATOM      8  H   UNL     1      -6.005  -3.715   6.188  0.00  0.00    +0.167 HD
BRANCH   7   9
ATOM      9  N   UNL     1      -4.139  -3.617   4.509  0.00  0.00    -0.314 N 
ATOM     10  C   UNL     1      -4.660  -4.183   3.258  0.00  0.00    +0.106 C 
ATOM     11  C   UNL     1      -4.837  -5.694   3.436  0.00  0.00    +0.021 C 
ATOM     12  C   UNL     1      -3.514  -6.308   3.901  0.00  0.00    +0.034 C 
ATOM     13  C   UNL     1      -3.117  -5.705   5.250  0.00  0.00    +0.132 C 
ATOM     14  C   UNL     1      -2.917  -4.191   5.089  0.00  0.00    +0.137 C 
BRANCH  13  15
ATOM     15  O   UNL     1      -1.898  -6.301   5.698  0.00  0.00    -0.390 OA
ATOM     16  H   UNL     1      -1.949  -7.260   5.818  0.00  0.00    +0.210 HD
ENDBRANCH  13  15
ENDBRANCH   7   9
ENDBRANCH   1   2
BRANCH   1  17
ATOM     17  N   UNL     1      -3.796  -1.157   2.492  0.00  0.00    -0.325 N 
ATOM     18  H   UNL     1      -4.721  -1.411   2.344  0.00  0.00    +0.148 HD
BRANCH  17  21
ATOM     19  C   UNL     1      -0.815  -0.413   0.504  0.00  0.00    +0.049 A 
ATOM     20  C   UNL     1      -1.618  -0.595   1.612  0.00  0.00    +0.067 A 
ATOM     21  C   UNL     1      -2.950  -0.961   1.412  0.00  0.00    +0.123 A 
ATOM     22  N   UNL     1      -3.394  -1.119   0.169  0.00  0.00    -0.209 NA
ATOM     23  C   UNL     1      -2.593  -0.935  -0.860  0.00  0.00    +0.236 A 
ATOM     24  N   UNL     1      -1.332  -0.584  -0.705  0.00  0.00    -0.229 NA
BRANCH  23  25
ATOM     25  C   UNL     1      -3.134  -1.124  -2.254  0.00  0.00    +0.452 C 
ATOM     26  F   UNL     1      -4.532  -1.146  -2.212  0.00  0.00    -0.163 F 
ATOM     27  F   UNL     1      -2.709  -0.067  -3.067  0.00  0.00    -0.163 F 
ATOM     28  F   UNL     1      -2.664  -2.333  -2.777  0.00  0.00    -0.163 F 
ENDBRANCH  23  25
BRANCH  19  30
ATOM     29  C   UNL     1       0.730   1.503   0.809  0.00  0.00    +0.014 C 
ATOM     30  C   UNL     1       0.630  -0.017   0.666  0.00  0.00    +0.032 C 
ATOM     31  C   UNL     1       1.205  -0.686   1.916  0.00  0.00    +0.014 C 
ENDBRANCH  19  30
ENDBRANCH  17  21
ENDBRANCH   1  17
TORSDOF 7
