REMARK  Name = ZINC12323329
REMARK  3 active torsions:
REMARK  status: ('A' for Active; 'I' for Inactive)
REMARK    1  A    between atoms: C_2  and  N_9
REMARK    2  A    between atoms: C_10  and  C_12
REMARK    3  A    between atoms: C_29  and  C_32
REMARK                            x       y       z     vdW  Elec       q    Type
REMARK                         _______ _______ _______ _____ _____    ______ ____
ROOT
ATOM      1  C   UNL     1       2.115   5.666   0.097  0.00  0.00    +0.122 C 
ATOM      2  C   UNL     1       1.322   6.265   1.261  0.00  0.00    +0.114 C 
ATOM      3  C   UNL     1       1.448   7.766   1.239  0.00  0.00    +0.219 C 
ATOM      4  O   UNL     1       0.495   8.452   1.542  0.00  0.00    -0.275 OA
ATOM      5  N   UNL     1       2.604   8.353   0.887  0.00  0.00    -0.270 N 
ATOM      6  C   UNL     1       3.675   7.600   0.436  0.00  0.00    +0.138 A 
ATOM      7  C   UNL     1       3.486   6.285   0.051  0.00  0.00    +0.069 A 
ATOM      8  C   UNL     1       4.586   5.538  -0.382  0.00  0.00    +0.258 A 
ATOM      9  O   UNL     1       4.454   4.371  -0.717  0.00  0.00    -0.267 OA
ATOM     10  N   UNL     1       5.797   6.133  -0.422  0.00  0.00    -0.295 N 
ATOM     11  H   UNL     1       6.576   5.628  -0.704  0.00  0.00    +0.172 HD
ATOM     12  C   UNL     1       5.926   7.440  -0.065  0.00  0.00    +0.200 A 
ATOM     13  N   UNL     1       4.893   8.146   0.344  0.00  0.00    -0.200 NA
ATOM     14  N   UNL     1       7.157   8.035  -0.136  0.00  0.00    -0.301 N 
ATOM     15  C   UNL     1       8.306   7.314  -0.702  0.00  0.00    +0.108 C 
ATOM     16  C   UNL     1       8.931   8.173  -1.806  0.00  0.00    +0.032 C 
ATOM     17  C   UNL     1       9.272   9.554  -1.241  0.00  0.00    +0.078 C 
ATOM     18  C   UNL     1       7.991  10.241  -0.762  0.00  0.00    +0.032 C 
ATOM     19  C   UNL     1       7.354   9.408   0.349  0.00  0.00    +0.108 C 
ATOM     20  H   UNL     1       2.690   9.317   0.950  0.00  0.00    +0.156 HD
ENDROOT
BRANCH  17  21
ATOM     21  C   UNL     1       9.918  10.390  -2.315  0.00  0.00    +0.214 C 
ATOM     22  O   UNL     1      10.089   9.927  -3.423  0.00  0.00    -0.276 OA
ATOM     23  N   UNL     1      10.306  11.652  -2.045  0.00  0.00    -0.329 N 
ATOM     24  H   UNL     1      10.169  12.022  -1.159  0.00  0.00    +0.145 HD
ATOM     25  H   UNL     1      10.722  12.190  -2.736  0.00  0.00    +0.145 HD
ENDBRANCH  17  21
BRANCH   1  27
ATOM     26  N   UNL     1       1.848   3.335  -0.685  0.00  0.00    -0.285 N 
ATOM     27  C   UNL     1       2.242   4.177   0.290  0.00  0.00    +0.225 C 
ATOM     28  O   UNL     1       2.699   3.736   1.324  0.00  0.00    -0.275 OA
ATOM     29  H   UNL     1       1.547   3.687  -1.538  0.00  0.00    +0.155 HD
BRANCH  26  31
ATOM     30  C   UNL     1       1.529   1.436   0.773  0.00  0.00    +0.043 A 
ATOM     31  C   UNL     1       1.874   1.952  -0.469  0.00  0.00    +0.036 A 
ATOM     32  C   UNL     1       2.243   1.095  -1.497  0.00  0.00    +0.043 A 
ATOM     33  C   UNL     1       2.267  -0.271  -1.281  0.00  0.00    +0.044 A 
ATOM     34  C   UNL     1       1.923  -0.782  -0.042  0.00  0.00    +0.040 A 
ATOM     35  C   UNL     1       1.555   0.070   0.984  0.00  0.00    +0.044 A 
ATOM     36 CL   UNL     1       1.125  -0.576   2.537  0.00  0.00    -0.083 Cl
ATOM     37 CL   UNL     1       2.729  -1.344  -2.564  0.00  0.00    -0.083 Cl
ENDBRANCH  26  31
ENDBRANCH   1  27
TORSDOF 3
