REMARK  Name = ZINC20573312
REMARK  11 active torsions:
REMARK  status: ('A' for Active; 'I' for Inactive)
REMARK    1  A    between atoms: C_1  and  C_2
REMARK    2  A    between atoms: C_2  and  C_3
REMARK    3  A    between atoms: C_3  and  C_5
REMARK    4  A    between atoms: C_3  and  C_6
REMARK    5  A    between atoms: C_9  and  N_12
REMARK    6  A    between atoms: N_12  and  C_13
REMARK    7  A    between atoms: C_13  and  N_15
REMARK    8  A    between atoms: N_15  and  C_16
REMARK    9  A    between atoms: C_19  and  S_22
REMARK   10  A    between atoms: S_22  and  N_25
REMARK   11  A    between atoms: N_25  and  C_26
REMARK                            x       y       z     vdW  Elec       q    Type
REMARK                         _______ _______ _______ _____ _____    ______ ____
ROOT
ATOM      1  C   UNL     1       6.594   3.975   0.164  0.00  0.00    +0.033 A 
ATOM      2  C   UNL     1       7.608   3.114  -0.237  0.00  0.00    +0.025 A 
ATOM      3  C   UNL     1       7.294   1.931  -0.876  0.00  0.00    +0.030 A 
ATOM      4  C   UNL     1       5.973   1.603  -1.117  0.00  0.00    +0.109 A 
ATOM      5  C   UNL     1       4.961   2.460  -0.724  0.00  0.00    +0.030 A 
ATOM      6  C   UNL     1       5.268   3.643  -0.080  0.00  0.00    +0.025 A 
ENDROOT
BRANCH   4   7
ATOM      7  S   UNL     1       5.577   0.092  -1.933  0.00  0.00    +0.072 S 
ATOM      8  O   UNL     1       6.762  -0.339  -2.587  0.00  0.00    -0.150 OA
ATOM      9  O   UNL     1       4.359   0.314  -2.630  0.00  0.00    -0.150 OA
BRANCH   7  10
ATOM     10  N   UNL     1       5.251  -1.028  -0.757  0.00  0.00    -0.216 N 
ATOM     11  H   UNL     1       4.248  -1.475  -0.685  0.00  0.00    +0.174 HD
BRANCH  10  12
ATOM     12  C   UNL     1       6.250  -1.407   0.143  0.00  0.00    +0.048 A 
ATOM     13  C   UNL     1       5.959  -1.527   1.496  0.00  0.00    +0.024 A 
ATOM     14  C   UNL     1       6.949  -1.901   2.383  0.00  0.00    +0.002 A 
ATOM     15  C   UNL     1       8.229  -2.155   1.926  0.00  0.00    +0.000 A 
ATOM     16  C   UNL     1       8.523  -2.035   0.580  0.00  0.00    +0.002 A 
ATOM     17  C   UNL     1       7.537  -1.662  -0.313  0.00  0.00    +0.024 A 
ENDBRANCH  10  12
ENDBRANCH   7  10
ENDBRANCH   4   7
BRANCH   1  18
ATOM     18  N   UNL     1       6.909   5.174   0.812  0.00  0.00    -0.297 N 
ATOM     19  H   UNL     1       7.636   5.179   1.637  0.00  0.00    +0.154 HD
BRANCH  18  20
ATOM     20  C   UNL     1       6.320   6.324   0.426  0.00  0.00    +0.139 C 
ATOM     21  S   UNL     1       5.109   6.300  -0.784  0.00  0.00    -0.018 S 
BRANCH  20  22
ATOM     22  N   UNL     1       6.686   7.491   0.991  0.00  0.00    -0.297 N 
ATOM     23  H   UNL     1       7.506   7.514   1.724  0.00  0.00    +0.154 HD
BRANCH  22  27
ATOM     24  C   UNL     1       4.710  11.011  -0.036  0.00  0.00    -0.044 A 
ATOM     25  C   UNL     1       5.008  10.749   1.289  0.00  0.00    +0.006 A 
ATOM     26  C   UNL     1       5.663   9.583   1.633  0.00  0.00    +0.023 A 
ATOM     27  C   UNL     1       6.022   8.673   0.646  0.00  0.00    +0.033 A 
ATOM     28  C   UNL     1       5.726   8.942  -0.683  0.00  0.00    +0.023 A 
ATOM     29  C   UNL     1       5.065  10.108  -1.020  0.00  0.00    +0.006 A 
BRANCH  24  30
ATOM     30  C   UNL     1       3.994  12.285  -0.407  0.00  0.00    +0.016 C 
ATOM     31  C   UNL     1       4.869  13.101  -1.361  0.00  0.00    +0.012 C 
BRANCH  30  33
ATOM     32  C   UNL     1       1.888  13.232  -1.359  0.00  0.00    +0.004 C 
ATOM     33  C   UNL     1       2.671  11.945  -1.094  0.00  0.00    +0.004 C 
ENDBRANCH  30  33
ENDBRANCH  24  30
ENDBRANCH  22  27
ENDBRANCH  20  22
ENDBRANCH  18  20
ENDBRANCH   1  18
TORSDOF 9
