REMARK  Name = ZINC17913906
REMARK  6 active torsions:
REMARK  status: ('A' for Active; 'I' for Inactive)
REMARK    1  A    between atoms: C_1  and  C_2
REMARK    2  A    between atoms: N_11  and  C_15
REMARK    3  A    between atoms: C_15  and  C_16
REMARK    4  A    between atoms: N_18  and  C_19
REMARK    5  A    between atoms: C_19  and  C_20
REMARK    6  A    between atoms: N_22  and  C_23
REMARK                            x       y       z     vdW  Elec       q    Type
REMARK                         _______ _______ _______ _____ _____    ______ ____
ROOT
ATOM      1  C   UNL     1      -3.265  -1.884   2.387  0.00  0.00    +0.231 C 
ATOM      2  O   UNL     1      -2.358  -2.218   1.654  0.00  0.00    -0.274 OA
ATOM      3  N   UNL     1      -4.238  -2.763   2.698  0.00  0.00    -0.305 N 
ATOM      4  H   UNL     1      -4.963  -2.495   3.284  0.00  0.00    +0.149 HD
ENDROOT
BRANCH   1   5
ATOM      5  C   UNL     1      -3.303  -0.486   2.950  0.00  0.00    +0.213 C 
BRANCH   5  15
ATOM      6  C   UNL     1      -1.547   3.565   2.530  0.00  0.00    +0.010 C 
ATOM      7  C   UNL     1      -0.808   3.109   1.270  0.00  0.00    +0.018 C 
ATOM      8  C   UNL     1      -1.555   3.610   0.032  0.00  0.00    +0.006 C 
ATOM      9  C   UNL     1      -0.827   3.135  -1.228  0.00  0.00    +0.000 C 
ATOM     10  C   UNL     1      -0.787   1.606  -1.251  0.00  0.00    +0.003 C 
ATOM     11  C   UNL     1      -0.038   1.097  -0.017  0.00  0.00    +0.035 C 
ATOM     12  C   UNL     1      -0.743   1.585   1.244  0.00  0.00    +0.115 C 
ATOM     13  C   UNL     1      -2.132   0.997   1.332  0.00  0.00    +0.247 C 
ATOM     14  O   UNL     1      -3.045   1.149   0.548  0.00  0.00    -0.273 OA
ATOM     15  N   UNL     1      -2.143   0.267   2.466  0.00  0.00    -0.215 N 
ATOM     16  C   UNL     1      -0.963   0.316   3.096  0.00  0.00    +0.310 C 
ATOM     17  O   UNL     1      -0.728  -0.262   4.139  0.00  0.00    -0.252 OA
ATOM     18  N   UNL     1      -0.064   1.078   2.443  0.00  0.00    -0.285 N 
ATOM     19  H   UNL     1       0.851   1.257   2.712  0.00  0.00    +0.151 HD
ENDBRANCH   5  15
ENDBRANCH   1   5
BRANCH   3  20
ATOM     20  C   UNL     1      -4.201  -4.121   2.150  0.00  0.00    +0.200 C 
BRANCH  20  21
ATOM     21  C   UNL     1      -5.394  -4.896   2.648  0.00  0.00    +0.234 C 
ATOM     22  O   UNL     1      -6.197  -4.365   3.387  0.00  0.00    -0.274 OA
ATOM     23  N   UNL     1      -5.570  -6.178   2.271  0.00  0.00    -0.284 N 
ATOM     24  H   UNL     1      -4.966  -6.581   1.628  0.00  0.00    +0.155 HD
BRANCH  23  25
ATOM     25  C   UNL     1      -6.623  -6.927   2.809  0.00  0.00    +0.036 A 
ATOM     26  C   UNL     1      -6.458  -8.285   3.050  0.00  0.00    +0.026 A 
ATOM     27  C   UNL     1      -7.496  -9.022   3.586  0.00  0.00    +0.043 A 
ATOM     28  C   UNL     1      -8.705  -8.412   3.871  0.00  0.00    +0.159 A 
ATOM     29  C   UNL     1      -8.875  -7.058   3.625  0.00  0.00    +0.160 A 
ATOM     30  C   UNL     1      -7.836  -6.316   3.095  0.00  0.00    +0.064 A 
ATOM     31  F   UNL     1     -10.056  -6.464   3.905  0.00  0.00    -0.202 F 
ATOM     32  F   UNL     1      -9.721  -9.137   4.389  0.00  0.00    -0.202 F 
ENDBRANCH  23  25
ENDBRANCH  20  21
ENDBRANCH   3  20
TORSDOF 5
