REMARK  Name = ZINC63350846
REMARK  3 active torsions:
REMARK  status: ('A' for Active; 'I' for Inactive)
REMARK    1  A    between atoms: C_1  and  C_2
REMARK    2  A    between atoms: N_19  and  N_22
REMARK    3  A    between atoms: C_23  and  C_24
REMARK                            x       y       z     vdW  Elec       q    Type
REMARK                         _______ _______ _______ _____ _____    ______ ____
ROOT
ATOM      1  C   UNL     1       0.199   1.109   0.487  0.00  0.00    +0.044 C 
ATOM      2  C   UNL     1       0.074  -0.366   0.103  0.00  0.00    +0.136 C 
ATOM      3  C   UNL     1      -1.395  -0.644   0.072  0.00  0.00    +0.139 C 
ATOM      4  C   UNL     1      -1.688  -1.925   0.835  0.00  0.00    -0.034 C 
ATOM      5  C   UNL     1      -2.441  -2.674   0.043  0.00  0.00    -0.001 A 
ATOM      6  C   UNL     1      -3.103  -3.971   0.252  0.00  0.00    +0.010 A 
ATOM      7  C   UNL     1      -3.803  -4.465  -0.803  0.00  0.00    +0.001 A 
ATOM      8  C   UNL     1      -3.908  -3.808  -2.032  0.00  0.00    +0.002 A 
ATOM      9  C   UNL     1      -3.336  -2.610  -2.312  0.00  0.00    +0.026 A 
ATOM     10  C   UNL     1      -2.580  -1.985  -1.278  0.00  0.00    +0.043 A 
ATOM     11  N   UNL     1      -1.947  -0.864  -1.264  0.00  0.00    -0.375 N 
ATOM     12  C   UNL     1      -1.082  -2.174   2.194  0.00  0.00    +0.052 C 
ATOM     13  C   UNL     1       0.435  -2.121   2.000  0.00  0.00    +0.113 C 
ATOM     14  N   UNL     1       0.868  -1.082   1.085  0.00  0.00    -0.284 N 
ATOM     15  C   UNL     1       2.203  -0.754   1.100  0.00  0.00    +0.236 C 
ATOM     16  O   UNL     1       2.957  -1.198   1.940  0.00  0.00    -0.274 OA
ATOM     17  C   UNL     1       2.686   0.189   0.018  0.00  0.00    +0.230 C 
ATOM     18  N   UNL     1       2.076  -0.212  -1.263  0.00  0.00    -0.182 N 
ATOM     19  C   UNL     1       0.734  -0.472  -1.248  0.00  0.00    +0.261 C 
ATOM     20  O   UNL     1       0.118  -0.768  -2.250  0.00  0.00    -0.271 OA
ATOM     21  H   UNL     1      -1.860  -0.265  -2.022  0.00  0.00    +0.160 HD
ENDROOT
BRANCH  18  22
ATOM     22  N   UNL     1       2.834  -0.320  -2.437  0.00  0.00    -0.184 NA
ATOM     23  C   UNL     1       4.099  -0.033  -2.421  0.00  0.00    +0.138 C 
BRANCH  23  24
ATOM     24  C   UNL     1       4.924  -0.269  -3.621  0.00  0.00    -0.005 A 
ATOM     25  C   UNL     1       4.345  -0.796  -4.777  0.00  0.00    +0.011 A 
ATOM     26  C   UNL     1       5.121  -1.014  -5.896  0.00  0.00    +0.020 A 
ATOM     27  C   UNL     1       6.473  -0.712  -5.874  0.00  0.00    +0.041 A 
ATOM     28  C   UNL     1       7.053  -0.189  -4.731  0.00  0.00    +0.020 A 
ATOM     29  C   UNL     1       6.287   0.039  -3.607  0.00  0.00    +0.011 A 
ATOM     30 CL   UNL     1       7.444  -0.990  -7.286  0.00  0.00    -0.084 Cl
ENDBRANCH  23  24
ENDBRANCH  18  22
TORSDOF 2
