REMARK  Name = ZINC20848412
REMARK  7 active torsions:
REMARK  status: ('A' for Active; 'I' for Inactive)
REMARK    1  A    between atoms: C_1  and  O_2
REMARK    2  A    between atoms: O_2  and  C_3
REMARK    3  A    between atoms: C_6  and  N_10
REMARK    4  A    between atoms: C_11  and  C_13
REMARK    5  A    between atoms: C_13  and  N_14
REMARK    6  A    between atoms: N_17  and  C_21
REMARK    7  A    between atoms: C_21  and  C_22
REMARK                            x       y       z     vdW  Elec       q    Type
REMARK                         _______ _______ _______ _____ _____    ______ ____
ROOT
ATOM      1  N   UNL     1      -6.026   2.914  -0.238  0.00  0.00    +0.446 N 
ATOM      2  C   UNL     1      -6.718   2.245   0.873  0.00  0.00    -0.026 C 
ATOM      3  C   UNL     1      -7.836   1.341   0.359  0.00  0.00    +0.092 C 
ATOM      4  N   UNL     1      -7.596   1.010  -1.058  0.00  0.00    -0.191 NA
ATOM      5  S   UNL     1      -6.763   2.348  -1.626  0.00  0.00    +0.016 S 
ATOM      6  O   UNL     1      -7.727   3.316  -2.019  0.00  0.00    -0.173 OA
ATOM      7  O   UNL     1      -5.738   1.873  -2.488  0.00  0.00    -0.173 OA
ATOM      8  H   UNL     1      -5.246   3.553   0.201  0.00  0.00    -0.043 HD
ENDROOT
BRANCH   1   9
ATOM      9  C   UNL     1      -4.926   3.877  -0.147  0.00  0.00    +0.054 C 
BRANCH   9  11
ATOM     10  N   UNL     1      -2.460   3.822   0.045  0.00  0.00    -0.287 N 
ATOM     11  C   UNL     1      -3.617   3.136  -0.049  0.00  0.00    +0.204 C 
ATOM     12  O   UNL     1      -3.604   1.923  -0.055  0.00  0.00    -0.277 OA
ATOM     13  H   UNL     1      -2.476   4.918   0.138  0.00  0.00    +0.155 HD
BRANCH  10  17
ATOM     14  C   UNL     1       1.181   1.789  -0.016  0.00  0.00    +0.138 A 
ATOM     15  C   UNL     1       1.044   2.943   0.741  0.00  0.00    +0.049 A 
ATOM     16  C   UNL     1      -0.163   3.614   0.765  0.00  0.00    +0.027 A 
ATOM     17  C   UNL     1      -1.237   3.139   0.024  0.00  0.00    +0.035 A 
ATOM     18  C   UNL     1      -1.100   1.983  -0.733  0.00  0.00    +0.047 A 
ATOM     19  C   UNL     1       0.107   1.310  -0.753  0.00  0.00    +0.084 A 
ATOM     20 CL   UNL     1       0.279  -0.135  -1.700  0.00  0.00    -0.080 Cl
BRANCH  14  22
ATOM     21  C   UNL     1       3.431   1.675   0.747  0.00  0.00    +0.277 C 
ATOM     22  O   UNL     1       2.368   1.126  -0.035  0.00  0.00    -0.494 OA
ENDBRANCH  14  22
ENDBRANCH  10  17
ENDBRANCH   9  11
ENDBRANCH   1   9
BRANCH   4  23
ATOM     23  C   UNL     1      -7.995  -0.194  -1.791  0.00  0.00    +0.143 C 
BRANCH  23  24
ATOM     24  C   UNL     1      -9.407  -0.033  -2.290  0.00  0.00    -0.013 A 
ATOM     25  C   UNL     1      -9.642   0.223  -3.628  0.00  0.00    +0.009 A 
ATOM     26  C   UNL     1     -10.937   0.370  -4.088  0.00  0.00    +0.039 A 
ATOM     27  C   UNL     1     -12.001   0.260  -3.208  0.00  0.00    +0.125 A 
ATOM     28  C   UNL     1     -11.766   0.003  -1.868  0.00  0.00    +0.058 A 
ATOM     29  C   UNL     1     -10.469  -0.148  -1.411  0.00  0.00    +0.048 A 
ATOM     30 CL   UNL     1     -10.174  -0.478   0.268  0.00  0.00    -0.083 Cl
ATOM     31  F   UNL     1     -13.267   0.403  -3.657  0.00  0.00    -0.205 F 
ENDBRANCH  23  24
ENDBRANCH   4  23
TORSDOF 6
