REMARK  Name = ZINC43641653
REMARK  9 active torsions:
REMARK  status: ('A' for Active; 'I' for Inactive)
REMARK    1  A    between atoms: C_1  and  C_2
REMARK    2  A    between atoms: C_6  and  S_34
REMARK    3  A    between atoms: C_16  and  N_20
REMARK    4  A    between atoms: N_20  and  C_21
REMARK    5  A    between atoms: C_21  and  C_22
REMARK    6  A    between atoms: C_22  and  C_23
REMARK    7  A    between atoms: C_31  and  C_32
REMARK    8  A    between atoms: C_31  and  C_33
REMARK    9  A    between atoms: S_34  and  C_37
REMARK                            x       y       z     vdW  Elec       q    Type
REMARK                         _______ _______ _______ _____ _____    ______ ____
ROOT
ATOM      1  C   UNL     1       0.183   1.696   0.320  0.00  0.00    +0.066 C 
ATOM      2  C   UNL     1       0.164   0.192   0.222  0.00  0.00    +0.051 A 
ATOM      3  C   UNL     1       0.173  -0.448  -1.031  0.00  0.00    +0.022 A 
ATOM      4  C   UNL     1       0.200   0.272  -2.234  0.00  0.00    +0.013 A 
ATOM      5  C   UNL     1       0.209  -0.401  -3.419  0.00  0.00    +0.028 A 
ATOM      6  C   UNL     1       0.190  -1.793  -3.452  0.00  0.00    +0.090 A 
ATOM      7  C   UNL     1       0.164  -2.524  -2.303  0.00  0.00    +0.055 A 
ATOM      8  C   UNL     1       0.155  -1.866  -1.064  0.00  0.00    +0.078 A 
ATOM      9  N   UNL     1       0.130  -2.537   0.095  0.00  0.00    -0.214 NA
ATOM     10  C   UNL     1       0.122  -1.883   1.240  0.00  0.00    +0.219 A 
ATOM     11  N   UNL     1       0.144  -0.553   1.308  0.00  0.00    -0.219 NA
ATOM     12  N   UNL     1       0.096  -2.607   2.418  0.00  0.00    -0.300 N 
ATOM     13  C   UNL     1       0.083  -4.081   2.342  0.00  0.00    +0.108 C 
ATOM     14  C   UNL     1      -0.896  -4.706   3.352  0.00  0.00    +0.017 C 
ATOM     15  C   UNL     1      -2.167  -3.895   3.411  0.00  0.00    -0.014 C 
ATOM     16  C   UNL     1      -2.046  -2.845   4.511  0.00  0.00    -0.070 C 
ATOM     17  C   UNL     1      -1.381  -1.602   4.090  0.00  0.00    +0.003 C 
ATOM     18  C   UNL     1       0.087  -1.889   3.673  0.00  0.00    +0.106 C 
ENDROOT
BRANCH   6  19
ATOM     19  S   UNL     1       0.201  -2.623  -5.006  0.00  0.00    -0.006 S 
ATOM     20  O   UNL     1      -0.423  -3.875  -4.753  0.00  0.00    -0.170 OA
ATOM     21  O   UNL     1      -0.377  -1.697  -5.916  0.00  0.00    -0.170 OA
ATOM     22  C   UNL     1       1.956  -2.866  -5.393  0.00  0.00    +0.200 C 
ENDBRANCH   6  19
BRANCH  16  23
ATOM     23  N   UNL     1      -3.395  -2.510   4.987  0.00  0.00    +0.381 N 
ATOM     24  H   UNL     1      -3.908  -2.051   4.249  0.00  0.00    -0.086 HD
ATOM     25  H   UNL     1      -3.876  -3.356   5.255  0.00  0.00    -0.086 HD
BRANCH  23  26
ATOM     26  C   UNL     1      -3.297  -1.613   6.146  0.00  0.00    -0.078 C 
BRANCH  26  27
ATOM     27  C   UNL     1      -4.693  -1.373   6.724  0.00  0.00    +0.012 C 
BRANCH  27  28
ATOM     28  C   UNL     1      -4.592  -0.453   7.914  0.00  0.00    -0.072 C 
ATOM     29  C   UNL     1      -4.776   0.842   7.792  0.00  0.00    -0.027 C 
ATOM     30  C   UNL     1      -4.674   1.728   9.010  0.00  0.00    +0.031 C 
ATOM     31  C   UNL     1      -4.274   0.887  10.229  0.00  0.00    -0.000 C 
ATOM     32  C   UNL     1      -3.133  -0.099   9.927  0.00  0.00    +0.012 C 
ATOM     33  C   UNL     1      -4.281  -0.987   9.301  0.00  0.00    +0.021 C 
ATOM     34  C   UNL     1      -5.186  -0.350  10.365  0.00  0.00    -0.025 C 
ATOM     35  C   UNL     1      -6.622  -0.116   9.892  0.00  0.00    +0.012 C 
ATOM     36  C   UNL     1      -5.108  -1.030  11.733  0.00  0.00    +0.012 C 
ENDBRANCH  27  28
ENDBRANCH  26  27
ENDBRANCH  23  26
ENDBRANCH  16  23
TORSDOF 5
