REMARK  Name = ZINC13387848
REMARK  7 active torsions:
REMARK  status: ('A' for Active; 'I' for Inactive)
REMARK    1  A    between atoms: C_1  and  C_2
REMARK    2  A    between atoms: C_2  and  C_4
REMARK    3  A    between atoms: C_2  and  O_34
REMARK    4  A    between atoms: C_7  and  N_10
REMARK    5  A    between atoms: C_11  and  C_13
REMARK    6  A    between atoms: C_17  and  C_28
REMARK    7  A    between atoms: C_20  and  C_24
REMARK                            x       y       z     vdW  Elec       q    Type
REMARK                         _______ _______ _______ _____ _____    ______ ____
ROOT
ATOM      1  C   UNL     1       3.059  -1.981   6.960  0.00  0.00    +0.129 C 
ATOM      2  C   UNL     1       4.130  -2.821   6.952  0.00  0.00    +0.086 C 
ATOM      3  C   UNL     1       4.516  -3.042   8.341  0.00  0.00    +0.150 C 
ATOM      4  N   UNL     1       5.474  -3.778   8.836  0.00  0.00    -0.258 NA
ATOM      5  C   UNL     1       5.629  -3.860  10.293  0.00  0.00    +0.146 C 
ATOM      6  C   UNL     1       5.204  -2.548  10.954  0.00  0.00    +0.065 C 
ATOM      7  C   UNL     1       3.747  -2.229  10.585  0.00  0.00    +0.202 C 
ATOM      8  N   UNL     1       3.647  -2.289   9.123  0.00  0.00    -0.224 N 
ATOM      9  N   UNL     1       2.750  -1.653   8.272  0.00  0.00    -0.257 N 
ATOM     10 BR   UNL     1       4.962  -3.562   5.425  0.00  0.00    -0.045 Br
ATOM     11  H   UNL     1       2.022  -1.075   8.551  0.00  0.00    +0.170 HD
ENDROOT
BRANCH   5  12
ATOM     12  C   UNL     1       4.772  -4.982  10.822  0.00  0.00    +0.014 A 
ATOM     13  C   UNL     1       5.051  -5.883  11.795  0.00  0.00    +0.013 A 
ATOM     14  C   UNL     1       4.103  -6.835  12.119  0.00  0.00    +0.008 A 
ATOM     15  C   UNL     1       2.922  -6.839  11.453  0.00  0.00    +0.045 A 
ATOM     16  S   UNL     1       3.124  -5.463  10.334  0.00  0.00    -0.099 S 
ENDBRANCH   5  12
BRANCH   7  17
ATOM     17  C   UNL     1       3.380  -0.827  11.076  0.00  0.00    +0.410 C 
ATOM     18  F   UNL     1       4.225   0.113  10.477  0.00  0.00    -0.169 F 
ATOM     19  F   UNL     1       2.053  -0.546  10.736  0.00  0.00    -0.169 F 
ATOM     20  F   UNL     1       3.528  -0.767  12.466  0.00  0.00    -0.169 F 
ENDBRANCH   7  17
BRANCH   1  22
ATOM     21  N   UNL     1       2.732  -1.873   4.574  0.00  0.00    -0.208 NA
ATOM     22  C   UNL     1       2.347  -1.493   5.768  0.00  0.00    +0.294 C 
ATOM     23  O   UNL     1       1.295  -0.653   5.904  0.00  0.00    -0.264 OA
BRANCH  21  27
ATOM     24  C   UNL     1       0.731  -0.503   1.223  0.00  0.00    -0.019 A 
ATOM     25  C   UNL     1       2.115  -0.512   1.243  0.00  0.00    +0.008 A 
ATOM     26  C   UNL     1       2.789  -0.967   2.357  0.00  0.00    +0.028 A 
ATOM     27  C   UNL     1       2.071  -1.420   3.467  0.00  0.00    +0.068 A 
ATOM     28  C   UNL     1       0.673  -1.408   3.439  0.00  0.00    +0.028 A 
ATOM     29  C   UNL     1       0.013  -0.945   2.321  0.00  0.00    +0.008 A 
BRANCH  24  31
ATOM     30  C   UNL     1      -0.019   1.526   0.010  0.00  0.00    +0.043 C 
ATOM     31  C   UNL     1       0.002  -0.004   0.002  0.00  0.00    +0.141 C 
BRANCH  31  32
ATOM     32  O   UNL     1       0.671  -0.465  -1.174  0.00  0.00    -0.387 OA
ATOM     33  H   UNL     1       0.256  -0.181  -1.999  0.00  0.00    +0.210 HD
ENDBRANCH  31  32
ENDBRANCH  24  31
ENDBRANCH  21  27
ENDBRANCH   1  22
TORSDOF 6
