REMARK  Name = ZINC09202043
REMARK  2 active torsions:
REMARK  status: ('A' for Active; 'I' for Inactive)
REMARK    1  A    between atoms: C_5  and  C_7
REMARK    2  A    between atoms: C_14  and  C_15
REMARK                            x       y       z     vdW  Elec       q    Type
REMARK                         _______ _______ _______ _____ _____    ______ ____
ROOT
ATOM      1  C   UNL     1       1.001  -1.725   0.102  0.00  0.00    +0.179 C 
ATOM      2  C   UNL     1       0.432  -2.481   1.272  0.00  0.00    +0.036 A 
ATOM      3  C   UNL     1      -0.811  -3.091   1.226  0.00  0.00    +0.110 A 
ATOM      4  C   UNL     1      -1.262  -3.767   2.366  0.00  0.00    +0.310 A 
ATOM      5  N   UNL     1      -0.497  -3.808   3.444  0.00  0.00    -0.104 NA
ATOM      6  N   UNL     1       0.656  -3.247   3.489  0.00  0.00    -0.145 NA
ATOM      7  C   UNL     1       1.165  -2.583   2.459  0.00  0.00    +0.101 A 
ATOM      8  O   UNL     1      -2.476  -4.375   2.365  0.00  0.00    -0.262 OA
ATOM      9  N   UNL     1      -1.603  -3.047   0.075  0.00  0.00    -0.278 N 
ATOM     10  C   UNL     1      -1.000  -2.606  -1.093  0.00  0.00    +0.240 A 
ATOM     11  N   UNL     1       0.211  -1.996  -1.093  0.00  0.00    -0.201 N 
ATOM     12  N   UNL     1       0.482  -1.712  -2.432  0.00  0.00    -0.042 NA
ATOM     13  N   UNL     1      -0.531  -2.141  -3.111  0.00  0.00    -0.021 NA
ATOM     14  N   UNL     1      -1.405  -2.666  -2.330  0.00  0.00    -0.092 NA
ATOM     15  H   UNL     1      -2.536  -3.315   0.092  0.00  0.00    +0.155 HD
ENDROOT
BRANCH   1  20
ATOM     16  C   UNL     1      -0.259   1.739   0.917  0.00  0.00    +0.001 A 
ATOM     17  C   UNL     1       0.918   2.464   0.940  0.00  0.00    +0.003 A 
ATOM     18  C   UNL     1       2.123   1.835   0.692  0.00  0.00    +0.039 A 
ATOM     19  C   UNL     1       2.151   0.477   0.421  0.00  0.00    +0.129 A 
ATOM     20  C   UNL     1       0.972  -0.248   0.398  0.00  0.00    +0.017 A 
ATOM     21  C   UNL     1      -0.232   0.384   0.646  0.00  0.00    +0.009 A 
ATOM     22  F   UNL     1       3.329  -0.139   0.178  0.00  0.00    -0.205 F 
ENDBRANCH   1  20
BRANCH   7  23
ATOM     23  C   UNL     1       2.503  -1.953   2.565  0.00  0.00    +0.003 A 
ATOM     24  C   UNL     1       2.794  -1.105   3.633  0.00  0.00    +0.013 A 
ATOM     25  C   UNL     1       4.040  -0.521   3.728  0.00  0.00    +0.039 A 
ATOM     26  C   UNL     1       5.002  -0.776   2.764  0.00  0.00    +0.123 A 
ATOM     27  C   UNL     1       4.718  -1.619   1.701  0.00  0.00    +0.039 A 
ATOM     28  C   UNL     1       3.476  -2.211   1.601  0.00  0.00    +0.013 A 
ATOM     29  F   UNL     1       6.221  -0.202   2.861  0.00  0.00    -0.205 F 
ENDBRANCH   7  23
TORSDOF 2
