REMARK  Name = ZINC39696014
REMARK  8 active torsions:
REMARK  status: ('A' for Active; 'I' for Inactive)
REMARK    1  A    between atoms: C_1  and  C_2
REMARK    2  A    between atoms: C_2  and  C_3
REMARK    3  A    between atoms: C_6  and  C_9
REMARK    4  A    between atoms: C_9  and  C_11
REMARK    5  A    between atoms: C_9  and  N_12
REMARK    6  A    between atoms: C_13  and  C_15
REMARK    7  A    between atoms: C_26  and  C_28
REMARK    8  A    between atoms: C_31  and  C_35
REMARK                            x       y       z     vdW  Elec       q    Type
REMARK                         _______ _______ _______ _____ _____    ______ ____
ROOT
ATOM      1  C   UNL     1       1.992  -4.374   7.184  0.00  0.00    +0.100 C 
ATOM      2  C   UNL     1       0.869  -3.972   8.166  0.00  0.00    +0.121 C 
ATOM      3  N   UNL     1       0.879  -5.031   9.202  0.00  0.00    -0.296 N 
ATOM      4  C   UNL     1       2.317  -5.320   9.420  0.00  0.00    +0.115 C 
ATOM      5  C   UNL     1       2.941  -5.258   8.011  0.00  0.00    -0.004 C 
ATOM      6  C   UNL     1       4.328  -4.627   8.077  0.00  0.00    -0.010 C 
ATOM      7  C   UNL     1       5.269  -5.553   8.854  0.00  0.00    -0.082 C 
ATOM      8  N   UNL     1       5.334  -6.859   8.188  0.00  0.00    +0.379 N 
ATOM      9  C   UNL     1       4.014  -7.500   8.212  0.00  0.00    -0.082 C 
ATOM     10  C   UNL     1       3.020  -6.657   7.407  0.00  0.00    -0.010 C 
ATOM     11  C   UNL     1      -0.180  -5.604   9.809  0.00  0.00    +0.247 C 
ATOM     12  O   UNL     1      -1.307  -5.352   9.430  0.00  0.00    -0.270 OA
ATOM     13  H   UNL     1       5.628  -6.732   7.231  0.00  0.00    -0.086 HD
ATOM     14  H   UNL     1       6.001  -7.446   8.666  0.00  0.00    -0.086 HD
ENDROOT
BRANCH  11  15
ATOM     15  C   UNL     1       0.030  -6.538  10.935  0.00  0.00    +0.040 A 
ATOM     16  C   UNL     1       1.228  -6.513  11.653  0.00  0.00    +0.014 A 
ATOM     17  C   UNL     1       1.418  -7.387  12.703  0.00  0.00    +0.016 A 
ATOM     18  C   UNL     1       0.426  -8.288  13.047  0.00  0.00    +0.090 A 
ATOM     19  C   UNL     1      -0.765  -8.319  12.340  0.00  0.00    +0.136 A 
ATOM     20  C   UNL     1      -0.970  -7.445  11.289  0.00  0.00    +0.052 A 
ATOM     21  F   UNL     1      -1.729  -9.202  12.681  0.00  0.00    -0.205 F 
BRANCH  18  22
ATOM     22  C   UNL     1       0.642  -9.239  14.196  0.00  0.00    +0.420 C 
ATOM     23  F   UNL     1       1.907  -9.021  14.751  0.00  0.00    -0.166 F 
ATOM     24  F   UNL     1      -0.338  -9.023  15.171  0.00  0.00    -0.166 F 
ATOM     25  F   UNL     1       0.556 -10.556  13.733  0.00  0.00    -0.166 F 
ENDBRANCH  18  22
ENDBRANCH  11  15
BRANCH   1  27
ATOM     26  N   UNL     1       3.268  -3.149   5.456  0.00  0.00    -0.308 N 
ATOM     27  C   UNL     1       2.716  -3.151   6.686  0.00  0.00    +0.219 C 
ATOM     28  O   UNL     1       2.802  -2.167   7.390  0.00  0.00    -0.275 OA
ATOM     29  H   UNL     1       3.200  -3.936   4.892  0.00  0.00    +0.149 HD
BRANCH  26  30
ATOM     30  C   UNL     1       3.973  -1.960   4.971  0.00  0.00    +0.100 C 
ATOM     31  C   UNL     1       2.965  -0.984   4.359  0.00  0.00    +0.033 C 
BRANCH  30  35
ATOM     32  C   UNL     1       6.827  -3.106   2.007  0.00  0.00    -0.048 A 
ATOM     33  C   UNL     1       7.148  -2.135   2.937  0.00  0.00    +0.004 A 
ATOM     34  C   UNL     1       6.224  -1.764   3.896  0.00  0.00    +0.006 A 
ATOM     35  C   UNL     1       4.979  -2.363   3.925  0.00  0.00    -0.027 A 
ATOM     36  C   UNL     1       4.658  -3.334   2.994  0.00  0.00    +0.006 A 
ATOM     37  C   UNL     1       5.580  -3.702   2.033  0.00  0.00    +0.004 A 
BRANCH  32  39
ATOM     38  C   UNL     1       7.668  -2.626  -0.276  0.00  0.00    +0.009 C 
ATOM     39  C   UNL     1       7.834  -3.510   0.961  0.00  0.00    +0.032 C 
ENDBRANCH  32  39
ENDBRANCH  30  35
ENDBRANCH  26  30
ENDBRANCH   1  27
TORSDOF 6
