REMARK  Name = ZINC01057126
REMARK  9 active torsions:
REMARK  status: ('A' for Active; 'I' for Inactive)
REMARK    1  A    between atoms: C_1  and  C_2
REMARK    2  A    between atoms: C_2  and  C_3
REMARK    3  A    between atoms: C_2  and  C_4
REMARK    4  A    between atoms: C_2  and  C_5
REMARK    5  A    between atoms: C_8  and  C_10
REMARK    6  A    between atoms: C_12  and  C_32
REMARK    7  A    between atoms: C_13  and  N_31
REMARK    8  A    between atoms: N_14  and  C_22
REMARK    9  A    between atoms: C_26  and  N_28
REMARK                            x       y       z     vdW  Elec       q    Type
REMARK                         _______ _______ _______ _____ _____    ______ ____
ROOT
ATOM      1  C   UNL     1      -0.099   7.987   0.659  0.00  0.00    +0.104 C 
ATOM      2  C   UNL     1      -1.293   7.256   0.119  0.00  0.00    +0.077 C 
ATOM      3  C   UNL     1      -1.270   5.909  -0.064  0.00  0.00    +0.107 C 
ATOM      4  N   UNL     1      -0.138   5.191   0.251  0.00  0.00    -0.260 N 
ATOM      5  C   UNL     1       1.077   5.817   0.354  0.00  0.00    +0.024 C 
ATOM      6  C   UNL     1       1.150   7.152   0.539  0.00  0.00    +0.026 C 
ATOM      7  C   UNL     1       2.393   7.804   0.629  0.00  0.00    +0.162 C 
ATOM      8  O   UNL     1       2.424   9.006   0.804  0.00  0.00    -0.292 OA
ATOM      9  C   UNL     1       3.684   7.042   0.513  0.00  0.00    +0.080 C 
ATOM     10  C   UNL     1       3.456   5.803  -0.358  0.00  0.00    +0.014 C 
ATOM     11  C   UNL     1       2.327   4.976   0.260  0.00  0.00    +0.052 C 
ENDROOT
BRANCH   4  12
ATOM     12  C   UNL     1      -0.228   3.811   0.462  0.00  0.00    +0.042 A 
ATOM     13  C   UNL     1      -0.131   2.935  -0.612  0.00  0.00    +0.024 A 
ATOM     14  C   UNL     1      -0.220   1.573  -0.400  0.00  0.00    +0.004 A 
ATOM     15  C   UNL     1      -0.404   1.081   0.879  0.00  0.00    +0.033 A 
ATOM     16  C   UNL     1      -0.506   1.950   1.950  0.00  0.00    +0.128 A 
ATOM     17  C   UNL     1      -0.413   3.313   1.745  0.00  0.00    +0.056 A 
BRANCH  16  18
ATOM     18  N   UNL     1      -0.710   1.420   3.316  0.00  0.00    +0.056 N 
ATOM     19  O   UNL     1      -0.787   0.218   3.498  0.00  0.00    -0.126 OA
ATOM     20  O   UNL     1      -0.800   2.185   4.260  0.00  0.00    -0.126 OA
ENDBRANCH  16  18
ENDBRANCH   4  12
BRANCH   1  24
ATOM     21  C   UNL     1      -0.785   8.437   4.767  0.00  0.00    -0.005 A 
ATOM     22  C   UNL     1      -0.636   9.591   4.072  0.00  0.00    +0.012 A 
ATOM     23  C   UNL     1      -0.406   9.529   2.710  0.00  0.00    +0.012 A 
ATOM     24  C   UNL     1      -0.337   8.316   2.110  0.00  0.00    +0.003 A 
ATOM     25  S   UNL     1      -0.607   7.208   3.484  0.00  0.00    -0.097 S 
BRANCH  21  27
ATOM     26  C   UNL     1      -2.355   8.924   6.623  0.00  0.00    +0.016 C 
ATOM     27  C   UNL     1      -1.041   8.242   6.239  0.00  0.00    -0.006 C 
ATOM     28  C   UNL     1      -1.134   6.746   6.547  0.00  0.00    +0.016 C 
ATOM     29  C   UNL     1       0.107   8.858   7.042  0.00  0.00    +0.016 C 
ENDBRANCH  21  27
ENDBRANCH   1  24
BRANCH   3  30
ATOM     30  N   UNL     1      -2.377   5.262  -0.558  0.00  0.00    -0.345 N 
ATOM     31  H   UNL     1      -2.331   4.317  -0.772  0.00  0.00    +0.144 HD
ATOM     32  H   UNL     1      -3.204   5.750  -0.693  0.00  0.00    +0.144 HD
ENDBRANCH   3  30
BRANCH   2  33
ATOM     33  C   UNL     1      -2.477   7.990  -0.213  0.00  0.00    +0.099 C 
ATOM     34  N   UNL     1      -3.416   8.572  -0.477  0.00  0.00    -0.191 NA
ENDBRANCH   2  33
TORSDOF 6
