REMARK  Name = ZINC12293527
REMARK  7 active torsions:
REMARK  status: ('A' for Active; 'I' for Inactive)
REMARK    1  A    between atoms: C_1  and  C_2
REMARK    2  A    between atoms: C_5  and  C_9
REMARK    3  A    between atoms: C_7  and  C_8
REMARK    4  A    between atoms: C_9  and  C_11
REMARK    5  A    between atoms: C_9  and  O_29
REMARK    6  A    between atoms: C_11  and  N_56
REMARK    7  A    between atoms: C_18  and  O_28
REMARK                            x       y       z     vdW  Elec       q    Type
REMARK                         _______ _______ _______ _____ _____    ______ ____
ROOT
ATOM      1  C   UNL     1       1.397   1.508   2.423  0.00  0.00    -0.075 C 
ATOM      2  C   UNL     1       2.108   0.968   3.667  0.00  0.00    +0.029 C 
ATOM      3  C   UNL     1       1.499   1.608   4.916  0.00  0.00    +0.110 C 
ATOM      4  C   UNL     1      -0.004   1.322   4.953  0.00  0.00    +0.029 C 
ATOM      5  C   UNL     1      -0.652   1.850   3.671  0.00  0.00    -0.075 C 
ATOM      6  C   UNL     1       2.162   1.022   6.167  0.00  0.00    +0.084 C 
ATOM      7  C   UNL     1       3.674   1.227   6.051  0.00  0.00    +0.152 C 
ATOM      8  C   UNL     1       3.965   2.655   5.663  0.00  0.00    +0.024 A 
ATOM      9  C   UNL     1       5.240   3.154   5.866  0.00  0.00    +0.029 A 
ATOM     10  C   UNL     1       5.544   4.456   5.515  0.00  0.00    +0.042 A 
ATOM     11  C   UNL     1       4.570   5.266   4.958  0.00  0.00    +0.023 A 
ATOM     12  C   UNL     1       3.298   4.774   4.756  0.00  0.00    +0.047 A 
ATOM     13  C   UNL     1       2.989   3.464   5.109  0.00  0.00    +0.127 A 
ATOM     14  O   UNL     1       1.723   3.017   4.897  0.00  0.00    -0.485 OA
ATOM     15 CL   UNL     1       7.145   5.074   5.774  0.00  0.00    -0.084 Cl
ATOM     16  N   UNL     1      -0.041   1.171   2.509  0.00  0.00    +0.382 N 
ATOM     17  H   UNL     1      -0.138   0.156   2.627  0.00  0.00    -0.082 HD
ENDROOT
BRANCH   7  18
ATOM     18  O   UNL     1       4.291   0.941   7.308  0.00  0.00    -0.387 OA
ATOM     19  H   UNL     1       5.252   1.048   7.309  0.00  0.00    +0.210 HD
ENDBRANCH   7  18
BRANCH  16  20
ATOM     20  C   UNL     1      -0.729   1.579   1.267  0.00  0.00    -0.042 C 
BRANCH  20  21
ATOM     21  C   UNL     1      -2.152   1.017   1.285  0.00  0.00    +0.128 C 
BRANCH  21  26
ATOM     22  C   UNL     1      -4.854   2.453  -3.617  0.00  0.00    +0.044 C 
ATOM     23  C   UNL     1      -4.149   2.079  -2.339  0.00  0.00    -0.048 A 
ATOM     24  C   UNL     1      -3.349   0.952  -2.295  0.00  0.00    +0.004 A 
ATOM     25  C   UNL     1      -2.699   0.611  -1.124  0.00  0.00    +0.006 A 
ATOM     26  C   UNL     1      -2.856   1.391   0.007  0.00  0.00    -0.021 A 
ATOM     27  C   UNL     1      -3.656   2.518  -0.037  0.00  0.00    +0.009 A 
ATOM     28  C   UNL     1      -4.302   2.862  -1.210  0.00  0.00    -0.047 A 
ATOM     29  C   UNL     1      -5.173   4.090  -1.258  0.00  0.00    +0.044 C 
ENDBRANCH  21  26
BRANCH  21  30
ATOM     30  O   UNL     1      -2.100  -0.406   1.401  0.00  0.00    -0.389 OA
ATOM     31  H   UNL     1      -1.630  -0.843   0.677  0.00  0.00    +0.210 HD
ENDBRANCH  21  30
ENDBRANCH  20  21
ENDBRANCH  16  20
TORSDOF 5
