REMARK  Name = ZINC35523544
REMARK  6 active torsions:
REMARK  status: ('A' for Active; 'I' for Inactive)
REMARK    1  A    between atoms: N_8  and  C_19
REMARK    2  A    between atoms: C_9  and  C_11
REMARK    3  A    between atoms: C_19  and  C_20
REMARK    4  A    between atoms: C_23  and  C_25
REMARK    5  A    between atoms: N_27  and  C_28
REMARK    6  A    between atoms: C_28  and  C_29
REMARK                            x       y       z     vdW  Elec       q    Type
REMARK                         _______ _______ _______ _____ _____    ______ ____
ROOT
ATOM      1  C   UNL     1       5.456  -0.898   0.170  0.00  0.00    -0.002 C 
ENDROOT
BRANCH   1   9
ATOM      2  C   UNL     1      -0.016   1.347   0.009  0.00  0.00    +0.019 A 
ATOM      3  C   UNL     1       1.324   1.789  -0.001  0.00  0.00    +0.021 A 
ATOM      4  C   UNL     1       2.104   0.699  -0.013  0.00  0.00    +0.009 A 
ATOM      5  N   UNL     1       1.297  -0.409  -0.015  0.00  0.00    -0.353 N 
ATOM      6  C   UNL     1       0.002  -0.004   0.002  0.00  0.00    +0.086 A 
ATOM      7  C   UNL     1       1.820  -1.781  -0.036  0.00  0.00    +0.103 C 
ATOM      8  C   UNL     1       3.293  -1.720  -0.459  0.00  0.00    -0.055 C 
ATOM      9  N   UNL     1       4.009  -0.737   0.365  0.00  0.00    +0.394 N 
ATOM     10  C   UNL     1       3.612   0.627  -0.022  0.00  0.00    +0.014 C 
ATOM     11  H   UNL     1       3.784  -0.888   1.337  0.00  0.00    -0.080 HD
BRANCH  10  12
ATOM     12  C   UNL     1       4.174   1.619   0.963  0.00  0.00    -0.020 A 
ATOM     13  C   UNL     1       4.596   1.193   2.208  0.00  0.00    +0.008 A 
ATOM     14  C   UNL     1       5.112   2.102   3.112  0.00  0.00    +0.039 A 
ATOM     15  C   UNL     1       5.207   3.441   2.772  0.00  0.00    +0.126 A 
ATOM     16  C   UNL     1       4.784   3.869   1.525  0.00  0.00    +0.077 A 
ATOM     17  C   UNL     1       4.273   2.957   0.618  0.00  0.00    +0.128 A 
ATOM     18  F   UNL     1       3.865   3.372  -0.601  0.00  0.00    -0.205 F 
ATOM     19  F   UNL     1       5.710   4.329   3.656  0.00  0.00    -0.205 F 
ENDBRANCH  10  12
ENDBRANCH   1   9
BRANCH   1  20
ATOM     20  C   UNL     1       5.886  -2.245   0.690  0.00  0.00    +0.090 A 
ATOM     21  C   UNL     1       5.934  -3.388  -0.029  0.00  0.00    +0.043 A 
ATOM     22  C   UNL     1       6.387  -4.400   0.832  0.00  0.00    +0.055 A 
ATOM     23  C   UNL     1       6.595  -3.816   2.048  0.00  0.00    +0.189 A 
ATOM     24  O   UNL     1       6.290  -2.506   1.940  0.00  0.00    -0.457 OA
BRANCH  23  25
ATOM     25  C   UNL     1       7.072  -4.492   3.259  0.00  0.00    +0.280 C 
ATOM     26  O   UNL     1       7.319  -5.684   3.233  0.00  0.00    -0.267 OA
ATOM     27  N   UNL     1       7.236  -3.795   4.401  0.00  0.00    -0.305 N 
ATOM     28  H   UNL     1       7.039  -2.845   4.421  0.00  0.00    +0.149 HD
BRANCH  27  29
ATOM     29  C   UNL     1       7.712  -4.471   5.610  0.00  0.00    +0.140 C 
BRANCH  29  30
ATOM     30  C   UNL     1       7.808  -3.475   6.737  0.00  0.00    -0.027 A 
ATOM     31  C   UNL     1       8.982  -2.773   6.939  0.00  0.00    +0.009 A 
ATOM     32  C   UNL     1       9.075  -1.859   7.971  0.00  0.00    +0.050 A 
ATOM     33  C   UNL     1       7.992  -1.643   8.807  0.00  0.00    +0.166 A 
ATOM     34  C   UNL     1       6.809  -2.350   8.603  0.00  0.00    +0.167 A 
ATOM     35  C   UNL     1       6.721  -3.261   7.563  0.00  0.00    +0.054 A 
ATOM     36  O   UNL     1       5.902  -1.963   9.547  0.00  0.00    -0.453 OA
ATOM     37  C   UNL     1       6.671  -1.315  10.577  0.00  0.00    +0.466 C 
ATOM     38  O   UNL     1       7.825  -0.814   9.878  0.00  0.00    -0.453 OA
ENDBRANCH  29  30
ENDBRANCH  27  29
ENDBRANCH  23  25
ENDBRANCH   1  20
TORSDOF 6
