REMARK  Name = ZINC40713559
REMARK  4 active torsions:
REMARK  status: ('A' for Active; 'I' for Inactive)
REMARK    1  A    between atoms: C_1  and  C_2
REMARK    2  A    between atoms: C_2  and  C_4
REMARK    3  A    between atoms: C_2  and  N_12
REMARK    4  A    between atoms: C_14  and  N_20
REMARK                            x       y       z     vdW  Elec       q    Type
REMARK                         _______ _______ _______ _____ _____    ______ ____
ROOT
ATOM      1  N   UNL     1      -1.367  -0.520  -0.079  0.00  0.00    -0.321 N 
ATOM      2  C   UNL     1      -1.962  -0.723  -1.322  0.00  0.00    +0.140 A 
ATOM      3  C   UNL     1      -3.270  -1.210  -1.392  0.00  0.00    +0.066 A 
ATOM      4  C   UNL     1      -3.849  -1.407  -2.639  0.00  0.00    +0.043 A 
ATOM      5  C   UNL     1      -3.099  -1.109  -3.770  0.00  0.00    +0.038 A 
ATOM      6  C   UNL     1      -1.812  -0.631  -3.623  0.00  0.00    +0.128 A 
ATOM      7  N   UNL     1      -1.287  -0.448  -2.425  0.00  0.00    -0.238 NA
ATOM      8 BR   UNL     1      -3.834  -1.358  -5.495  0.00  0.00    -0.049 Br
ATOM      9  H   UNL     1      -1.858  -0.720   0.733  0.00  0.00    +0.148 HD
ENDROOT
BRANCH   3  10
ATOM     10  N   UNL     1      -3.986  -1.496  -0.224  0.00  0.00    -0.355 N 
ATOM     11  H   UNL     1      -3.575  -1.356   0.643  0.00  0.00    +0.142 HD
ATOM     12  H   UNL     1      -4.894  -1.834  -0.281  0.00  0.00    +0.142 HD
ENDBRANCH   3  10
BRANCH   1  14
ATOM     13  C   UNL     1      -0.028   1.526  -0.017  0.00  0.00    +0.033 C 
ATOM     14  C   UNL     1       0.002  -0.004   0.002  0.00  0.00    +0.100 C 
BRANCH  14  15
ATOM     15  C   UNL     1       0.643  -0.478   1.281  0.00  0.00    -0.009 A 
ATOM     16  C   UNL     1      -0.142  -0.764   2.382  0.00  0.00    +0.008 A 
ATOM     17  C   UNL     1       0.445  -1.199   3.556  0.00  0.00    +0.020 A 
ATOM     18  C   UNL     1       1.819  -1.348   3.628  0.00  0.00    +0.042 A 
ATOM     19  C   UNL     1       2.604  -1.062   2.527  0.00  0.00    +0.040 A 
ATOM     20  C   UNL     1       2.016  -0.632   1.351  0.00  0.00    +0.047 A 
ATOM     21 CL   UNL     1       3.001  -0.279  -0.034  0.00  0.00    -0.083 Cl
ATOM     22 CL   UNL     1       2.556  -1.894   5.102  0.00  0.00    -0.083 Cl
ENDBRANCH  14  15
ENDBRANCH   1  14
TORSDOF 3
