REMARK  Name = ZINC63948750
REMARK  4 active torsions:
REMARK  status: ('A' for Active; 'I' for Inactive)
REMARK    1  A    between atoms: C_1  and  C_2
REMARK    2  A    between atoms: C_5  and  C_8
REMARK    3  A    between atoms: C_23  and  C_25
REMARK    4  A    between atoms: C_28  and  N_31
REMARK                            x       y       z     vdW  Elec       q    Type
REMARK                         _______ _______ _______ _____ _____    ______ ____
ROOT
ATOM      1  C   UNL     1       1.847  -4.795   0.109  0.00  0.00    +0.247 C 
ATOM      2  O   UNL     1       1.662  -5.340  -0.961  0.00  0.00    -0.270 OA
ATOM      3  N   UNL     1       1.205  -5.236   1.210  0.00  0.00    -0.288 N 
ATOM      4  C   UNL     1       1.407  -4.550   2.490  0.00  0.00    +0.113 C 
ATOM      5  C   UNL     1       0.050  -4.064   3.031  0.00  0.00    +0.052 C 
ATOM      6  C   UNL     1      -0.916  -5.212   2.870  0.00  0.00    -0.035 C 
ATOM      7  C   UNL     1      -1.734  -5.799   3.735  0.00  0.00    -0.001 A 
ATOM      8  C   UNL     1      -2.078  -5.479   5.129  0.00  0.00    +0.010 A 
ATOM      9  C   UNL     1      -2.956  -6.320   5.738  0.00  0.00    +0.001 A 
ATOM     10  C   UNL     1      -3.519  -7.434   5.106  0.00  0.00    +0.002 A 
ATOM     11  C   UNL     1      -3.265  -7.798   3.824  0.00  0.00    +0.026 A 
ATOM     12  C   UNL     1      -2.363  -6.985   3.077  0.00  0.00    +0.043 A 
ATOM     13  N   UNL     1      -1.964  -7.085   1.843  0.00  0.00    -0.375 N 
ATOM     14  C   UNL     1      -1.089  -5.950   1.548  0.00  0.00    +0.131 C 
ATOM     15  C   UNL     1       0.305  -6.396   1.112  0.00  0.00    +0.133 C 
ATOM     16  H   UNL     1      -2.206  -7.792   1.225  0.00  0.00    +0.160 HD
ENDROOT
BRANCH   1  21
ATOM     17  C   UNL     1       5.459  -0.330   0.479  0.00  0.00    +0.044 C 
ATOM     18  C   UNL     1       4.513  -1.499   0.382  0.00  0.00    -0.050 A 
ATOM     19  C   UNL     1       3.674  -1.618  -0.711  0.00  0.00    +0.004 A 
ATOM     20  C   UNL     1       2.806  -2.686  -0.806  0.00  0.00    +0.013 A 
ATOM     21  C   UNL     1       2.775  -3.648   0.204  0.00  0.00    +0.037 A 
ATOM     22  C   UNL     1       3.624  -3.523   1.305  0.00  0.00    +0.013 A 
ATOM     23  C   UNL     1       4.491  -2.453   1.385  0.00  0.00    +0.004 A 
ENDBRANCH   1  21
BRANCH  15  24
ATOM     24  C   UNL     1       0.260  -6.888  -0.311  0.00  0.00    -0.025 A 
ATOM     25  C   UNL     1      -0.542  -6.249  -1.238  0.00  0.00    +0.008 A 
ATOM     26  C   UNL     1      -0.584  -6.700  -2.544  0.00  0.00    +0.033 A 
ATOM     27  C   UNL     1       0.177  -7.791  -2.923  0.00  0.00    +0.126 A 
ATOM     28  C   UNL     1       0.979  -8.429  -1.996  0.00  0.00    +0.033 A 
ATOM     29  C   UNL     1       1.024  -7.975  -0.692  0.00  0.00    +0.008 A 
BRANCH  27  30
ATOM     30  N   UNL     1       0.131  -8.275  -4.321  0.00  0.00    +0.056 N 
ATOM     31  O   UNL     1      -0.571  -7.716  -5.132  0.00  0.00    -0.126 OA
ATOM     32  O   UNL     1       0.796  -9.229  -4.653  0.00  0.00    -0.126 OA
ENDBRANCH  27  30
ENDBRANCH  15  24
TORSDOF 3
