REMARK  Name = ZINC63362277
REMARK  5 active torsions:
REMARK  status: ('A' for Active; 'I' for Inactive)
REMARK    1  A    between atoms: C_1  and  C_2
REMARK    2  A    between atoms: C_8  and  O_13
REMARK    3  A    between atoms: O_13  and  C_14
REMARK    4  A    between atoms: N_20  and  C_23
REMARK    5  A    between atoms: C_28  and  N_29
REMARK                            x       y       z     vdW  Elec       q    Type
REMARK                         _______ _______ _______ _____ _____    ______ ____
ROOT
ATOM      1  C   UNL     1      -0.019   1.526   0.010  0.00  0.00    +0.044 C 
ATOM      2  C   UNL     1       0.002  -0.004   0.002  0.00  0.00    +0.137 C 
ATOM      3  C   UNL     1       0.726  -0.558  -1.231  0.00  0.00    +0.139 C 
ATOM      4  C   UNL     1       2.217  -0.372  -0.975  0.00  0.00    -0.034 C 
ATOM      5  C   UNL     1       2.681   0.359  -1.983  0.00  0.00    +0.003 A 
ATOM      6  C   UNL     1       4.038   0.814  -2.321  0.00  0.00    +0.055 A 
ATOM      7  C   UNL     1       4.167   1.573  -3.443  0.00  0.00    +0.121 A 
ATOM      8  C   UNL     1       3.094   1.933  -4.273  0.00  0.00    +0.047 A 
ATOM      9  C   UNL     1       1.805   1.566  -4.057  0.00  0.00    +0.029 A 
ATOM     10  C   UNL     1       1.540   0.738  -2.873  0.00  0.00    +0.043 A 
ATOM     11  N   UNL     1       0.417   0.228  -2.429  0.00  0.00    -0.375 N 
ATOM     12  C   UNL     1       2.918  -0.898   0.254  0.00  0.00    +0.052 C 
ATOM     13  C   UNL     1       2.121  -0.403   1.478  0.00  0.00    +0.115 C 
ATOM     14  N   UNL     1       0.693  -0.557   1.189  0.00  0.00    -0.268 N 
ATOM     15  C   UNL     1      -0.230  -1.218   1.900  0.00  0.00    +0.317 C 
ATOM     16  O   UNL     1      -0.016  -1.719   2.986  0.00  0.00    -0.252 OA
ATOM     17  N   UNL     1      -1.415  -1.264   1.276  0.00  0.00    -0.190 N 
ATOM     18  C   UNL     1      -1.390  -0.589   0.109  0.00  0.00    +0.253 C 
ATOM     19  O   UNL     1      -2.295  -0.474  -0.689  0.00  0.00    -0.272 OA
ATOM     20  H   UNL     1      -0.463   0.347  -2.817  0.00  0.00    +0.160 HD
ENDROOT
BRANCH  17  21
ATOM     21  C   UNL     1      -2.542  -1.933   1.775  0.00  0.00    +0.076 A 
ATOM     22  C   UNL     1      -3.444  -1.261   2.590  0.00  0.00    +0.026 A 
ATOM     23  C   UNL     1      -4.553  -1.922   3.080  0.00  0.00    +0.002 A 
ATOM     24  C   UNL     1      -4.765  -3.251   2.761  0.00  0.00    +0.002 A 
ATOM     25  C   UNL     1      -3.869  -3.922   1.950  0.00  0.00    +0.034 A 
ATOM     26  C   UNL     1      -2.760  -3.264   1.452  0.00  0.00    +0.148 A 
BRANCH  26  27
ATOM     27  N   UNL     1      -1.804  -3.982   0.579  0.00  0.00    +0.058 N 
ATOM     28  O   UNL     1      -1.995  -5.142   0.297  0.00  0.00    -0.126 OA
ATOM     29  O   UNL     1      -0.832  -3.407   0.147  0.00  0.00    -0.126 OA
ENDBRANCH  26  27
ENDBRANCH  17  21
BRANCH   7  30
ATOM     30  O   UNL     1       5.409   2.009  -3.781  0.00  0.00    -0.495 OA
ATOM     31  C   UNL     1       5.518   2.804  -4.964  0.00  0.00    +0.277 C 
ENDBRANCH   7  30
TORSDOF 3
