REMARK  Name = ZINC20377573
REMARK  7 active torsions:
REMARK  status: ('A' for Active; 'I' for Inactive)
REMARK    1  A    between atoms: C_1  and  C_2
REMARK    2  A    between atoms: N_4  and  C_5
REMARK    3  A    between atoms: C_8  and  N_11
REMARK    4  A    between atoms: C_12  and  C_14
REMARK    5  A    between atoms: C_14  and  N_20
REMARK    6  A    between atoms: N_20  and  S_21
REMARK    7  A    between atoms: S_21  and  C_24
REMARK                            x       y       z     vdW  Elec       q    Type
REMARK                         _______ _______ _______ _____ _____    ______ ____
ROOT
ATOM      1  C   UNL     1      -0.624  11.607   0.991  0.00  0.00    +0.116 C 
ATOM      2  C   UNL     1      -1.036  13.058   0.734  0.00  0.00    +0.033 C 
ATOM      3  C   UNL     1      -0.834  13.879   2.009  0.00  0.00    +0.002 C 
ATOM      4  C   UNL     1       0.639  13.831   2.419  0.00  0.00    +0.000 C 
ATOM      5  C   UNL     1       1.050  12.380   2.676  0.00  0.00    +0.002 C 
ATOM      6  C   UNL     1       0.849  11.559   1.401  0.00  0.00    +0.033 C 
ENDROOT
BRANCH   1   8
ATOM      7  N   UNL     1      -2.062  10.412  -0.629  0.00  0.00    -0.284 N 
ATOM      8  C   UNL     1      -0.823  10.799  -0.265  0.00  0.00    +0.239 C 
ATOM      9  O   UNL     1       0.133  10.495  -0.948  0.00  0.00    -0.273 OA
ATOM     10  H   UNL     1      -2.914  10.596   0.041  0.00  0.00    +0.155 HD
BRANCH   7  14
ATOM     11  C   UNL     1      -2.661   8.520  -4.296  0.00  0.00    +0.033 A 
ATOM     12  C   UNL     1      -1.419   8.460  -3.679  0.00  0.00    +0.025 A 
ATOM     13  C   UNL     1      -1.219   9.090  -2.467  0.00  0.00    +0.025 A 
ATOM     14  C   UNL     1      -2.263   9.776  -1.861  0.00  0.00    +0.034 A 
ATOM     15  C   UNL     1      -3.507   9.832  -2.476  0.00  0.00    +0.025 A 
ATOM     16  C   UNL     1      -3.705   9.205  -3.690  0.00  0.00    +0.025 A 
BRANCH  11  20
ATOM     17  C   UNL     1      -2.036   7.033  -7.699  0.00  0.00    +0.109 C 
ATOM     18  C   UNL     1      -1.860   7.821  -6.426  0.00  0.00    +0.214 C 
ATOM     19  O   UNL     1      -0.817   8.402  -6.212  0.00  0.00    -0.276 OA
ATOM     20  N   UNL     1      -2.863   7.884  -5.528  0.00  0.00    -0.286 N 
ATOM     21  H   UNL     1      -3.840   7.436  -5.762  0.00  0.00    +0.155 HD
ENDBRANCH  11  20
ENDBRANCH   7  14
ENDBRANCH   1   8
BRANCH   1  22
ATOM     22  N   UNL     1      -1.449  11.049   2.066  0.00  0.00    -0.175 NA
ATOM     23  H   UNL     1      -2.200  11.678   2.566  0.00  0.00    +0.149 HD
BRANCH  22  24
ATOM     24  S   UNL     1      -1.089   9.562   2.699  0.00  0.00    +0.061 S 
ATOM     25  O   UNL     1      -2.142   9.236   3.595  0.00  0.00    -0.153 OA
ATOM     26  O   UNL     1      -0.736   8.729   1.603  0.00  0.00    -0.153 OA
BRANCH  24  27
ATOM     27  C   UNL     1       0.365   9.749   3.677  0.00  0.00    +0.131 A 
ATOM     28  C   UNL     1       0.293  10.339   4.901  0.00  0.00    +0.031 A 
ATOM     29  C   UNL     1       1.430  10.497   5.691  0.00  0.00    +0.003 A 
ATOM     30  C   UNL     1       2.646  10.066   5.258  0.00  0.00    +0.010 A 
ATOM     31  C   UNL     1       2.758   9.453   4.000  0.00  0.00    +0.002 A 
ATOM     32  C   UNL     1       1.602   9.286   3.197  0.00  0.00    +0.097 A 
ATOM     33  N   UNL     1       1.702   8.697   2.001  0.00  0.00    -0.253 NA
ATOM     34  C   UNL     1       2.854   8.262   1.550  0.00  0.00    +0.111 A 
ATOM     35  C   UNL     1       4.027   8.389   2.291  0.00  0.00    +0.020 A 
ATOM     36  C   UNL     1       3.997   8.992   3.516  0.00  0.00    +0.011 A 
ENDBRANCH  24  27
ENDBRANCH  22  24
ENDBRANCH   1  22
TORSDOF 6
