REMARK  Name = ZINC08951340
REMARK  6 active torsions:
REMARK  status: ('A' for Active; 'I' for Inactive)
REMARK    1  A    between atoms: C_1  and  C_2
REMARK    2  A    between atoms: C_2  and  N_44
REMARK    3  A    between atoms: C_9  and  C_21
REMARK    4  A    between atoms: C_11  and  C_17
REMARK    5  A    between atoms: C_11  and  C_19
REMARK    6  A    between atoms: C_13  and  C_14
REMARK                            x       y       z     vdW  Elec       q    Type
REMARK                         _______ _______ _______ _____ _____    ______ ____
ROOT
ATOM      1  C   UNL     1      -3.020   1.800   0.240  0.00  0.00    -0.051 C 
ATOM      2  C   UNL     1      -4.314   1.018   0.201  0.00  0.00    -0.044 C 
ATOM      3  C   UNL     1      -4.832   0.541   1.317  0.00  0.00    -0.051 C 
ATOM      4  C   UNL     1      -4.206   0.750   2.666  0.00  0.00    +0.010 C 
ATOM      5  C   UNL     1      -2.842   1.401   2.610  0.00  0.00    -0.070 C 
ATOM      6  C   UNL     1      -4.162  -0.608   3.368  0.00  0.00    +0.067 C 
ATOM      7  C   UNL     1      -5.598  -1.088   3.604  0.00  0.00    +0.188 C 
ATOM      8  C   UNL     1      -6.396  -1.052   2.336  0.00  0.00    +0.065 C 
ATOM      9  C   UNL     1      -6.062  -0.290   1.263  0.00  0.00    +0.163 C 
ATOM     10  N   UNL     1      -7.519  -1.826   2.255  0.00  0.00    -0.304 NA
ATOM     11  H   UNL     1      -8.054  -1.821   1.446  0.00  0.00    +0.186 HD
ATOM     12  N   UNL     1      -2.199   1.187   1.304  0.00  0.00    +0.382 N 
ATOM     13  H   UNL     1      -2.122   0.178   1.129  0.00  0.00    -0.081 HD
ENDROOT
BRANCH   6  14
ATOM     14  C   UNL     1      -3.467  -0.466   4.698  0.00  0.00    -0.005 A 
ATOM     15  C   UNL     1      -3.879   0.503   5.593  0.00  0.00    +0.022 A 
ATOM     16  C   UNL     1      -3.242   0.633   6.813  0.00  0.00    +0.018 A 
ATOM     17  C   UNL     1      -2.192  -0.206   7.139  0.00  0.00    +0.018 A 
ATOM     18  C   UNL     1      -1.779  -1.176   6.246  0.00  0.00    +0.040 A 
ATOM     19  C   UNL     1      -2.420  -1.310   5.026  0.00  0.00    +0.127 A 
ATOM     20  F   UNL     1      -2.020  -2.261   4.153  0.00  0.00    -0.205 F 
ATOM     21 BR   UNL     1      -3.806   1.960   8.037  0.00  0.00    -0.050 Br
ENDBRANCH   6  14
BRANCH  12  23
ATOM     22  C   UNL     1      -0.111   1.349   0.032  0.00  0.00    -0.017 C 
ATOM     23  C   UNL     1      -0.842   1.780   1.305  0.00  0.00    -0.082 C 
ENDBRANCH  12  23
BRANCH   9  24
ATOM     24  C   UNL     1      -6.886  -0.287   0.092  0.00  0.00    +0.076 C 
ATOM     25  N   UNL     1      -7.540  -0.285  -0.837  0.00  0.00    -0.196 NA
ENDBRANCH   9  24
BRANCH   7  26
ATOM     26  C   UNL     1      -6.251  -0.232   4.607  0.00  0.00    +0.091 C 
ATOM     27  N   UNL     1      -6.755   0.430   5.381  0.00  0.00    -0.195 NA
ENDBRANCH   7  26
BRANCH   7  28
ATOM     28  C   UNL     1      -5.559  -2.471   4.107  0.00  0.00    +0.091 C 
ATOM     29  N   UNL     1      -5.529  -3.538   4.495  0.00  0.00    -0.195 NA
ENDBRANCH   7  28
TORSDOF 5
