REMARK  Name = ZINC35370320
REMARK  6 active torsions:
REMARK  status: ('A' for Active; 'I' for Inactive)
REMARK    1  A    between atoms: C_1  and  C_2
REMARK    2  A    between atoms: C_2  and  C_3
REMARK    3  A    between atoms: C_6  and  N_9
REMARK    4  A    between atoms: C_19  and  C_23
REMARK    5  A    between atoms: N_25  and  C_26
REMARK    6  A    between atoms: C_26  and  C_27
REMARK                            x       y       z     vdW  Elec       q    Type
REMARK                         _______ _______ _______ _____ _____    ______ ____
ROOT
ATOM      1  N   UNL     1       2.735  -1.946   4.585  0.00  0.00    -0.269 N 
ATOM      2  C   UNL     1       2.085  -2.033   5.763  0.00  0.00    +0.306 C 
ATOM      3  O   UNL     1       0.894  -1.796   5.820  0.00  0.00    -0.252 OA
ATOM      4  N   UNL     1       2.756  -2.383   6.878  0.00  0.00    -0.285 N 
ATOM      5  C   UNL     1       4.222  -2.492   6.866  0.00  0.00    +0.109 C 
ATOM      6  C   UNL     1       4.790  -1.607   7.981  0.00  0.00    +0.017 C 
ATOM      7  C   UNL     1       4.123  -1.962   9.301  0.00  0.00    -0.016 C 
ATOM      8  C   UNL     1       2.615  -1.775   9.238  0.00  0.00    +0.017 C 
ATOM      9  C   UNL     1       2.036  -2.656   8.130  0.00  0.00    +0.109 C 
ATOM     10  N   UNL     1       4.470  -3.338   9.717  0.00  0.00    +0.397 N 
ATOM     11  C   UNL     1       5.705  -3.376  10.523  0.00  0.00    +0.028 C 
ATOM     12  C   UNL     1       5.615  -2.281  11.629  0.00  0.00    +0.061 C 
ATOM     13  S   UNL     1       4.822  -0.932  10.650  0.00  0.00    -0.174 S 
ATOM     14  H   UNL     1       3.651  -2.257   4.513  0.00  0.00    +0.156 HD
ATOM     15  H   UNL     1       3.710  -3.717  10.262  0.00  0.00    -0.083 HD
ATOM     16  H   UNL     1       4.597  -3.907   8.893  0.00  0.00    -0.083 HD
ENDROOT
BRANCH   1  20
ATOM     17  C   UNL     1       0.807  -0.345   1.257  0.00  0.00    -0.048 A 
ATOM     18  C   UNL     1       2.188  -0.334   1.326  0.00  0.00    +0.005 A 
ATOM     19  C   UNL     1       2.830  -0.864   2.428  0.00  0.00    +0.023 A 
ATOM     20  C   UNL     1       2.087  -1.408   3.468  0.00  0.00    +0.035 A 
ATOM     21  C   UNL     1       0.700  -1.418   3.395  0.00  0.00    +0.023 A 
ATOM     22  C   UNL     1       0.064  -0.881   2.293  0.00  0.00    +0.005 A 
BRANCH  17  24
ATOM     23  C   UNL     1      -0.163   1.722   0.288  0.00  0.00    +0.009 C 
ATOM     24  C   UNL     1       0.110   0.234   0.053  0.00  0.00    +0.032 C 
ENDBRANCH  17  24
ENDBRANCH   1  20
BRANCH  11  25
ATOM     25  C   UNL     1       5.849  -4.731  11.167  0.00  0.00    +0.200 C 
ATOM     26  O   UNL     1       5.009  -5.585  10.976  0.00  0.00    -0.278 OA
ATOM     27  N   UNL     1       6.911  -4.994  11.954  0.00  0.00    -0.313 N 
ATOM     28  H   UNL     1       7.583  -4.311  12.106  0.00  0.00    +0.149 HD
BRANCH  27  29
ATOM     29  C   UNL     1       7.051  -6.312  12.579  0.00  0.00    +0.139 C 
BRANCH  29  30
ATOM     30  C   UNL     1       8.313  -6.346  13.402  0.00  0.00    -0.027 A 
ATOM     31  C   UNL     1       9.503  -6.745  12.822  0.00  0.00    +0.009 A 
ATOM     32  C   UNL     1      10.664  -6.777  13.572  0.00  0.00    +0.050 A 
ATOM     33  C   UNL     1      10.637  -6.411  14.908  0.00  0.00    +0.166 A 
ATOM     34  C   UNL     1       9.438  -6.010  15.492  0.00  0.00    +0.167 A 
ATOM     35  C   UNL     1       8.280  -5.973  14.732  0.00  0.00    +0.054 A 
ATOM     36  O   UNL     1       9.671  -5.703  16.801  0.00  0.00    -0.453 OA
ATOM     37  C   UNL     1      10.938  -6.310  17.118  0.00  0.00    +0.466 C 
ATOM     38  O   UNL     1      11.621  -6.356  15.851  0.00  0.00    -0.453 OA
ENDBRANCH  29  30
ENDBRANCH  27  29
ENDBRANCH  11  25
TORSDOF 5
