REMARK  Name = ZINC52304923
REMARK  3 active torsions:
REMARK  status: ('A' for Active; 'I' for Inactive)
REMARK    1  A    between atoms: C_6  and  N_7
REMARK    2  A    between atoms: C_8  and  S_16
REMARK    3  A    between atoms: C_10  and  C_12
REMARK                            x       y       z     vdW  Elec       q    Type
REMARK                         _______ _______ _______ _____ _____    ______ ____
ROOT
ATOM      1  N   UNL     1      -1.197  -0.722   0.010  0.00  0.00    -0.206 N 
ATOM      2  C   UNL     1      -1.377  -1.990  -0.455  0.00  0.00    +0.100 A 
ATOM      3  C   UNL     1      -2.687  -2.313  -0.261  0.00  0.00    +0.068 A 
ATOM      4  C   UNL     1      -3.315  -1.216   0.336  0.00  0.00    +0.167 A 
ATOM      5  N   UNL     1      -2.428  -0.269   0.503  0.00  0.00    -0.160 NA
ENDROOT
BRANCH   1  11
ATOM      6  C   UNL     1      -0.017   1.389   0.010  0.00  0.00    +0.053 A 
ATOM      7  C   UNL     1       1.199   2.055   0.002  0.00  0.00    +0.045 A 
ATOM      8  C   UNL     1       2.360   1.293  -0.013  0.00  0.00    +0.152 A 
ATOM      9  N   UNL     1       2.284  -0.024  -0.020  0.00  0.00    -0.136 NA
ATOM     10  N   UNL     1       1.160  -0.645  -0.013  0.00  0.00    -0.128 NA
ATOM     11  C   UNL     1       0.002  -0.004   0.002  0.00  0.00    +0.177 A 
ATOM     12 CL   UNL     1       3.911   2.074  -0.025  0.00  0.00    -0.060 Cl
ENDBRANCH   1  11
BRANCH   4  13
ATOM     13  C   UNL     1      -4.769  -1.139   0.725  0.00  0.00    +0.436 C 
ATOM     14  F   UNL     1      -4.924  -1.595   2.039  0.00  0.00    -0.164 F 
ATOM     15  F   UNL     1      -5.205   0.187   0.637  0.00  0.00    -0.164 F 
ATOM     16  F   UNL     1      -5.526  -1.938  -0.138  0.00  0.00    -0.164 F 
ENDBRANCH   4  13
BRANCH   2  17
ATOM     17  S   UNL     1      -0.144  -3.022  -1.175  0.00  0.00    -0.123 S 
ATOM     18  H   UNL     1       0.376  -3.687  -0.128  0.00  0.00    +0.109 HD
ENDBRANCH   2  17
TORSDOF 3
