REMARK  Name = ZINC25187025
REMARK  8 active torsions:
REMARK  status: ('A' for Active; 'I' for Inactive)
REMARK    1  A    between atoms: C_1  and  C_2
REMARK    2  A    between atoms: C_2  and  N_3
REMARK    3  A    between atoms: N_6  and  C_9
REMARK    4  A    between atoms: C_12  and  N_16
REMARK    5  A    between atoms: C_13  and  C_15
REMARK    6  A    between atoms: C_17  and  C_19
REMARK    7  A    between atoms: C_23  and  S_25
REMARK    8  A    between atoms: S_25  and  N_28
REMARK                            x       y       z     vdW  Elec       q    Type
REMARK                         _______ _______ _______ _____ _____    ______ ____
ROOT
ATOM      1  N   UNL     1      -3.226   5.069  -5.797  0.00  0.00    -0.281 N 
ATOM      2  C   UNL     1      -4.095   4.306  -6.490  0.00  0.00    +0.248 C 
ATOM      3  O   UNL     1      -4.420   3.215  -6.063  0.00  0.00    -0.270 OA
ATOM      4  H   UNL     1      -3.002   6.091  -6.135  0.00  0.00    +0.155 HD
ENDROOT
BRANCH   1   8
ATOM      5  C   UNL     1      -1.389   3.554  -2.373  0.00  0.00    +0.030 A 
ATOM      6  C   UNL     1      -1.844   2.687  -3.359  0.00  0.00    +0.025 A 
ATOM      7  C   UNL     1      -2.458   3.188  -4.489  0.00  0.00    +0.025 A 
ATOM      8  C   UNL     1      -2.610   4.560  -4.647  0.00  0.00    +0.037 A 
ATOM      9  C   UNL     1      -2.149   5.427  -3.665  0.00  0.00    -0.027 A 
ATOM     10  C   UNL     1      -1.541   4.926  -2.531  0.00  0.00    +0.028 A 
ATOM     11  C   UNL     1      -2.314   6.915  -3.836  0.00  0.00    +0.046 C 
BRANCH   5  15
ATOM     12  N   UNL     1      -0.649   1.533   1.184  0.00  0.00    +0.382 N 
ATOM     13  C   UNL     1       0.033   1.067  -0.031  0.00  0.00    -0.060 C 
ATOM     14  C   UNL     1      -0.717   1.578  -1.263  0.00  0.00    +0.086 C 
ATOM     15  N   UNL     1      -0.773   3.046  -1.225  0.00  0.00    -0.333 N 
ATOM     16  C   UNL     1      -1.456   3.513  -0.011  0.00  0.00    +0.086 C 
ATOM     17  C   UNL     1      -0.706   3.001   1.222  0.00  0.00    -0.060 C 
ATOM     18  H   UNL     1      -1.681   1.154   1.161  0.00  0.00    -0.082 HD
BRANCH  12  20
ATOM     19  C   UNL     1      -0.573   1.696   3.626  0.00  0.00    -0.017 C 
ATOM     20  C   UNL     1      -0.002   1.000   2.389  0.00  0.00    -0.082 C 
ENDBRANCH  12  20
ENDBRANCH   5  15
ENDBRANCH   1   8
BRANCH   2  21
ATOM     21  C   UNL     1      -4.652   4.795  -7.768  0.00  0.00    +0.039 A 
ATOM     22  C   UNL     1      -4.281   6.048  -8.261  0.00  0.00    +0.013 A 
ATOM     23  C   UNL     1      -4.805   6.498  -9.455  0.00  0.00    +0.003 A 
ATOM     24  C   UNL     1      -5.696   5.712 -10.164  0.00  0.00    +0.028 A 
ATOM     25  C   UNL     1      -6.068   4.470  -9.681  0.00  0.00    +0.106 A 
ATOM     26  C   UNL     1      -5.547   4.005  -8.491  0.00  0.00    +0.041 A 
BRANCH  25  27
ATOM     27  S   UNL     1      -7.203   3.477 -10.592  0.00  0.00    +0.061 S 
ATOM     28  O   UNL     1      -7.808   2.593  -9.659  0.00  0.00    -0.153 OA
ATOM     29  O   UNL     1      -7.960   4.365 -11.402  0.00  0.00    -0.153 OA
BRANCH  27  30
ATOM     30  N   UNL     1      -6.312   2.537 -11.624  0.00  0.00    -0.177 NA
ATOM     31  C   UNL     1      -5.929   2.898 -12.997  0.00  0.00    +0.109 C 
ATOM     32  C   UNL     1      -5.130   1.712 -13.577  0.00  0.00    +0.018 C 
ATOM     33  C   UNL     1      -5.599   0.519 -12.703  0.00  0.00    +0.018 C 
ATOM     34  C   UNL     1      -5.777   1.197 -11.321  0.00  0.00    +0.109 C 
ENDBRANCH  27  30
ENDBRANCH  25  27
ENDBRANCH   2  21
TORSDOF 6
