REMARK  Name = ZINC46902891
REMARK  6 active torsions:
REMARK  status: ('A' for Active; 'I' for Inactive)
REMARK    1  A    between atoms: C_1  and  C_2
REMARK    2  A    between atoms: C_5  and  C_12
REMARK    3  A    between atoms: C_7  and  N_8
REMARK    4  A    between atoms: C_9  and  C_11
REMARK    5  A    between atoms: N_14  and  C_15
REMARK    6  A    between atoms: C_19  and  C_21
REMARK                            x       y       z     vdW  Elec       q    Type
REMARK                         _______ _______ _______ _____ _____    ______ ____
ROOT
ATOM      1  C   UNL     1      -0.062  -4.234  -2.215  0.00  0.00    +0.248 C 
ATOM      2  O   UNL     1      -0.625  -4.762  -3.154  0.00  0.00    -0.270 OA
ATOM      3  N   UNL     1       0.395  -4.985  -1.194  0.00  0.00    -0.281 N 
ATOM      4  H   UNL     1       0.776  -4.558  -0.410  0.00  0.00    +0.155 HD
ENDROOT
BRANCH   1   9
ATOM      5  C   UNL     1       0.663   1.479  -2.119  0.00  0.00    +0.045 C 
ATOM      6  C   UNL     1       0.472  -0.016  -2.146  0.00  0.00    -0.029 A 
ATOM      7  C   UNL     1       0.940  -0.788  -1.099  0.00  0.00    +0.006 A 
ATOM      8  C   UNL     1       0.769  -2.158  -1.116  0.00  0.00    +0.013 A 
ATOM      9  C   UNL     1       0.122  -2.767  -2.193  0.00  0.00    +0.039 A 
ATOM     10  C   UNL     1      -0.349  -1.987  -3.249  0.00  0.00    +0.036 A 
ATOM     11  C   UNL     1      -0.177  -0.612  -3.220  0.00  0.00    +0.037 A 
BRANCH  11  12
ATOM     12  N   UNL     1      -0.653   0.176  -4.274  0.00  0.00    -0.285 N 
ATOM     13  C   UNL     1      -0.627  -0.299  -5.535  0.00  0.00    +0.214 C 
ATOM     14  O   UNL     1      -0.268  -1.438  -5.747  0.00  0.00    -0.276 OA
ATOM     15  C   UNL     1      -1.042   0.585  -6.683  0.00  0.00    +0.109 C 
ATOM     16  H   UNL     1      -1.002   1.063  -4.098  0.00  0.00    +0.155 HD
ENDBRANCH  11  12
ENDBRANCH   1   9
BRANCH   3  17
ATOM     17  C   UNL     1       0.320  -6.380  -1.263  0.00  0.00    +0.034 A 
ATOM     18  C   UNL     1       0.242  -7.131  -0.096  0.00  0.00    +0.023 A 
ATOM     19  C   UNL     1       0.168  -8.509  -0.160  0.00  0.00    +0.002 A 
ATOM     20  C   UNL     1       0.170  -9.149  -1.383  0.00  0.00    +0.012 A 
ATOM     21  C   UNL     1       0.248  -8.404  -2.560  0.00  0.00    +0.021 A 
ATOM     22  C   UNL     1       0.317  -7.013  -2.496  0.00  0.00    +0.035 A 
BRANCH  21  23
ATOM     23  C   UNL     1       0.252  -9.088  -3.872  0.00  0.00    +0.164 A 
ATOM     24  N   UNL     1      -0.018  -8.545  -5.041  0.00  0.00    -0.129 NA
ATOM     25  N   UNL     1       0.089  -9.433  -5.967  0.00  0.00    -0.134 NA
ATOM     26  C   UNL     1       0.433 -10.578  -5.448  0.00  0.00    +0.134 A 
ATOM     27  N   UNL     1       0.542 -10.401  -4.105  0.00  0.00    -0.311 N 
ATOM     28  C   UNL     1       0.883 -11.423  -3.116  0.00  0.00    +0.125 C 
ATOM     29  C   UNL     1       1.760 -12.493  -3.774  0.00  0.00    +0.022 C 
ATOM     30  C   UNL     1       0.876 -13.585  -4.374  0.00  0.00    +0.002 C 
ATOM     31  C   UNL     1      -0.034 -13.007  -5.453  0.00  0.00    +0.008 C 
ATOM     32  C   UNL     1       0.683 -11.872  -6.180  0.00  0.00    +0.076 C 
ENDBRANCH  21  23
ENDBRANCH   3  17
TORSDOF 4
