REMARK  Name = ZINC27669587
REMARK  9 active torsions:
REMARK  status: ('A' for Active; 'I' for Inactive)
REMARK    1  A    between atoms: C_1  and  C_2
REMARK    2  A    between atoms: C_3  and  C_15
REMARK    3  A    between atoms: C_4  and  C_7
REMARK    4  A    between atoms: N_17  and  C_18
REMARK    5  A    between atoms: C_18  and  C_19
REMARK    6  A    between atoms: C_19  and  C_21
REMARK    7  A    between atoms: C_19  and  N_29
REMARK    8  A    between atoms: C_24  and  O_27
REMARK    9  A    between atoms: O_27  and  C_28
REMARK                            x       y       z     vdW  Elec       q    Type
REMARK                         _______ _______ _______ _____ _____    ______ ____
ROOT
ATOM      1  C   UNL     1      -5.229  -0.509  -1.448  0.00  0.00    +0.250 C 
ATOM      2  O   UNL     1      -4.661  -0.250  -2.492  0.00  0.00    -0.270 OA
ATOM      3  N   UNL     1      -4.755  -0.024  -0.284  0.00  0.00    -0.312 N 
ATOM      4  H   UNL     1      -5.269  -0.258   0.660  0.00  0.00    +0.149 HD
ENDROOT
BRANCH   1   7
ATOM      5  C   UNL     1      -5.375  -3.697  -1.465  0.00  0.00    +0.090 C 
ATOM      6  C   UNL     1      -6.523  -2.722  -1.465  0.00  0.00    +0.147 A 
ATOM      7  C   UNL     1      -6.436  -1.353  -1.457  0.00  0.00    +0.106 A 
ATOM      8  C   UNL     1      -7.854  -0.934  -1.454  0.00  0.00    +0.130 A 
ATOM      9  N   UNL     1      -8.539  -2.049  -1.469  0.00  0.00    -0.077 NA
ATOM     10  O   UNL     1      -7.824  -3.021  -1.472  0.00  0.00    -0.359 OA
BRANCH   8  11
ATOM     11  C   UNL     1      -8.385   0.451  -1.439  0.00  0.00    +0.058 A 
ATOM     12  C   UNL     1      -7.939   1.382  -2.379  0.00  0.00    +0.134 A 
ATOM     13  C   UNL     1      -8.439   2.671  -2.360  0.00  0.00    +0.039 A 
ATOM     14  C   UNL     1      -9.377   3.038  -1.412  0.00  0.00    +0.004 A 
ATOM     15  C   UNL     1      -9.822   2.119  -0.479  0.00  0.00    +0.021 A 
ATOM     16  C   UNL     1      -9.335   0.826  -0.490  0.00  0.00    +0.053 A 
ATOM     17 CL   UNL     1      -9.901  -0.327   0.678  0.00  0.00    -0.083 Cl
ATOM     18  F   UNL     1      -7.023   1.025  -3.305  0.00  0.00    -0.205 F 
ENDBRANCH   8  11
ENDBRANCH   1   7
BRANCH   3  19
ATOM     19  C   UNL     1      -3.554   0.815  -0.275  0.00  0.00    +0.094 C 
BRANCH  19  20
ATOM     20  C   UNL     1      -3.232   1.230   1.163  0.00  0.00    -0.020 C 
BRANCH  20  21
ATOM     21  N   UNL     1      -4.406   1.880   1.759  0.00  0.00    +0.385 N 
ATOM     22  C   UNL     1      -4.640   3.199   1.156  0.00  0.00    -0.078 C 
ATOM     23  C   UNL     1      -5.948   3.783   1.695  0.00  0.00    -0.019 C 
ATOM     24  C   UNL     1      -5.857   3.906   3.218  0.00  0.00    -0.004 C 
ATOM     25  C   UNL     1      -5.565   2.528   3.818  0.00  0.00    -0.019 C 
ATOM     26  C   UNL     1      -4.268   1.981   3.218  0.00  0.00    -0.078 C 
ATOM     27  H   UNL     1      -5.285   1.254   1.548  0.00  0.00    -0.081 HD
ENDBRANCH  20  21
BRANCH  20  28
ATOM     28  C   UNL     1      -2.072   2.191   1.160  0.00  0.00    -0.059 A 
ATOM     29  C   UNL     1      -2.051   3.246   0.267  0.00  0.00    +0.005 A 
ATOM     30  C   UNL     1      -0.992   4.132   0.267  0.00  0.00    +0.046 A 
ATOM     31  C   UNL     1       0.055   3.960   1.161  0.00  0.00    +0.120 A 
ATOM     32  C   UNL     1       0.035   2.897   2.052  0.00  0.00    +0.046 A 
ATOM     33  C   UNL     1      -1.027   2.014   2.048  0.00  0.00    +0.005 A 
BRANCH  31  34
ATOM     34  O   UNL     1       1.099   4.831   1.163  0.00  0.00    -0.495 OA
ATOM     35  C   UNL     1       2.141   4.591   2.110  0.00  0.00    +0.277 C 
ENDBRANCH  31  34
ENDBRANCH  20  28
ENDBRANCH  19  20
ENDBRANCH   3  19
TORSDOF 7
