REMARK  Name = ZINC13745879
REMARK  2 active torsions:
REMARK  status: ('A' for Active; 'I' for Inactive)
REMARK    1  A    between atoms: C_1  and  C_2
REMARK    2  A    between atoms: C_8  and  C_10
REMARK                            x       y       z     vdW  Elec       q    Type
REMARK                         _______ _______ _______ _____ _____    ______ ____
ROOT
ATOM      1  C   UNL     1       1.738  -4.034  -0.038  0.00  0.00    +0.094 A 
ATOM      2  C   UNL     1       1.105  -5.239  -0.034  0.00  0.00    +0.068 A 
ATOM      3  C   UNL     1       1.859  -6.427  -0.054  0.00  0.00    +0.008 A 
ATOM      4  C   UNL     1       1.388  -7.766  -0.058  0.00  0.00    +0.011 A 
ATOM      5  C   UNL     1       2.257  -8.808  -0.072  0.00  0.00    +0.016 A 
ATOM      6  C   UNL     1       3.634  -8.609  -0.083  0.00  0.00    +0.019 A 
ATOM      7  C   UNL     1       4.135  -7.322  -0.080  0.00  0.00    +0.031 A 
ATOM      8  C   UNL     1       3.263  -6.254  -0.066  0.00  0.00    +0.023 A 
ATOM      9  S   UNL     1       3.463  -4.490  -0.057  0.00  0.00    -0.082 S 
ATOM     10 BR   UNL     1       4.810 -10.090  -0.102  0.00  0.00    -0.050 Br
ATOM     11 CL   UNL     1      -0.629  -5.309  -0.009  0.00  0.00    -0.082 Cl
ENDROOT
BRANCH   1  19
ATOM     12  C   UNL     1      -1.237   2.232   0.020  0.00  0.00    +0.089 C 
ATOM     13  C   UNL     1      -0.016   1.348   0.009  0.00  0.00    +0.136 A 
ATOM     14  C   UNL     1       0.002  -0.004   0.002  0.00  0.00    +0.091 A 
ATOM     15  C   UNL     1       1.385  -0.328  -0.013  0.00  0.00    +0.168 A 
ATOM     16  N   UNL     1       2.026   0.811  -0.013  0.00  0.00    -0.063 NA
ATOM     17  O   UNL     1       1.263   1.749  -0.001  0.00  0.00    -0.358 OA
ATOM     18  N   UNL     1       1.946  -1.604  -0.026  0.00  0.00    -0.263 N 
ATOM     19  C   UNL     1       1.148  -2.690  -0.025  0.00  0.00    +0.257 C 
ATOM     20  O   UNL     1      -0.061  -2.557  -0.013  0.00  0.00    -0.269 OA
ATOM     21  H   UNL     1       2.910  -1.710  -0.035  0.00  0.00    +0.157 HD
ENDBRANCH   1  19
TORSDOF 1
