REMARK  Name = ZINC01094636
REMARK  1 active torsions:
REMARK  status: ('A' for Active; 'I' for Inactive)
REMARK    1  A    between atoms: C_8  and  C_9
REMARK                            x       y       z     vdW  Elec       q    Type
REMARK                         _______ _______ _______ _____ _____    ______ ____
ROOT
ATOM      1  C   UNL     1       0.000   1.380   0.122  0.00  0.00    +0.005 A 
ATOM      2  C   UNL     1       1.214   2.055   0.093  0.00  0.00    +0.020 A 
ATOM      3  C   UNL     1       2.391   1.334   0.021  0.00  0.00    +0.113 A 
ATOM      4  N   UNL     1       2.377   0.017  -0.022  0.00  0.00    -0.238 NA
ATOM      5  C   UNL     1       1.238  -0.668   0.002  0.00  0.00    +0.131 A 
ATOM      6  C   UNL     1       0.012  -0.002   0.075  0.00  0.00    +0.046 A 
ATOM      7  N   UNL     1       1.267  -2.033  -0.044  0.00  0.00    -0.346 N 
ATOM      8  C   UNL     1       0.161  -2.714   0.085  0.00  0.00    +0.097 C 
ATOM      9  H   UNL     1       2.110  -2.497  -0.172  0.00  0.00    +0.167 HD
ENDROOT
BRANCH   8  10
ATOM     10  C   UNL     1       0.208  -4.179   0.187  0.00  0.00    +0.053 A 
ATOM     11  C   UNL     1      -0.978  -4.923   0.189  0.00  0.00    +0.030 A 
ATOM     12  C   UNL     1      -0.926  -6.298   0.285  0.00  0.00    +0.017 A 
ATOM     13  C   UNL     1       0.294  -6.946   0.380  0.00  0.00    +0.020 A 
ATOM     14  C   UNL     1       1.472  -6.224   0.379  0.00  0.00    +0.065 A 
ATOM     15  C   UNL     1       1.442  -4.842   0.277  0.00  0.00    +0.202 A 
ATOM     16  O   UNL     1       2.599  -4.133   0.270  0.00  0.00    -0.286 OA
ATOM     17 BR   UNL     1       3.131  -7.124   0.510  0.00  0.00    -0.046 Br
ATOM     18 BR   UNL     1      -2.648  -4.045   0.061  0.00  0.00    -0.050 Br
ENDBRANCH   8  10
TORSDOF 1
