REMARK  Name = ZINC26916918
REMARK  7 active torsions:
REMARK  status: ('A' for Active; 'I' for Inactive)
REMARK    1  A    between atoms: C_1  and  N_2
REMARK    2  A    between atoms: C_3  and  C_5
REMARK    3  A    between atoms: N_15  and  C_16
REMARK    4  A    between atoms: C_16  and  C_17
REMARK    5  A    between atoms: N_19  and  C_20
REMARK    6  A    between atoms: C_20  and  C_21
REMARK    7  A    between atoms: C_24  and  C_26
REMARK                            x       y       z     vdW  Elec       q    Type
REMARK                         _______ _______ _______ _____ _____    ______ ____
ROOT
ATOM      1  C   UNL     1       2.243  -0.099  -0.788  0.00  0.00    +0.020 C 
ENDROOT
BRANCH   1  11
ATOM      2  C   UNL     1       1.270   1.973   0.006  0.00  0.00    +0.025 C 
ATOM      3  C   UNL     1       1.351   2.965   1.167  0.00  0.00    +0.029 C 
ATOM      4  C   UNL     1       2.718   3.600   1.206  0.00  0.00    -0.047 A 
ATOM      5  C   UNL     1       2.886   4.760   1.947  0.00  0.00    +0.004 A 
ATOM      6  C   UNL     1       4.122   5.371   2.015  0.00  0.00    +0.000 A 
ATOM      7  C   UNL     1       5.198   4.824   1.340  0.00  0.00    +0.000 A 
ATOM      8  C   UNL     1       5.031   3.671   0.600  0.00  0.00    +0.002 A 
ATOM      9  C   UNL     1       3.789   3.056   0.530  0.00  0.00    -0.061 A 
ATOM     10  C   UNL     1       3.656   1.801  -0.292  0.00  0.00    -0.041 C 
ATOM     11  N   UNL     1       2.435   1.075   0.072  0.00  0.00    +0.396 N 
ATOM     12  H   UNL     1       2.542   0.717   1.107  0.00  0.00    -0.080 HD
BRANCH   2  15
ATOM     13  C   UNL     1      -2.332   0.761  -0.454  0.00  0.00    +0.128 C 
ATOM     14  N   UNL     1      -1.101   1.548  -0.556  0.00  0.00    -0.320 N 
ATOM     15  C   UNL     1       0.002   1.166   0.117  0.00  0.00    +0.200 C 
ATOM     16  O   UNL     1      -0.024   0.170   0.808  0.00  0.00    -0.278 OA
ATOM     17  H   UNL     1      -1.077   2.452  -1.183  0.00  0.00    +0.148 HD
ENDBRANCH   2  15
ENDBRANCH   1  11
BRANCH   1  18
ATOM     18  C   UNL     1       3.474  -0.967  -0.735  0.00  0.00    +0.197 C 
ATOM     19  O   UNL     1       4.362  -0.712   0.051  0.00  0.00    -0.278 OA
ATOM     20  N   UNL     1       3.588  -2.027  -1.560  0.00  0.00    -0.310 N 
ATOM     21  H   UNL     1       2.783  -2.258  -2.272  0.00  0.00    +0.149 HD
BRANCH  20  22
ATOM     22  C   UNL     1       4.785  -2.871  -1.507  0.00  0.00    +0.178 C 
BRANCH  22  23
ATOM     23  C   UNL     1       4.664  -3.977  -2.523  0.00  0.00    +0.123 A 
ATOM     24  C   UNL     1       5.082  -3.919  -3.802  0.00  0.00    +0.047 A 
ATOM     25  C   UNL     1       4.777  -5.161  -4.394  0.00  0.00    +0.050 A 
ATOM     26  C   UNL     1       4.184  -5.917  -3.432  0.00  0.00    +0.135 A 
ATOM     27  O   UNL     1       4.127  -5.188  -2.301  0.00  0.00    -0.458 OA
BRANCH  26  28
ATOM     28  C   UNL     1       3.692  -7.301  -3.598  0.00  0.00    +0.017 A 
ATOM     29  C   UNL     1       3.812  -7.945  -4.831  0.00  0.00    +0.013 A 
ATOM     30  C   UNL     1       3.355  -9.238  -4.978  0.00  0.00    +0.021 A 
ATOM     31  C   UNL     1       2.769  -9.894  -3.909  0.00  0.00    +0.041 A 
ATOM     32  C   UNL     1       2.641  -9.258  -2.685  0.00  0.00    +0.021 A 
ATOM     33  C   UNL     1       3.099  -7.967  -2.524  0.00  0.00    +0.013 A 
ATOM     34 CL   UNL     1       2.190 -11.519  -4.104  0.00  0.00    -0.084 Cl
ENDBRANCH  26  28
ENDBRANCH  22  23
ENDBRANCH  20  22
ENDBRANCH   1  18
TORSDOF 6
