REMARK  Name = ZINC66986914
REMARK  7 active torsions:
REMARK  status: ('A' for Active; 'I' for Inactive)
REMARK    1  A    between atoms: C_3  and  N_21
REMARK    2  A    between atoms: C_5  and  S_7
REMARK    3  A    between atoms: S_7  and  N_10
REMARK    4  A    between atoms: N_10  and  C_11
REMARK    5  A    between atoms: C_11  and  C_12
REMARK    6  A    between atoms: C_12  and  N_13
REMARK    7  A    between atoms: N_16  and  N_17
REMARK                            x       y       z     vdW  Elec       q    Type
REMARK                         _______ _______ _______ _____ _____    ______ ____
ROOT
ATOM      1  C   UNL     1       0.111  -2.664   2.429  0.00  0.00    +0.124 C 
ENDROOT
BRANCH   1   2
ATOM      2  N   UNL     1       1.256  -2.939   1.557  0.00  0.00    -0.188 NA
ATOM      3  H   UNL     1       2.027  -3.413   1.905  0.00  0.00    +0.148 HD
BRANCH   2   4
ATOM      4  S   UNL     1       1.232  -2.441  -0.022  0.00  0.00    +0.059 S 
ATOM      5  O   UNL     1      -0.013  -2.861  -0.562  0.00  0.00    -0.153 OA
ATOM      6  O   UNL     1       2.477  -2.827  -0.588  0.00  0.00    -0.153 OA
BRANCH   4  11
ATOM      7  C   UNL     1      -0.017   1.378   0.010  0.00  0.00    +0.004 A 
ATOM      8  C   UNL     1       1.171   2.085   0.002  0.00  0.00    +0.033 A 
ATOM      9  C   UNL     1       2.377   1.411  -0.013  0.00  0.00    +0.128 A 
ATOM     10  C   UNL     1       2.396   0.028  -0.020  0.00  0.00    +0.061 A 
ATOM     11  C   UNL     1       1.209  -0.679  -0.012  0.00  0.00    +0.107 A 
ATOM     12  C   UNL     1       0.002  -0.004   0.002  0.00  0.00    +0.028 A 
BRANCH   9  13
ATOM     13  N   UNL     1       3.649   2.168  -0.022  0.00  0.00    +0.056 N 
ATOM     14  O   UNL     1       3.633   3.377  -0.016  0.00  0.00    -0.126 OA
ATOM     15  O   UNL     1       4.704   1.578  -0.035  0.00  0.00    -0.126 OA
ENDBRANCH   9  13
ENDBRANCH   4  11
ENDBRANCH   2   4
ENDBRANCH   1   2
BRANCH   1  16
ATOM     16  C   UNL     1       0.209  -3.529   3.688  0.00  0.00    +0.122 C 
BRANCH  16  17
ATOM     17  N   UNL     1      -0.935  -3.253   4.559  0.00  0.00    -0.297 N 
ATOM     18  C   UNL     1      -1.060  -3.904   5.733  0.00  0.00    +0.316 C 
ATOM     19  O   UNL     1      -0.222  -4.719   6.069  0.00  0.00    -0.251 OA
ATOM     20  N   UNL     1      -2.113  -3.651   6.535  0.00  0.00    -0.217 N 
ATOM     21  H   UNL     1      -1.604  -2.603   4.292  0.00  0.00    +0.150 HD
ATOM     22  H   UNL     1      -2.203  -4.119   7.380  0.00  0.00    +0.174 HD
BRANCH  20  23
ATOM     23  N   UNL     1      -3.078  -2.712   6.149  0.00  0.00    -0.217 N 
ATOM     24  C   UNL     1      -4.131  -2.459   6.951  0.00  0.00    +0.313 C 
ATOM     25  O   UNL     1      -4.969  -1.644   6.616  0.00  0.00    -0.252 OA
ATOM     26  N   UNL     1      -4.256  -3.109   8.125  0.00  0.00    -0.312 N 
ATOM     27  H   UNL     1      -2.989  -2.244   5.304  0.00  0.00    +0.174 HD
ATOM     28  H   UNL     1      -3.588  -3.759   8.393  0.00  0.00    +0.147 HD
ATOM     29  H   UNL     1      -5.014  -2.927   8.702  0.00  0.00    +0.147 HD
ENDBRANCH  20  23
ENDBRANCH  16  17
ENDBRANCH   1  16
TORSDOF 7
