REMARK  Name = ZINC03279555
REMARK  9 active torsions:
REMARK  status: ('A' for Active; 'I' for Inactive)
REMARK    1  A    between atoms: C_1  and  C_2
REMARK    2  A    between atoms: C_5  and  C_8
REMARK    3  A    between atoms: C_8  and  N_9
REMARK    4  A    between atoms: C_10  and  C_12
REMARK    5  A    between atoms: C_17  and  N_18
REMARK    6  A    between atoms: C_19  and  C_21
REMARK    7  A    between atoms: C_21  and  N_53
REMARK    8  A    between atoms: C_22  and  C_23
REMARK    9  A    between atoms: C_22  and  N_53
REMARK                            x       y       z     vdW  Elec       q    Type
REMARK                         _______ _______ _______ _____ _____    ______ ____
ROOT
ATOM      1  C   UNL     1       1.142   5.884   3.045  0.00  0.00    +0.058 A 
ATOM      2  C   UNL     1       1.048   4.981   4.107  0.00  0.00    +0.015 A 
ATOM      3  C   UNL     1       1.055   5.443   5.405  0.00  0.00    +0.001 A 
ATOM      4  C   UNL     1       1.145   6.801   5.664  0.00  0.00    +0.002 A 
ATOM      5  C   UNL     1       1.233   7.706   4.625  0.00  0.00    +0.024 A 
ATOM      6  C   UNL     1       1.232   7.259   3.311  0.00  0.00    +0.045 A 
ENDROOT
BRANCH   1   8
ATOM      7  N   UNL     1       1.153   4.072   1.404  0.00  0.00    -0.307 N 
ATOM      8  C   UNL     1       1.140   5.396   1.653  0.00  0.00    +0.246 C 
ATOM      9  O   UNL     1       1.125   6.188   0.731  0.00  0.00    -0.270 OA
ATOM     10  H   UNL     1       1.165   3.439   2.139  0.00  0.00    +0.149 HD
BRANCH   7  11
ATOM     11  C   UNL     1       1.151   3.587   0.021  0.00  0.00    +0.139 C 
BRANCH  11  16
ATOM     12  C   UNL     1       1.217  -2.192   0.005  0.00  0.00    +0.044 C 
ATOM     13  C   UNL     1       1.200  -0.685   0.009  0.00  0.00    -0.050 A 
ATOM     14  C   UNL     1      -0.005  -0.007   0.019  0.00  0.00    +0.003 A 
ATOM     15  C   UNL     1      -0.021   1.375   0.023  0.00  0.00    +0.005 A 
ATOM     16  C   UNL     1       1.168   2.080   0.018  0.00  0.00    -0.030 A 
ATOM     17  C   UNL     1       2.373   1.402   0.008  0.00  0.00    +0.005 A 
ATOM     18  C   UNL     1       2.389   0.020   0.004  0.00  0.00    +0.003 A 
ENDBRANCH  11  16
ENDBRANCH   7  11
ENDBRANCH   1   8
BRANCH   6  19
ATOM     19  N   UNL     1       1.320   8.170   2.261  0.00  0.00    -0.286 N 
ATOM     20  C   UNL     1       2.065   9.285   2.397  0.00  0.00    +0.200 C 
ATOM     21  O   UNL     1       2.735   9.448   3.395  0.00  0.00    -0.278 OA
ATOM     22  H   UNL     1       0.845   8.002   1.432  0.00  0.00    +0.155 HD
BRANCH  20  23
ATOM     23  C   UNL     1       2.066  10.328   1.310  0.00  0.00    +0.016 C 
BRANCH  23  24
ATOM     24  N   UNL     1       2.956  11.437   1.704  0.00  0.00    +0.387 N 
ATOM     25  H   UNL     1       3.907  11.075   1.842  0.00  0.00    -0.085 HD
ATOM     26  H   UNL     1       2.616  11.848   2.581  0.00  0.00    -0.085 HD
BRANCH  24  27
ATOM     27  C   UNL     1       2.976  12.474   0.656  0.00  0.00    -0.043 C 
BRANCH  27  28
ATOM     28  C   UNL     1       3.891  13.592   1.085  0.00  0.00    -0.029 A 
ATOM     29  C   UNL     1       3.362  14.752   1.621  0.00  0.00    +0.004 A 
ATOM     30  C   UNL     1       4.201  15.775   2.020  0.00  0.00    +0.000 A 
ATOM     31  C   UNL     1       5.570  15.644   1.874  0.00  0.00    +0.003 A 
ATOM     32  C   UNL     1       6.101  14.488   1.335  0.00  0.00    +0.038 A 
ATOM     33  C   UNL     1       5.261  13.460   0.939  0.00  0.00    +0.125 A 
ATOM     34  F   UNL     1       5.779  12.330   0.411  0.00  0.00    -0.205 F 
ENDBRANCH  27  28
ENDBRANCH  24  27
ENDBRANCH  23  24
ENDBRANCH  20  23
ENDBRANCH   6  19
TORSDOF 8
