REMARK  Name = ZINC13217551
REMARK  5 active torsions:
REMARK  status: ('A' for Active; 'I' for Inactive)
REMARK    1  A    between atoms: C_1  and  C_2
REMARK    2  A    between atoms: C_4  and  C_16
REMARK    3  A    between atoms: C_5  and  C_15
REMARK    4  A    between atoms: N_6  and  C_7
REMARK    5  A    between atoms: C_22  and  C_28
REMARK                            x       y       z     vdW  Elec       q    Type
REMARK                         _______ _______ _______ _____ _____    ______ ____
ROOT
ATOM      1  C   UNL     1       0.885   1.565  -0.547  0.00  0.00    +0.064 C 
ATOM      2  C   UNL     1       0.643   0.086  -0.386  0.00  0.00    +0.022 A 
ATOM      3  C   UNL     1       0.473  -0.788  -1.392  0.00  0.00    +0.031 A 
ATOM      4  C   UNL     1       0.270  -2.104  -0.768  0.00  0.00    -0.003 A 
ATOM      5  C   UNL     1       0.340  -1.891   0.598  0.00  0.00    +0.028 A 
ATOM      6  N   UNL     1       0.569  -0.579   0.806  0.00  0.00    -0.317 N 
ATOM      7  C   UNL     1       0.192  -2.943   1.667  0.00  0.00    +0.064 C 
ENDROOT
BRANCH   4   8
ATOM      8  C   UNL     1       0.041  -3.376  -1.451  0.00  0.00    +0.026 C 
ATOM      9  C   UNL     1      -0.650  -3.403  -2.645  0.00  0.00    +0.079 C 
ATOM     10  C   UNL     1      -0.762  -4.644  -3.460  0.00  0.00    +0.135 C 
ATOM     11  N   UNL     1      -0.818  -5.842  -2.940  0.00  0.00    -0.284 NA
ATOM     12  N   UNL     1      -0.802  -4.399  -4.851  0.00  0.00    -0.241 N 
ATOM     13  C   UNL     1      -0.457  -5.304  -5.815  0.00  0.00    +0.094 C 
ATOM     14  C   UNL     1      -0.607  -4.944  -7.093  0.00  0.00    +0.004 C 
ATOM     15  S   UNL     1      -1.246  -3.285  -6.941  0.00  0.00    -0.060 S 
ATOM     16  C   UNL     1      -1.226  -3.161  -5.276  0.00  0.00    +0.163 C 
ATOM     17  N   UNL     1      -1.514  -2.124  -4.519  0.00  0.00    -0.154 NA
ATOM     18  C   UNL     1      -1.327  -2.200  -3.186  0.00  0.00    +0.273 C 
ATOM     19  O   UNL     1      -1.700  -1.305  -2.445  0.00  0.00    -0.268 OA
ATOM     20  C   UNL     1      -0.312  -5.736  -8.341  0.00  0.00    +0.053 C 
ATOM     21  H   UNL     1      -0.786  -5.954  -1.977  0.00  0.00    +0.188 HD
ENDBRANCH   4   8
BRANCH   6  22
ATOM     22  C   UNL     1       0.708   0.020   2.066  0.00  0.00    +0.048 A 
ATOM     23  C   UNL     1       1.785  -0.310   2.878  0.00  0.00    +0.029 A 
ATOM     24  C   UNL     1       1.921   0.280   4.119  0.00  0.00    +0.042 A 
ATOM     25  C   UNL     1       0.982   1.200   4.555  0.00  0.00    +0.142 A 
ATOM     26  C   UNL     1      -0.094   1.531   3.747  0.00  0.00    +0.078 A 
ATOM     27  C   UNL     1      -0.229   0.947   2.502  0.00  0.00    +0.049 A 
ATOM     28 CL   UNL     1      -1.269   2.684   4.297  0.00  0.00    -0.081 Cl
ATOM     29  F   UNL     1       1.117   1.776   5.770  0.00  0.00    -0.204 F 
ENDBRANCH   6  22
TORSDOF 2
