REMARK  Name = ZINC13567764
REMARK  5 active torsions:
REMARK  status: ('A' for Active; 'I' for Inactive)
REMARK    1  A    between atoms: C_2  and  C_3
REMARK    2  A    between atoms: C_3  and  N_4
REMARK    3  A    between atoms: C_14  and  C_33
REMARK    4  A    between atoms: C_15  and  N_32
REMARK    5  A    between atoms: N_16  and  C_24
REMARK                            x       y       z     vdW  Elec       q    Type
REMARK                         _______ _______ _______ _____ _____    ______ ____
ROOT
ATOM      1  N   UNL     1      -2.283   4.122  -0.576  0.00  0.00    -0.258 N 
ATOM      2  C   UNL     1      -1.259   3.348  -1.091  0.00  0.00    +0.042 A 
ATOM      3  C   UNL     1      -1.311   2.075  -1.662  0.00  0.00    +0.024 A 
ATOM      4  C   UNL     1      -0.115   1.527  -2.099  0.00  0.00    +0.002 A 
ATOM      5  C   UNL     1       1.082   2.204  -1.989  0.00  0.00    +0.000 A 
ATOM      6  C   UNL     1       1.147   3.474  -1.427  0.00  0.00    +0.007 A 
ATOM      7  C   UNL     1      -0.038   4.023  -0.986  0.00  0.00    -0.001 A 
ATOM      8  C   UNL     1      -0.340   5.342  -0.342  0.00  0.00    +0.141 C 
ATOM      9  C   UNL     1      -1.837   5.309  -0.114  0.00  0.00    +0.241 C 
ATOM     10  O   UNL     1      -2.509   6.184   0.390  0.00  0.00    -0.273 OA
ATOM     11  C   UNL     1       0.015   6.476  -1.256  0.00  0.00    +0.089 C 
ATOM     12  C   UNL     1       1.119   7.235  -1.030  0.00  0.00    +0.108 C 
ATOM     13  N   UNL     1       1.926   6.973   0.054  0.00  0.00    -0.260 N 
ATOM     14  C   UNL     1       1.453   6.252   1.118  0.00  0.00    +0.025 C 
ATOM     15  C   UNL     1       0.370   5.456   0.982  0.00  0.00    +0.037 C 
ATOM     16  C   UNL     1      -0.125   4.713   2.068  0.00  0.00    +0.162 C 
ATOM     17  O   UNL     1      -1.111   4.019   1.916  0.00  0.00    -0.292 OA
ATOM     18  C   UNL     1       0.545   4.761   3.414  0.00  0.00    +0.080 C 
ATOM     19  C   UNL     1       2.035   5.060   3.218  0.00  0.00    +0.014 C 
ATOM     20  C   UNL     1       2.168   6.372   2.442  0.00  0.00    +0.052 C 
ENDROOT
BRANCH  13  21
ATOM     21  C   UNL     1       3.243   7.449   0.069  0.00  0.00    +0.041 A 
ATOM     22  C   UNL     1       3.522   8.708   0.585  0.00  0.00    +0.027 A 
ATOM     23  C   UNL     1       4.822   9.174   0.604  0.00  0.00    +0.041 A 
ATOM     24  C   UNL     1       5.846   8.391   0.100  0.00  0.00    +0.142 A 
ATOM     25  C   UNL     1       5.571   7.136  -0.420  0.00  0.00    +0.078 A 
ATOM     26  C   UNL     1       4.271   6.665  -0.436  0.00  0.00    +0.046 A 
ATOM     27 CL   UNL     1       6.857   6.156  -1.051  0.00  0.00    -0.081 Cl
ATOM     28  F   UNL     1       7.117   8.850   0.115  0.00  0.00    -0.204 F 
ENDBRANCH  13  21
BRANCH  12  29
ATOM     29  N   UNL     1       1.431   8.265  -1.885  0.00  0.00    -0.345 N 
ATOM     30  H   UNL     1       2.262   8.753  -1.774  0.00  0.00    +0.144 HD
ATOM     31  H   UNL     1       0.821   8.503  -2.601  0.00  0.00    +0.144 HD
ENDBRANCH  12  29
BRANCH  11  32
ATOM     32  C   UNL     1      -0.822   6.763  -2.383  0.00  0.00    +0.100 C 
ATOM     33  N   UNL     1      -1.485   6.990  -3.277  0.00  0.00    -0.191 NA
ENDBRANCH  11  32
BRANCH   1  34
ATOM     34  C   UNL     1      -3.686   3.703  -0.535  0.00  0.00    +0.202 C 
BRANCH  34  36
ATOM     35  C   UNL     1      -4.163   2.438   1.739  0.00  0.00    +0.005 C 
ATOM     36  C   UNL     1      -3.951   2.999   0.730  0.00  0.00    -0.086 C 
ENDBRANCH  34  36
ENDBRANCH   1  34
TORSDOF 5
