REMARK  Name = ZINC20977004
REMARK  9 active torsions:
REMARK  status: ('A' for Active; 'I' for Inactive)
REMARK    1  A    between atoms: C_1  and  C_2
REMARK    2  A    between atoms: C_2  and  N_3
REMARK    3  A    between atoms: N_6  and  C_9
REMARK    4  A    between atoms: C_10  and  N_16
REMARK    5  A    between atoms: N_16  and  C_17
REMARK    6  A    between atoms: C_17  and  N_19
REMARK    7  A    between atoms: C_20  and  C_22
REMARK    8  A    between atoms: C_31  and  O_32
REMARK    9  A    between atoms: O_32  and  C_33
REMARK                            x       y       z     vdW  Elec       q    Type
REMARK                         _______ _______ _______ _____ _____    ______ ____
ROOT
ATOM      1  N   UNL     1       3.622  -0.665  -0.036  0.00  0.00    -0.295 N 
ATOM      2  H   UNL     1       4.482  -0.246  -0.578  0.00  0.00    +0.154 HD
ENDROOT
BRANCH   1   4
ATOM      3  C   UNL     1       2.357   1.383   0.233  0.00  0.00    +0.070 A 
ATOM      4  C   UNL     1       2.396   0.014  -0.032  0.00  0.00    +0.055 A 
ATOM      5  C   UNL     1       1.220  -0.672  -0.293  0.00  0.00    +0.025 A 
ATOM      6  C   UNL     1       0.012   0.000  -0.289  0.00  0.00    +0.003 A 
ATOM      7  C   UNL     1      -0.029   1.357  -0.026  0.00  0.00    +0.022 A 
ATOM      8  C   UNL     1       1.140   2.050   0.234  0.00  0.00    +0.064 A 
ATOM      9 CL   UNL     1       1.084   3.753   0.564  0.00  0.00    -0.082 Cl
BRANCH   3  13
ATOM     10  N   UNL     1       5.091   4.376   1.157  0.00  0.00    +0.382 N 
ATOM     11  C   UNL     1       5.092   3.838  -0.211  0.00  0.00    -0.060 C 
ATOM     12  C   UNL     1       3.752   3.152  -0.486  0.00  0.00    +0.086 C 
ATOM     13  N   UNL     1       3.541   2.082   0.498  0.00  0.00    -0.331 N 
ATOM     14  C   UNL     1       3.540   2.620   1.865  0.00  0.00    +0.086 C 
ATOM     15  C   UNL     1       4.880   3.306   2.141  0.00  0.00    -0.060 C 
ATOM     16  H   UNL     1       4.255   5.086   1.242  0.00  0.00    -0.082 HD
BRANCH  10  18
ATOM     17  C   UNL     1       6.410   5.438   2.927  0.00  0.00    -0.017 C 
ATOM     18  C   UNL     1       6.334   5.109   1.434  0.00  0.00    -0.082 C 
ENDBRANCH  10  18
ENDBRANCH   3  13
ENDBRANCH   1   4
BRANCH   1  19
ATOM     19  C   UNL     1       3.747  -1.833   0.626  0.00  0.00    +0.141 C 
ATOM     20  S   UNL     1       2.381  -2.541   1.378  0.00  0.00    -0.018 S 
BRANCH  19  21
ATOM     21  N   UNL     1       4.946  -2.443   0.696  0.00  0.00    -0.263 N 
ATOM     22  C   UNL     1       5.071  -3.610   1.358  0.00  0.00    +0.253 C 
ATOM     23  O   UNL     1       4.102  -4.113   1.891  0.00  0.00    -0.270 OA
ATOM     24  H   UNL     1       5.824  -1.988   0.213  0.00  0.00    +0.157 HD
BRANCH  22  25
ATOM     25  C   UNL     1       6.384  -4.278   1.434  0.00  0.00    +0.079 A 
ATOM     26  C   UNL     1       7.487  -3.701   0.824  0.00  0.00    +0.025 A 
ATOM     27  C   UNL     1       8.732  -4.340   0.901  0.00  0.00    -0.017 A 
ATOM     28  C   UNL     1       9.873  -3.782   0.294  0.00  0.00    +0.008 A 
ATOM     29  C   UNL     1      11.067  -4.426   0.385  0.00  0.00    +0.001 A 
ATOM     30  C   UNL     1      11.181  -5.633   1.074  0.00  0.00    +0.001 A 
ATOM     31  C   UNL     1      10.101  -6.203   1.674  0.00  0.00    +0.008 A 
ATOM     32  C   UNL     1       8.848  -5.569   1.601  0.00  0.00    -0.014 A 
ATOM     33  C   UNL     1       7.715  -6.133   2.211  0.00  0.00    +0.055 A 
ATOM     34  C   UNL     1       6.511  -5.497   2.133  0.00  0.00    +0.133 A 
BRANCH  34  35
ATOM     35  O   UNL     1       5.422  -6.046   2.729  0.00  0.00    -0.494 OA
ATOM     36  C   UNL     1       5.615  -7.281   3.421  0.00  0.00    +0.277 C 
ENDBRANCH  34  35
ENDBRANCH  22  25
ENDBRANCH  19  21
ENDBRANCH   1  19
TORSDOF 7
