REMARK  Name = ZINC66189974
REMARK  16 active torsions:
REMARK  status: ('A' for Active; 'I' for Inactive)
REMARK    1  A    between atoms: C_1  and  C_2
REMARK    2  A    between atoms: C_2  and  C_3
REMARK    3  A    between atoms: C_3  and  C_4
REMARK    4  A    between atoms: C_4  and  C_5
REMARK    5  A    between atoms: C_5  and  C_6
REMARK    6  A    between atoms: C_6  and  O_7
REMARK    7  A    between atoms: O_7  and  C_8
REMARK    8  A    between atoms: C_11  and  N_14
REMARK    9  A    between atoms: N_14  and  C_15
REMARK   10  A    between atoms: C_15  and  C_16
REMARK   11  A    between atoms: C_16  and  N_17
REMARK   12  A    between atoms: N_17  and  C_18
REMARK   13  A    between atoms: C_21  and  O_24
REMARK   14  A    between atoms: O_24  and  C_25
REMARK   15  A    between atoms: C_25  and  C_26
REMARK   16  A    between atoms: C_26  and  C_27
REMARK                            x       y       z     vdW  Elec       q    Type
REMARK                         _______ _______ _______ _____ _____    ______ ____
ROOT
ATOM      1  N   UNL     1       2.657 -10.029   4.216  0.00  0.00    -0.342 N 
ATOM      2  H   UNL     1       2.277 -10.622   3.548  0.00  0.00    +0.146 HD
ENDROOT
BRANCH   1   6
ATOM      3  C   UNL     1       2.324  -5.899   3.768  0.00  0.00    +0.121 A 
ATOM      4  C   UNL     1       1.781  -6.745   2.813  0.00  0.00    +0.047 A 
ATOM      5  C   UNL     1       1.891  -8.114   2.960  0.00  0.00    +0.026 A 
ATOM      6  C   UNL     1       2.545  -8.643   4.065  0.00  0.00    +0.027 A 
ATOM      7  C   UNL     1       3.088  -7.794   5.021  0.00  0.00    +0.026 A 
ATOM      8  C   UNL     1       2.982  -6.425   4.869  0.00  0.00    +0.047 A 
BRANCH   3   9
ATOM      9  O   UNL     1       2.215  -4.551   3.622  0.00  0.00    -0.492 OA
BRANCH   9  10
ATOM     10  C   UNL     1       1.524  -4.077   2.464  0.00  0.00    +0.229 C 
BRANCH  10  11
ATOM     11  C   UNL     1       1.503  -2.548   2.473  0.00  0.00    +0.041 C 
BRANCH  11  12
ATOM     12  C   UNL     1       0.763  -2.041   1.233  0.00  0.00    +0.003 C 
BRANCH  12  13
ATOM     13  C   UNL     1       0.742  -0.511   1.242  0.00  0.00    -0.000 C 
BRANCH  13  15
ATOM     14  C   UNL     1      -0.019   1.526   0.010  0.00  0.00    +0.004 C 
ATOM     15  C   UNL     1       0.002  -0.004   0.002  0.00  0.00    -0.003 C 
ENDBRANCH  13  15
ENDBRANCH  12  13
ENDBRANCH  11  12
ENDBRANCH  10  11
ENDBRANCH   9  10
ENDBRANCH   3   9
ENDBRANCH   1   6
BRANCH   1  16
ATOM     16  C   UNL     1       3.347 -10.586   5.382  0.00  0.00    +0.120 C 
BRANCH  16  17
ATOM     17  C   UNL     1       3.328 -12.114   5.304  0.00  0.00    +0.120 C 
BRANCH  17  18
ATOM     18  N   UNL     1       4.018 -12.671   6.470  0.00  0.00    -0.342 N 
ATOM     19  H   UNL     1       4.398 -12.079   7.138  0.00  0.00    +0.146 HD
BRANCH  18  20
ATOM     20  C   UNL     1       4.130 -14.058   6.620  0.00  0.00    +0.027 A 
ATOM     21  C   UNL     1       3.591 -14.906   5.662  0.00  0.00    +0.026 A 
ATOM     22  C   UNL     1       3.702 -16.275   5.811  0.00  0.00    +0.047 A 
ATOM     23  C   UNL     1       4.351 -16.802   6.918  0.00  0.00    +0.121 A 
ATOM     24  C   UNL     1       4.889 -15.955   7.876  0.00  0.00    +0.047 A 
ATOM     25  C   UNL     1       4.784 -14.587   7.725  0.00  0.00    +0.026 A 
BRANCH  23  26
ATOM     26  O   UNL     1       4.460 -18.150   7.064  0.00  0.00    -0.492 OA
BRANCH  26  27
ATOM     27  C   UNL     1       5.141 -18.623   8.227  0.00  0.00    +0.229 C 
BRANCH  27  28
ATOM     28  C   UNL     1       5.164 -20.153   8.218  0.00  0.00    +0.038 C 
ATOM     29  C   UNL     1       5.893 -20.660   9.464  0.00  0.00    +0.007 C 
ENDBRANCH  27  28
ENDBRANCH  26  27
ENDBRANCH  23  26
ENDBRANCH  18  20
ENDBRANCH  17  18
ENDBRANCH  16  17
ENDBRANCH   1  16
TORSDOF 14
