REMARK  Name = ZINC02417200
REMARK  6 active torsions:
REMARK  status: ('A' for Active; 'I' for Inactive)
REMARK    1  A    between atoms: C_1  and  C_2
REMARK    2  A    between atoms: C_2  and  C_3
REMARK    3  A    between atoms: C_3  and  O_4
REMARK    4  A    between atoms: O_4  and  C_5
REMARK    5  A    between atoms: C_9  and  C_11
REMARK    6  A    between atoms: C_29  and  C_32
REMARK                            x       y       z     vdW  Elec       q    Type
REMARK                         _______ _______ _______ _____ _____    ______ ____
ROOT
ATOM      1  C   UNL     1       1.405  -0.438  -0.014  0.00  0.00    +0.152 C 
ATOM      2  C   UNL     1       2.228   0.824  -0.015  0.00  0.00    +0.072 A 
ATOM      3  C   UNL     1       3.674   1.066  -0.027  0.00  0.00    +0.199 A 
ATOM      4  O   UNL     1       4.476   0.149  -0.040  0.00  0.00    -0.287 OA
ATOM      5  C   UNL     1       4.109   2.477  -0.023  0.00  0.00    +0.065 A 
ATOM      6  C   UNL     1       5.460   2.821  -0.033  0.00  0.00    +0.030 A 
ATOM      7  C   UNL     1       5.822   4.150  -0.029  0.00  0.00    +0.019 A 
ATOM      8  C   UNL     1       4.847   5.140  -0.014  0.00  0.00    +0.019 A 
ATOM      9  C   UNL     1       3.509   4.811  -0.004  0.00  0.00    +0.048 A 
ATOM     10  C   UNL     1       3.120   3.475  -0.008  0.00  0.00    +0.140 A 
ATOM     11  O   UNL     1       1.816   3.143   0.002  0.00  0.00    -0.450 OA
ATOM     12  C   UNL     1       1.368   1.872  -0.001  0.00  0.00    +0.199 A 
ATOM     13  C   UNL     1      -0.016   1.340   0.009  0.00  0.00    +0.289 C 
ATOM     14  O   UNL     1      -1.022   2.021   0.018  0.00  0.00    -0.266 OA
ATOM     15  N   UNL     1       0.002  -0.004   0.002  0.00  0.00    -0.232 N 
ATOM     16  C   UNL     1      -1.109  -0.836   0.008  0.00  0.00    +0.168 A 
ATOM     17  N   UNL     1      -2.388  -0.510   0.027  0.00  0.00    -0.230 NA
ATOM     18  C   UNL     1      -3.328  -1.435   0.025  0.00  0.00    +0.047 A 
ATOM     19  C   UNL     1      -2.953  -2.738   0.014  0.00  0.00    +0.071 A 
ATOM     20  S   UNL     1      -1.174  -2.571  -0.001  0.00  0.00    -0.060 S 
ATOM     21  C   UNL     1      -4.785  -1.052   0.041  0.00  0.00    +0.066 C 
ATOM     22 BR   UNL     1       7.651   4.630  -0.042  0.00  0.00    -0.050 Br
ENDROOT
BRANCH   1  27
ATOM     23  C   UNL     1       2.772  -3.086  -2.336  0.00  0.00    +0.121 A 
ATOM     24  C   UNL     1       2.197  -2.716  -3.543  0.00  0.00    +0.045 A 
ATOM     25  C   UNL     1       1.370  -1.611  -3.603  0.00  0.00    +0.004 A 
ATOM     26  C   UNL     1       1.114  -0.875  -2.461  0.00  0.00    +0.006 A 
ATOM     27  C   UNL     1       1.685  -1.242  -1.257  0.00  0.00    -0.019 A 
ATOM     28  C   UNL     1       2.518  -2.343  -1.193  0.00  0.00    +0.051 A 
BRANCH  23  29
ATOM     29  O   UNL     1       3.587  -4.172  -2.275  0.00  0.00    -0.492 OA
BRANCH  29  30
ATOM     30  C   UNL     1       3.808  -4.887  -3.493  0.00  0.00    +0.229 C 
BRANCH  30  32
ATOM     31  C   UNL     1       4.980  -6.833  -4.532  0.00  0.00    +0.007 C 
ATOM     32  C   UNL     1       4.743  -6.068  -3.228  0.00  0.00    +0.038 C 
ENDBRANCH  30  32
ENDBRANCH  29  30
ENDBRANCH  23  29
ENDBRANCH   1  27
TORSDOF 4
