REMARK  Name = ZINC00032810
REMARK  4 active torsions:
REMARK  status: ('A' for Active; 'I' for Inactive)
REMARK    1  A    between atoms: C_6  and  C_7
REMARK    2  A    between atoms: C_14  and  N_25
REMARK    3  A    between atoms: C_15  and  C_23
REMARK    4  A    between atoms: C_16  and  C_18
REMARK                            x       y       z     vdW  Elec       q    Type
REMARK                         _______ _______ _______ _____ _____    ______ ____
ROOT
ATOM      1  C   UNL     1      -1.272  -0.766   0.011  0.00  0.00    +0.100 A 
ATOM      2  C   UNL     1      -1.507  -1.982  -0.637  0.00  0.00    +0.054 A 
ATOM      3  C   UNL     1      -2.796  -2.352  -0.385  0.00  0.00    +0.223 A 
ATOM      4  N   UNL     1      -3.352  -1.401   0.394  0.00  0.00    -0.246 N 
ATOM      5  H   UNL     1      -4.262  -1.399   0.730  0.00  0.00    +0.192 HD
ATOM      6  N   UNL     1      -2.380  -0.417   0.636  0.00  0.00    -0.171 NA
ATOM      7  O   UNL     1      -3.338  -3.496  -0.873  0.00  0.00    -0.423 OA
ATOM      8  C   UNL     1      -2.498  -4.413  -1.394  0.00  0.00    +0.200 C 
ATOM      9  C   UNL     1      -1.206  -4.161  -1.698  0.00  0.00    +0.098 C 
ATOM     10  C   UNL     1      -0.573  -2.808  -1.483  0.00  0.00    +0.105 C 
ENDROOT
BRANCH   1  16
ATOM     11  C   UNL     1      -0.017   1.389   0.010  0.00  0.00    +0.013 A 
ATOM     12  C   UNL     1       1.170   2.093   0.002  0.00  0.00    +0.039 A 
ATOM     13  C   UNL     1       2.379   1.417  -0.013  0.00  0.00    +0.123 A 
ATOM     14  C   UNL     1       2.402   0.032  -0.021  0.00  0.00    +0.039 A 
ATOM     15  C   UNL     1       1.220  -0.680  -0.013  0.00  0.00    +0.013 A 
ATOM     16  C   UNL     1       0.002  -0.004   0.002  0.00  0.00    +0.003 A 
ATOM     17  F   UNL     1       3.538   2.110  -0.022  0.00  0.00    -0.205 F 
ENDBRANCH   1  16
BRANCH  10  18
ATOM     18  C   UNL     1      -0.357  -2.131  -2.812  0.00  0.00    +0.003 A 
ATOM     19  C   UNL     1       0.878  -1.693  -3.343  0.00  0.00    +0.045 A 
ATOM     20  C   UNL     1       0.615  -1.148  -4.544  0.00  0.00    +0.195 A 
ATOM     21  O   UNL     1      -0.707  -1.233  -4.768  0.00  0.00    -0.471 OA
ATOM     22  C   UNL     1      -1.300  -1.832  -3.723  0.00  0.00    +0.199 A 
ENDBRANCH  10  18
BRANCH   8  23
ATOM     23  N   UNL     1      -2.983  -5.675  -1.630  0.00  0.00    -0.328 N 
ATOM     24  H   UNL     1      -3.907  -5.886  -1.422  0.00  0.00    +0.145 HD
ATOM     25  H   UNL     1      -2.403  -6.356  -2.005  0.00  0.00    +0.145 HD
ENDBRANCH   8  23
BRANCH   9  26
ATOM     26  C   UNL     1      -0.407  -5.217  -2.244  0.00  0.00    +0.101 C 
ATOM     27  N   UNL     1       0.227  -6.054  -2.677  0.00  0.00    -0.191 NA
ENDBRANCH   9  26
TORSDOF 4
