REMARK  Name = ZINC59044685
REMARK  5 active torsions:
REMARK  status: ('A' for Active; 'I' for Inactive)
REMARK    1  A    between atoms: C_3  and  C_8
REMARK    2  A    between atoms: C_11  and  S_14
REMARK    3  A    between atoms: N_12  and  N_13
REMARK    4  A    between atoms: S_14  and  C_15
REMARK    5  A    between atoms: C_15  and  C_16
REMARK                            x       y       z     vdW  Elec       q    Type
REMARK                         _______ _______ _______ _____ _____    ______ ____
ROOT
ATOM      1  C   UNL     1       3.657   2.162  -0.022  0.00  0.00    +0.182 A 
ATOM      2  N   UNL     1       3.804   3.439  -0.284  0.00  0.00    -0.127 NA
ATOM      3  N   UNL     1       5.045   3.764  -0.202  0.00  0.00    -0.121 NA
ATOM      4  C   UNL     1       5.766   2.712   0.118  0.00  0.00    +0.209 A 
ATOM      5  N   UNL     1       4.908   1.658   0.250  0.00  0.00    -0.224 N 
ENDROOT
BRANCH   1   8
ATOM      6  C   UNL     1      -0.017   1.379   0.010  0.00  0.00    +0.002 A 
ATOM      7  C   UNL     1       1.167   2.088   0.002  0.00  0.00    +0.012 A 
ATOM      8  C   UNL     1       2.385   1.408  -0.013  0.00  0.00    +0.022 A 
ATOM      9  C   UNL     1       2.398   0.012  -0.021  0.00  0.00    +0.027 A 
ATOM     10  C   UNL     1       1.207  -0.686  -0.013  0.00  0.00    +0.019 A 
ATOM     11  C   UNL     1       0.002  -0.004   0.002  0.00  0.00    +0.015 A 
ATOM     12 BR   UNL     1       1.221  -2.577  -0.024  0.00  0.00    -0.050 Br
ENDBRANCH   1   8
BRANCH   5  13
ATOM     13  N   UNL     1       5.226   0.371   0.580  0.00  0.00    -0.295 N 
ATOM     14  H   UNL     1       5.425  -0.175  -0.244  0.00  0.00    +0.163 HD
ATOM     15  H   UNL     1       6.000   0.345   1.228  0.00  0.00    +0.163 HD
ENDBRANCH   5  13
BRANCH   4  16
ATOM     16  S   UNL     1       7.513   2.672   0.343  0.00  0.00    -0.075 S 
BRANCH  16  17
ATOM     17  C   UNL     1       8.035   4.381   0.031  0.00  0.00    +0.173 C 
BRANCH  17  18
ATOM     18  C   UNL     1       9.530   4.487   0.193  0.00  0.00    +0.229 C 
ATOM     19  O   UNL     1      10.179   3.506   0.488  0.00  0.00    -0.275 OA
ATOM     20  N   UNL     1      10.145   5.672   0.008  0.00  0.00    -0.263 N 
ATOM     21  C   UNL     1      11.524   5.770   0.157  0.00  0.00    +0.187 A 
ATOM     22  N   UNL     1      12.396   4.830   0.465  0.00  0.00    -0.126 NA
ATOM     23  N   UNL     1      13.632   5.073   0.565  0.00  0.00    -0.148 NA
ATOM     24  C   UNL     1      14.063   6.301   0.356  0.00  0.00    +0.183 A 
ATOM     25  S   UNL     1      12.519   7.120  -0.017  0.00  0.00    -0.039 S 
ATOM     26  H   UNL     1       9.626   6.457  -0.228  0.00  0.00    +0.157 HD
ENDBRANCH  17  18
ENDBRANCH  16  17
ENDBRANCH   4  16
TORSDOF 5
