REMARK  Name = ZINC08716671
REMARK  12 active torsions:
REMARK  status: ('A' for Active; 'I' for Inactive)
REMARK    1  A    between atoms: C_1  and  C_2
REMARK    2  A    between atoms: C_2  and  C_3
REMARK    3  A    between atoms: C_3  and  C_4
REMARK    4  A    between atoms: C_4  and  O_5
REMARK    5  A    between atoms: O_5  and  C_6
REMARK    6  A    between atoms: C_9  and  C_12
REMARK    7  A    between atoms: C_12  and  C_13
REMARK    8  A    between atoms: C_12  and  C_23
REMARK    9  A    between atoms: C_16  and  S_20
REMARK   10  A    between atoms: S_20  and  C_21
REMARK   11  A    between atoms: C_26  and  S_30
REMARK   12  A    between atoms: S_30  and  C_31
REMARK                            x       y       z     vdW  Elec       q    Type
REMARK                         _______ _______ _______ _____ _____    ______ ____
ROOT
ATOM      1  C   UNL     1      -3.415  -8.151  -0.009  0.00  0.00    +0.100 C 
ENDROOT
BRANCH   1   2
ATOM      2  C   UNL     1      -3.905  -8.683   1.314  0.00  0.00    +0.095 A 
ATOM      3  C   UNL     1      -3.825 -10.035   1.604  0.00  0.00    +0.282 A 
ATOM      4  N   UNL     1      -4.263 -10.489   2.781  0.00  0.00    -0.185 NA
ATOM      5  C   UNL     1      -4.774  -9.672   3.680  0.00  0.00    +0.172 A 
ATOM      6  N   UNL     1      -4.876  -8.334   3.444  0.00  0.00    -0.302 N 
ATOM      7  C   UNL     1      -4.444  -7.819   2.274  0.00  0.00    +0.260 A 
ATOM      8  O   UNL     1      -4.525  -6.621   2.055  0.00  0.00    -0.267 OA
ATOM      9  O   UNL     1      -3.305 -10.894   0.697  0.00  0.00    -0.265 OA
ATOM     10  H   UNL     1      -5.256  -7.750   4.120  0.00  0.00    +0.171 HD
BRANCH   5  11
ATOM     11  S   UNL     1      -5.338 -10.323   5.217  0.00  0.00    -0.091 S 
ATOM     12  C   UNL     1      -5.012 -12.102   5.086  0.00  0.00    +0.093 C 
ENDBRANCH   5  11
ENDBRANCH   1   2
BRANCH   1  13
ATOM     13  C   UNL     1      -4.236  -8.746  -1.124  0.00  0.00    +0.095 A 
ATOM     14  C   UNL     1      -5.539  -9.159  -0.898  0.00  0.00    +0.282 A 
ATOM     15  N   UNL     1      -6.252  -9.683  -1.899  0.00  0.00    -0.185 NA
ATOM     16  C   UNL     1      -5.739  -9.818  -3.105  0.00  0.00    +0.172 A 
ATOM     17  N   UNL     1      -4.463  -9.428  -3.380  0.00  0.00    -0.302 N 
ATOM     18  C   UNL     1      -3.698  -8.886  -2.409  0.00  0.00    +0.260 A 
ATOM     19  O   UNL     1      -2.555  -8.529  -2.645  0.00  0.00    -0.267 OA
ATOM     20  O   UNL     1      -6.088  -9.031   0.332  0.00  0.00    -0.265 OA
ATOM     21  H   UNL     1      -4.105  -9.536  -4.274  0.00  0.00    +0.171 HD
BRANCH  16  22
ATOM     22  S   UNL     1      -6.723 -10.516  -4.389  0.00  0.00    -0.091 S 
ATOM     23  C   UNL     1      -8.307 -10.876  -3.582  0.00  0.00    +0.093 C 
ENDBRANCH  16  22
ENDBRANCH   1  13
BRANCH   1  27
ATOM     24  C   UNL     1      -3.805  -3.896  -0.066  0.00  0.00    +0.121 A 
ATOM     25  C   UNL     1      -2.583  -4.478   0.238  0.00  0.00    +0.046 A 
ATOM     26  C   UNL     1      -2.459  -5.854   0.256  0.00  0.00    +0.008 A 
ATOM     27  C   UNL     1      -3.553  -6.651  -0.029  0.00  0.00    -0.035 A 
ATOM     28  C   UNL     1      -4.772  -6.074  -0.332  0.00  0.00    +0.008 A 
ATOM     29  C   UNL     1      -4.902  -4.698  -0.345  0.00  0.00    +0.046 A 
BRANCH  24  30
ATOM     30  O   UNL     1      -3.929  -2.543  -0.084  0.00  0.00    -0.492 OA
BRANCH  30  31
ATOM     31  C   UNL     1      -2.758  -1.780   0.213  0.00  0.00    +0.229 C 
BRANCH  31  32
ATOM     32  C   UNL     1      -3.090  -0.288   0.145  0.00  0.00    +0.041 C 
BRANCH  32  34
ATOM     33  C   UNL     1      -2.168   2.020   0.395  0.00  0.00    +0.004 C 
ATOM     34  C   UNL     1      -1.836   0.528   0.464  0.00  0.00    -0.000 C 
ENDBRANCH  32  34
ENDBRANCH  31  32
ENDBRANCH  30  31
ENDBRANCH  24  30
ENDBRANCH   1  27
TORSDOF 9
