REMARK  Name = ZINC37193047
REMARK  6 active torsions:
REMARK  status: ('A' for Active; 'I' for Inactive)
REMARK    1  A    between atoms: C_1  and  C_2
REMARK    2  A    between atoms: C_5  and  S_9
REMARK    3  A    between atoms: C_6  and  N_8
REMARK    4  A    between atoms: S_9  and  C_10
REMARK    5  A    between atoms: C_10  and  C_11
REMARK    6  A    between atoms: N_13  and  C_14
REMARK                            x       y       z     vdW  Elec       q    Type
REMARK                         _______ _______ _______ _____ _____    ______ ____
ROOT
ATOM      1  C   UNL     1       0.041  -4.961  -1.800  0.00  0.00    +0.170 C 
ENDROOT
BRANCH   1   2
ATOM      2  C   UNL     1       0.071  -6.460  -1.958  0.00  0.00    +0.227 C 
ATOM      3  O   UNL     1       0.089  -7.172  -0.976  0.00  0.00    -0.275 OA
ATOM      4  N   UNL     1       0.078  -7.008  -3.189  0.00  0.00    -0.284 N 
ATOM      5  H   UNL     1      -0.003  -6.441  -3.972  0.00  0.00    +0.155 HD
BRANCH   4   6
ATOM      6  C   UNL     1       0.201  -8.394  -3.337  0.00  0.00    +0.048 A 
ATOM      7  C   UNL     1      -0.375  -9.247  -2.405  0.00  0.00    +0.025 A 
ATOM      8  C   UNL     1      -0.252 -10.615  -2.553  0.00  0.00    +0.017 A 
ATOM      9  C   UNL     1       0.443 -11.136  -3.630  0.00  0.00    +0.019 A 
ATOM     10  C   UNL     1       1.018 -10.289  -4.560  0.00  0.00    +0.032 A 
ATOM     11  C   UNL     1       0.894  -8.920  -4.420  0.00  0.00    +0.040 A 
ATOM     12 BR   UNL     1       1.673  -7.763  -5.697  0.00  0.00    -0.048 Br
ATOM     13 BR   UNL     1       0.609 -13.009  -3.829  0.00  0.00    -0.050 Br
ENDBRANCH   4   6
ENDBRANCH   1   2
BRANCH   1  14
ATOM     14  S   UNL     1       0.039  -4.538  -0.036  0.00  0.00    -0.114 S 
BRANCH  14  19
ATOM     15  C   UNL     1      -0.087   1.500   0.014  0.00  0.00    +0.044 C 
ATOM     16  C   UNL     1      -0.055  -0.006   0.005  0.00  0.00    -0.049 A 
ATOM     17  C   UNL     1      -0.045  -0.688  -1.198  0.00  0.00    +0.004 A 
ATOM     18  C   UNL     1      -0.016  -2.070  -1.213  0.00  0.00    +0.017 A 
ATOM     19  C   UNL     1       0.003  -2.777  -0.020  0.00  0.00    +0.029 A 
ATOM     20  C   UNL     1      -0.007  -2.088   1.194  0.00  0.00    +0.038 A 
ATOM     21  C   UNL     1      -0.031  -0.702   1.200  0.00  0.00    +0.027 A 
BRANCH  20  22
ATOM     22  N   UNL     1       0.011  -2.795   2.402  0.00  0.00    -0.357 N 
ATOM     23  H   UNL     1       0.031  -3.765   2.397  0.00  0.00    +0.142 HD
ATOM     24  H   UNL     1       0.004  -2.315   3.245  0.00  0.00    +0.142 HD
ENDBRANCH  20  22
ENDBRANCH  14  19
ENDBRANCH   1  14
TORSDOF 5
