REMARK  Name = ZINC18180292
REMARK  3 active torsions:
REMARK  status: ('A' for Active; 'I' for Inactive)
REMARK    1  A    between atoms: C_4  and  C_7
REMARK    2  A    between atoms: N_15  and  C_18
REMARK    3  A    between atoms: C_22  and  N_24
REMARK                            x       y       z     vdW  Elec       q    Type
REMARK                         _______ _______ _______ _____ _____    ______ ____
ROOT
ATOM      1  C   UNL     1       3.538  -0.529  -0.323  0.00  0.00    +0.163 C 
ATOM      2  C   UNL     1       4.055  -1.154  -1.637  0.00  0.00    +0.125 C 
ATOM      3  C   UNL     1       4.776  -2.452  -1.172  0.00  0.00    +0.138 C 
ATOM      4  C   UNL     1       6.226  -2.181  -1.501  0.00  0.00    +0.234 C 
ATOM      5  O   UNL     1       7.145  -2.945  -1.297  0.00  0.00    -0.274 OA
ATOM      6  N   UNL     1       6.339  -0.968  -2.054  0.00  0.00    -0.210 N 
ATOM      7  C   UNL     1       5.170  -0.295  -2.188  0.00  0.00    +0.233 C 
ATOM      8  O   UNL     1       5.032   0.811  -2.666  0.00  0.00    -0.274 OA
ATOM      9  C   UNL     1       4.569  -2.459   0.350  0.00  0.00    +0.206 C 
ATOM     10  O   UNL     1       3.431  -1.633   0.604  0.00  0.00    -0.348 OA
ATOM     11  C   UNL     1       5.774  -1.911   1.061  0.00  0.00    +0.204 C 
ATOM     12  O   UNL     1       6.254  -0.806   0.922  0.00  0.00    -0.288 OA
ATOM     13  C   UNL     1       6.263  -2.974   1.961  0.00  0.00    +0.031 A 
ATOM     14  C   UNL     1       7.347  -2.995   2.842  0.00  0.00    +0.012 A 
ATOM     15  C   UNL     1       7.609  -4.126   3.591  0.00  0.00    +0.001 A 
ATOM     16  C   UNL     1       6.804  -5.245   3.475  0.00  0.00    +0.001 A 
ATOM     17  C   UNL     1       5.727  -5.246   2.609  0.00  0.00    +0.012 A 
ATOM     18  C   UNL     1       5.443  -4.113   1.843  0.00  0.00    +0.031 A 
ATOM     19  C   UNL     1       4.372  -3.859   0.861  0.00  0.00    +0.204 C 
ATOM     20  O   UNL     1       3.498  -4.631   0.530  0.00  0.00    -0.288 OA
ENDROOT
BRANCH   1  24
ATOM     21  C   UNL     1      -0.289   1.266  -0.943  0.00  0.00    +0.000 A 
ATOM     22  C   UNL     1       0.854   2.041  -0.994  0.00  0.00    +0.000 A 
ATOM     23  C   UNL     1       2.093   1.460  -0.793  0.00  0.00    +0.006 A 
ATOM     24  C   UNL     1       2.188   0.104  -0.540  0.00  0.00    -0.018 A 
ATOM     25  C   UNL     1       1.044  -0.670  -0.488  0.00  0.00    +0.006 A 
ATOM     26  C   UNL     1      -0.194  -0.090  -0.690  0.00  0.00    +0.000 A 
ENDBRANCH   1  24
BRANCH   6  27
ATOM     27  C   UNL     1       7.567  -0.434  -2.468  0.00  0.00    +0.046 A 
ATOM     28  C   UNL     1       8.109   0.659  -1.807  0.00  0.00    +0.024 A 
ATOM     29  C   UNL     1       9.319   1.183  -2.217  0.00  0.00    +0.004 A 
ATOM     30  C   UNL     1       9.991   0.619  -3.286  0.00  0.00    +0.033 A 
ATOM     31  C   UNL     1       9.454  -0.470  -3.947  0.00  0.00    +0.128 A 
ATOM     32  C   UNL     1       8.247  -1.002  -3.537  0.00  0.00    +0.056 A 
BRANCH  31  33
ATOM     33  N   UNL     1      10.176  -1.071  -5.091  0.00  0.00    +0.056 N 
ATOM     34  O   UNL     1      11.235  -0.609  -5.447  0.00  0.00    -0.126 OA
ATOM     35  O   UNL     1       9.707  -2.023  -5.670  0.00  0.00    -0.126 OA
ENDBRANCH  31  33
ENDBRANCH   6  27
TORSDOF 3
