REMARK  Name = ZINC40782429
REMARK  5 active torsions:
REMARK  status: ('A' for Active; 'I' for Inactive)
REMARK    1  A    between atoms: C_3  and  N_10
REMARK    2  A    between atoms: C_6  and  C_7
REMARK    3  A    between atoms: C_12  and  N_25
REMARK    4  A    between atoms: C_13  and  N_17
REMARK    5  A    between atoms: N_17  and  C_18
REMARK                            x       y       z     vdW  Elec       q    Type
REMARK                         _______ _______ _______ _____ _____    ______ ____
ROOT
ATOM      1  N   UNL     1       3.551   2.090   0.296  0.00  0.00    -0.298 N 
ATOM      2  C   UNL     1       4.772   1.429   0.386  0.00  0.00    +0.149 A 
ATOM      3  C   UNL     1       5.971   2.143   0.324  0.00  0.00    +0.106 A 
ATOM      4  C   UNL     1       7.168   1.430   0.419  0.00  0.00    +0.149 A 
ATOM      5  N   UNL     1       7.120   0.108   0.565  0.00  0.00    -0.219 NA
ATOM      6  C   UNL     1       5.967  -0.527   0.619  0.00  0.00    +0.225 A 
ATOM      7  N   UNL     1       4.815   0.108   0.538  0.00  0.00    -0.219 NA
ATOM      8  H   UNL     1       3.528   3.043   0.115  0.00  0.00    +0.154 HD
ENDROOT
BRANCH   1  11
ATOM      9  C   UNL     1       0.062   1.065  -0.089  0.00  0.00    +0.017 A 
ATOM     10  C   UNL     1       1.229   1.756  -0.252  0.00  0.00    +0.024 A 
ATOM     11  C   UNL     1       2.365   1.385   0.465  0.00  0.00    +0.032 A 
ATOM     12  C   UNL     1       2.316   0.311   1.349  0.00  0.00    +0.024 A 
ATOM     13  C   UNL     1       1.152  -0.384   1.518  0.00  0.00    +0.017 A 
ATOM     14  C   UNL     1       0.008  -0.015   0.800  0.00  0.00    +0.063 A 
BRANCH  14  15
ATOM     15  C   UNL     1      -1.247  -0.761   0.979  0.00  0.00    +0.387 C 
ATOM     16  O   UNL     1      -2.246  -0.438   0.350  0.00  0.00    -0.241 OA
ATOM     17  O   UNL     1      -1.293  -1.705   1.756  0.00  0.00    -0.241 OA
ENDBRANCH  14  15
ENDBRANCH   1  11
BRANCH   3  18
ATOM     18  N   UNL     1       5.973   3.538   0.169  0.00  0.00    -0.353 N 
ATOM     19  H   UNL     1       5.133   4.019   0.103  0.00  0.00    +0.143 HD
ATOM     20  H   UNL     1       6.813   4.020   0.127  0.00  0.00    +0.143 HD
ENDBRANCH   3  18
BRANCH   4  21
ATOM     21  N   UNL     1       8.389   2.091   0.362  0.00  0.00    -0.298 N 
ATOM     22  H   UNL     1       8.416   3.060   0.336  0.00  0.00    +0.154 HD
BRANCH  21  23
ATOM     23  C   UNL     1       9.580   1.359   0.343  0.00  0.00    +0.032 A 
ATOM     24  C   UNL     1      10.721   1.870   0.947  0.00  0.00    +0.024 A 
ATOM     25  C   UNL     1      11.896   1.144   0.927  0.00  0.00    +0.016 A 
ATOM     26  C   UNL     1      11.936  -0.091   0.306  0.00  0.00    +0.013 A 
ATOM     27  C   UNL     1      10.801  -0.604  -0.297  0.00  0.00    +0.016 A 
ATOM     28  C   UNL     1       9.622   0.115  -0.275  0.00  0.00    +0.024 A 
ATOM     29  I   UNL     1      13.721  -1.189   0.277  0.00  0.00    -0.044 I 
ENDBRANCH  21  23
ENDBRANCH   4  21
TORSDOF 5
