REMARK  Name = ZINC38999311
REMARK  5 active torsions:
REMARK  status: ('A' for Active; 'I' for Inactive)
REMARK    1  A    between atoms: C_1  and  C_2
REMARK    2  A    between atoms: C_5  and  C_8
REMARK    3  A    between atoms: N_14  and  N_15
REMARK    4  A    between atoms: C_16  and  C_17
REMARK    5  A    between atoms: C_22  and  O_23
REMARK                            x       y       z     vdW  Elec       q    Type
REMARK                         _______ _______ _______ _____ _____    ______ ____
ROOT
ATOM      1  C   UNL     1       0.049  -4.290  -0.022  0.00  0.00    +0.264 C 
ATOM      2  N   UNL     1       0.811  -4.785  -1.178  0.00  0.00    -0.189 NA
ATOM      3  N   UNL     1       1.780  -5.422  -0.756  0.00  0.00    -0.219 N 
ATOM      4  C   UNL     1       1.844  -5.469   0.602  0.00  0.00    +0.174 C 
ATOM      5  S   UNL     1       3.062  -6.271   1.499  0.00  0.00    -0.015 S 
ATOM      6  N   UNL     1       0.803  -4.791   1.143  0.00  0.00    -0.172 N 
ATOM      7  H   UNL     1       2.432  -5.847  -1.335  0.00  0.00    +0.176 HD
ENDROOT
BRANCH   1  12
ATOM      8  C   UNL     1      -0.101   1.486  -0.011  0.00  0.00    +0.044 C 
ATOM      9  C   UNL     1      -0.062  -0.020  -0.013  0.00  0.00    -0.050 A 
ATOM     10  C   UNL     1      -0.052  -0.709  -1.212  0.00  0.00    +0.004 A 
ATOM     11  C   UNL     1      -0.016  -2.091  -1.214  0.00  0.00    +0.008 A 
ATOM     12  C   UNL     1       0.011  -2.784  -0.019  0.00  0.00    -0.002 A 
ATOM     13  C   UNL     1       0.003  -2.095   1.180  0.00  0.00    +0.008 A 
ATOM     14  C   UNL     1      -0.029  -0.713   1.182  0.00  0.00    +0.004 A 
ENDBRANCH   1  12
BRANCH   6  15
ATOM     15  N   UNL     1       0.509  -4.606   2.500  0.00  0.00    -0.183 NA
ATOM     16  C   UNL     1       1.216  -5.210   3.406  0.00  0.00    +0.142 C 
BRANCH  16  17
ATOM     17  C   UNL     1       0.838  -5.105   4.826  0.00  0.00    +0.038 A 
ATOM     18  C   UNL     1       1.599  -5.749   5.805  0.00  0.00    +0.028 A 
ATOM     19  C   UNL     1       1.240  -5.647   7.133  0.00  0.00    +0.020 A 
ATOM     20  C   UNL     1       0.128  -4.908   7.501  0.00  0.00    +0.034 A 
ATOM     21  C   UNL     1      -0.634  -4.266   6.542  0.00  0.00    +0.061 A 
ATOM     22  C   UNL     1      -0.284  -4.354   5.203  0.00  0.00    +0.139 A 
ATOM     23 BR   UNL     1      -2.151  -3.261   7.056  0.00  0.00    -0.046 Br
ATOM     24 BR   UNL     1       2.271  -6.519   8.457  0.00  0.00    -0.050 Br
BRANCH  22  25
ATOM     25  O   UNL     1      -1.028  -3.720   4.261  0.00  0.00    -0.505 OA
ATOM     26  H   UNL     1      -1.751  -4.254   3.905  0.00  0.00    +0.292 HD
ENDBRANCH  22  25
ENDBRANCH  16  17
ENDBRANCH   6  15
TORSDOF 4
