REMARK  Name = ZINC01372062
REMARK  4 active torsions:
REMARK  status: ('A' for Active; 'I' for Inactive)
REMARK    1  A    between atoms: C_1  and  C_2
REMARK    2  A    between atoms: C_11  and  N_15
REMARK    3  A    between atoms: N_18  and  S_21
REMARK    4  A    between atoms: S_21  and  C_24
REMARK                            x       y       z     vdW  Elec       q    Type
REMARK                         _______ _______ _______ _____ _____    ______ ____
ROOT
ATOM      1  N   UNL     1       0.444   0.292   5.271  0.00  0.00    -0.312 N 
ATOM      2  C   UNL     1      -0.345   1.505   5.015  0.00  0.00    +0.123 C 
ATOM      3  C   UNL     1      -1.835   1.186   5.180  0.00  0.00    +0.128 C 
ATOM      4  N   UNL     1      -2.038   0.580   6.504  0.00  0.00    -0.174 NA
ATOM      5  C   UNL     1      -1.188  -0.557   6.887  0.00  0.00    +0.128 C 
ATOM      6  C   UNL     1       0.276  -0.170   6.655  0.00  0.00    +0.123 C 
ENDROOT
BRANCH   1  16
ATOM      7  C   UNL     1       0.610  -4.604   0.650  0.00  0.00    +0.008 C 
ATOM      8  C   UNL     1       1.109  -3.681   1.763  0.00  0.00    -0.009 C 
ATOM      9  C   UNL     1       0.089  -2.565   2.007  0.00  0.00    +0.008 C 
ATOM     10  C   UNL     1       0.457  -1.793   3.273  0.00  0.00    +0.037 C 
ATOM     11  C   UNL     1       1.911  -1.339   3.171  0.00  0.00    -0.025 A 
ATOM     12  C   UNL     1       2.755  -1.930   2.295  0.00  0.00    -0.004 A 
ATOM     13  S   UNL     1       4.311  -1.102   2.513  0.00  0.00    -0.073 S 
ATOM     14  C   UNL     1       3.831   0.033   3.775  0.00  0.00    +0.114 A 
ATOM     15  C   UNL     1       2.462  -0.271   3.989  0.00  0.00    +0.051 A 
ATOM     16  C   UNL     1       1.779   0.498   4.974  0.00  0.00    +0.133 A 
ATOM     17  N   UNL     1       2.506   1.426   5.593  0.00  0.00    -0.220 NA
ATOM     18  C   UNL     1       3.780   1.653   5.341  0.00  0.00    +0.224 A 
ATOM     19  N   UNL     1       4.475   0.974   4.436  0.00  0.00    -0.228 NA
ATOM     20  C   UNL     1       2.442  -3.045   1.345  0.00  0.00    +0.046 C 
ENDBRANCH   1  16
BRANCH   4  21
ATOM     21  S   UNL     1      -3.195   1.162   7.537  0.00  0.00    +0.063 S 
ATOM     22  O   UNL     1      -4.166   1.816   6.732  0.00  0.00    -0.153 OA
ATOM     23  O   UNL     1      -3.527   0.097   8.416  0.00  0.00    -0.153 OA
BRANCH  21  24
ATOM     24  C   UNL     1      -2.434   2.409   8.522  0.00  0.00    +0.136 A 
ATOM     25  C   UNL     1      -2.838   3.700   8.424  0.00  0.00    +0.031 A 
ATOM     26  C   UNL     1      -2.257   4.718   9.190  0.00  0.00    +0.004 A 
ATOM     27  C   UNL     1      -1.258   4.471  10.073  0.00  0.00    +0.033 A 
ATOM     28  C   UNL     1      -0.785   3.154  10.230  0.00  0.00    +0.136 A 
ATOM     29  C   UNL     1      -1.404   2.074   9.422  0.00  0.00    +0.160 A 
ATOM     30  N   UNL     1      -0.741   1.010   9.805  0.00  0.00    -0.047 NA
ATOM     31  O   UNL     1       0.077   1.332  10.642  0.00  0.00    -0.242 OA
ATOM     32  N   UNL     1       0.114   2.510  10.933  0.00  0.00    -0.049 NA
ENDBRANCH  21  24
ENDBRANCH   4  21
TORSDOF 3
