REMARK  Name = ZINC31246793
REMARK  8 active torsions:
REMARK  status: ('A' for Active; 'I' for Inactive)
REMARK    1  A    between atoms: C_1  and  C_2
REMARK    2  A    between atoms: C_4  and  C_14
REMARK    3  A    between atoms: N_16  and  C_17
REMARK    4  A    between atoms: N_16  and  C_18
REMARK    5  A    between atoms: C_18  and  C_19
REMARK    6  A    between atoms: C_22  and  C_25
REMARK    7  A    between atoms: N_27  and  C_28
REMARK    8  A    between atoms: C_28  and  C_29
REMARK                            x       y       z     vdW  Elec       q    Type
REMARK                         _______ _______ _______ _____ _____    ______ ____
ROOT
ATOM      1  C   UNL     1      -2.088   2.443  -3.024  0.00  0.00    +0.142 C 
ENDROOT
BRANCH   1   2
ATOM      2  C   UNL     1      -2.002   1.450  -4.155  0.00  0.00    -0.030 A 
ATOM      3  C   UNL     1      -0.831   1.335  -4.883  0.00  0.00    +0.006 A 
ATOM      4  C   UNL     1      -0.744   0.425  -5.916  0.00  0.00    +0.013 A 
ATOM      5  C   UNL     1      -1.844  -0.373  -6.233  0.00  0.00    +0.037 A 
ATOM      6  C   UNL     1      -3.024  -0.248  -5.499  0.00  0.00    +0.013 A 
ATOM      7  C   UNL     1      -3.096   0.662  -4.465  0.00  0.00    +0.006 A 
BRANCH   5   8
ATOM      8  C   UNL     1      -1.760  -1.346  -7.343  0.00  0.00    +0.244 C 
ATOM      9  O   UNL     1      -2.720  -2.039  -7.618  0.00  0.00    -0.270 OA
ATOM     10  N   UNL     1      -0.619  -1.464  -8.051  0.00  0.00    -0.303 N 
ATOM     11  H   UNL     1       0.250  -0.836  -7.803  0.00  0.00    +0.149 HD
BRANCH  10  12
ATOM     12  C   UNL     1      -0.535  -2.428  -9.151  0.00  0.00    +0.217 C 
BRANCH  12  13
ATOM     13  C   UNL     1       0.857  -2.361  -9.783  0.00  0.00    +0.405 C 
ATOM     14  F   UNL     1       1.822  -2.670  -8.818  0.00  0.00    -0.169 F 
ATOM     15  F   UNL     1       0.936  -3.282 -10.833  0.00  0.00    -0.169 F 
ATOM     16  F   UNL     1       1.084  -1.072 -10.275  0.00  0.00    -0.169 F 
ENDBRANCH  12  13
ENDBRANCH  10  12
ENDBRANCH   5   8
ENDBRANCH   1   2
BRANCH   1  19
ATOM     17  C   UNL     1      -0.375   1.828  -1.404  0.00  0.00    +0.260 C 
ATOM     18  O   UNL     1       0.427   2.470  -2.049  0.00  0.00    -0.271 OA
ATOM     19  N   UNL     1      -1.670   1.799  -1.776  0.00  0.00    -0.297 N 
ATOM     20  C   UNL     1      -2.659   1.123  -0.933  0.00  0.00    +0.132 C 
BRANCH  17  23
ATOM     21  C   UNL     1      -0.827  -1.066  -1.149  0.00  0.00    +0.056 C 
ATOM     22  C   UNL     1       0.416  -0.380  -0.578  0.00  0.00    +0.220 C 
ATOM     23  C   UNL     1       0.077   1.064  -0.186  0.00  0.00    +0.299 C 
ATOM     24  O   UNL     1       1.255   1.670   0.355  0.00  0.00    -0.472 OA
ATOM     25  C   UNL     1       1.953   0.942   1.268  0.00  0.00    +0.163 A 
ATOM     26  C   UNL     1       2.875   1.579   2.087  0.00  0.00    +0.049 A 
ATOM     27  C   UNL     1       3.596   0.851   3.014  0.00  0.00    +0.004 A 
ATOM     28  C   UNL     1       3.401  -0.513   3.129  0.00  0.00    +0.004 A 
ATOM     29  C   UNL     1       2.483  -1.153   2.319  0.00  0.00    +0.049 A 
ATOM     30  C   UNL     1       1.756  -0.429   1.386  0.00  0.00    +0.163 A 
ATOM     31  O   UNL     1       0.853  -1.073   0.596  0.00  0.00    -0.481 OA
ENDBRANCH  17  23
ENDBRANCH   1  19
TORSDOF 6
