REMARK  Name = ZINC51039143
REMARK  2 active torsions:
REMARK  status: ('A' for Active; 'I' for Inactive)
REMARK    1  A    between atoms: C_3  and  O_9
REMARK    2  A    between atoms: O_9  and  C_10
REMARK                            x       y       z     vdW  Elec       q    Type
REMARK                         _______ _______ _______ _____ _____    ______ ____
ROOT
ATOM      1  C   UNL     1      -0.035   1.485  -0.110  0.00  0.00    +0.042 A 
ATOM      2  C   UNL     1       1.172   2.157  -0.111  0.00  0.00    +0.050 A 
ATOM      3  C   UNL     1       2.360   1.447  -0.020  0.00  0.00    +0.144 A 
ATOM      4  C   UNL     1       2.334   0.062   0.073  0.00  0.00    +0.063 A 
ATOM      5  C   UNL     1       1.125  -0.607   0.074  0.00  0.00    +0.057 A 
ATOM      6  C   UNL     1      -0.060   0.104  -0.018  0.00  0.00    +0.125 A 
ATOM      7  F   UNL     1      -1.241  -0.552  -0.016  0.00  0.00    -0.205 F 
ATOM      8 BR   UNL     1       3.953  -0.908   0.197  0.00  0.00    -0.046 Br
ENDROOT
BRANCH   3   9
ATOM      9  O   UNL     1       3.549   2.107  -0.021  0.00  0.00    -0.435 OA
BRANCH   9  10
ATOM     10  C   UNL     1       4.190   2.260  -1.205  0.00  0.00    +0.243 A 
ATOM     11  C   UNL     1       5.445   2.868  -1.262  0.00  0.00    +0.202 A 
ATOM     12  N   UNL     1       6.041   3.000  -2.432  0.00  0.00    -0.149 NA
ATOM     13  N   UNL     1       5.473   2.574  -3.506  0.00  0.00    -0.117 NA
ATOM     14  C   UNL     1       4.286   1.996  -3.476  0.00  0.00    +0.246 A 
ATOM     15  N   UNL     1       3.639   1.830  -2.336  0.00  0.00    -0.179 NA
ATOM     16 CL   UNL     1       3.567   1.441  -4.956  0.00  0.00    -0.039 Cl
ENDBRANCH   9  10
ENDBRANCH   3   9
TORSDOF 2
