REMARK  Name = ZINC55340560
REMARK  5 active torsions:
REMARK  status: ('A' for Active; 'I' for Inactive)
REMARK    1  A    between atoms: C_1  and  C_2
REMARK    2  A    between atoms: C_2  and  C_3
REMARK    3  A    between atoms: C_2  and  N_4
REMARK    4  A    between atoms: N_7  and  C_8
REMARK    5  A    between atoms: C_10  and  N_15
REMARK                            x       y       z     vdW  Elec       q    Type
REMARK                         _______ _______ _______ _____ _____    ______ ____
ROOT
ATOM      1  C   UNL     1      -0.002  -1.126   4.657  0.00  0.00    +0.072 A 
ATOM      2  C   UNL     1      -1.354  -0.816   4.684  0.00  0.00    +0.051 A 
ATOM      3  C   UNL     1      -2.049  -0.863   5.884  0.00  0.00    +0.053 A 
ATOM      4  C   UNL     1      -1.391  -1.220   7.054  0.00  0.00    +0.027 A 
ATOM      5  C   UNL     1      -0.044  -1.528   7.025  0.00  0.00    +0.042 A 
ATOM      6  C   UNL     1       0.651  -1.488   5.830  0.00  0.00    +0.145 A 
ATOM      7  F   UNL     1       1.966  -1.796   5.803  0.00  0.00    -0.204 F 
ENDROOT
BRANCH   3   8
ATOM      8  N   UNL     1      -3.412  -0.550   5.916  0.00  0.00    -0.207 N 
ATOM      9  C   UNL     1      -4.150   0.300   4.965  0.00  0.00    +0.133 C 
ATOM     10  C   UNL     1      -5.622  -0.143   4.862  0.00  0.00    +0.045 C 
ATOM     11  C   UNL     1      -6.083  -0.355   6.336  0.00  0.00    +0.190 C 
ATOM     12  S   UNL     1      -4.542  -1.071   7.039  0.00  0.00    +0.046 S 
ATOM     13  O   UNL     1      -4.552  -2.489   6.938  0.00  0.00    -0.155 OA
ATOM     14  O   UNL     1      -4.196  -0.421   8.255  0.00  0.00    -0.155 OA
ENDBRANCH   3   8
BRANCH   1  18
ATOM     15  N   UNL     1       0.705  -1.077   1.113  0.00  0.00    -0.297 N 
ATOM     16  C   UNL     1       0.049  -1.234   2.279  0.00  0.00    +0.304 C 
ATOM     17  O   UNL     1      -1.135  -1.514   2.278  0.00  0.00    -0.253 OA
ATOM     18  N   UNL     1       0.703  -1.080   3.447  0.00  0.00    -0.267 N 
ATOM     19  H   UNL     1       1.649  -0.854   1.114  0.00  0.00    +0.151 HD
ATOM     20  H   UNL     1       1.663  -0.937   3.450  0.00  0.00    +0.156 HD
BRANCH  15  22
ATOM     21  C   UNL     1      -0.691   0.070  -0.535  0.00  0.00    +0.027 C 
ATOM     22  C   UNL     1      -0.006  -1.245  -0.157  0.00  0.00    +0.068 C 
ATOM     23  C   UNL     1       0.989  -1.634  -1.252  0.00  0.00    +0.027 C 
ENDBRANCH  15  22
ENDBRANCH   1  18
TORSDOF 3
