REMARK  Name = ZINC38511476
REMARK  6 active torsions:
REMARK  status: ('A' for Active; 'I' for Inactive)
REMARK    1  A    between atoms: C_1  and  C_2
REMARK    2  A    between atoms: C_5  and  S_8
REMARK    3  A    between atoms: S_8  and  N_11
REMARK    4  A    between atoms: C_14  and  C_17
REMARK    5  A    between atoms: N_19  and  C_20
REMARK    6  A    between atoms: N_32  and  C_35
REMARK                            x       y       z     vdW  Elec       q    Type
REMARK                         _______ _______ _______ _____ _____    ______ ____
ROOT
ATOM      1  C   UNL     1       4.630  -8.083  -0.154  0.00  0.00    +0.220 C 
ATOM      2  O   UNL     1       4.536  -8.797  -1.130  0.00  0.00    -0.275 OA
ATOM      3  N   UNL     1       5.316  -8.505   0.927  0.00  0.00    -0.285 N 
ATOM      4  H   UNL     1       5.456  -7.906   1.677  0.00  0.00    +0.155 HD
ENDROOT
BRANCH   3   5
ATOM      5  C   UNL     1       5.827  -9.809   0.966  0.00  0.00    +0.035 A 
ATOM      6  C   UNL     1       7.017 -10.080   1.638  0.00  0.00    +0.025 A 
ATOM      7  C   UNL     1       7.534 -11.336   1.691  0.00  0.00    +0.031 A 
ATOM      8  C   UNL     1       6.878 -12.420   1.063  0.00  0.00    +0.080 A 
ATOM      9  C   UNL     1       5.673 -12.117   0.390  0.00  0.00    +0.043 A 
ATOM     10  C   UNL     1       5.151 -10.849   0.342  0.00  0.00    +0.040 A 
ATOM     11  S   UNL     1       5.182 -13.703  -0.242  0.00  0.00    -0.052 S 
ATOM     12  C   UNL     1       6.560 -14.639   0.405  0.00  0.00    +0.162 A 
ATOM     13  N   UNL     1       7.259 -13.717   1.025  0.00  0.00    -0.225 NA
ATOM     14  N   UNL     1       6.822 -15.989   0.284  0.00  0.00    -0.313 N 
ATOM     15  C   UNL     1       5.913 -16.873  -0.463  0.00  0.00    +0.088 C 
ATOM     16  C   UNL     1       6.741 -17.689  -1.460  0.00  0.00    -0.060 C 
ATOM     17  N   UNL     1       7.815 -18.390  -0.746  0.00  0.00    +0.380 N 
ATOM     18  C   UNL     1       8.747 -17.416  -0.164  0.00  0.00    -0.060 C 
ATOM     19  C   UNL     1       8.022 -16.584   0.893  0.00  0.00    +0.088 C 
ATOM     20  C   UNL     1       8.540 -19.258  -1.683  0.00  0.00    -0.096 C 
ATOM     21  H   UNL     1       7.416 -18.953  -0.010  0.00  0.00    -0.082 HD
ENDBRANCH   3   5
BRANCH   1  25
ATOM     22  N   UNL     1       1.766  -4.969  -0.315  0.00  0.00    -0.177 NA
ATOM     23  C   UNL     1       2.638  -5.098  -1.490  0.00  0.00    +0.110 C 
ATOM     24  C   UNL     1       3.269  -6.493  -1.485  0.00  0.00    +0.030 C 
ATOM     25  C   UNL     1       3.978  -6.724  -0.149  0.00  0.00    +0.078 C 
ATOM     26  C   UNL     1       2.959  -6.651   0.990  0.00  0.00    +0.030 C 
ATOM     27  C   UNL     1       2.326  -5.251   1.014  0.00  0.00    +0.110 C 
BRANCH  22  28
ATOM     28  S   UNL     1       0.185  -4.508  -0.483  0.00  0.00    +0.061 S 
ATOM     29  O   UNL     1      -0.505  -4.995   0.659  0.00  0.00    -0.153 OA
ATOM     30  O   UNL     1      -0.199  -4.850  -1.808  0.00  0.00    -0.153 OA
BRANCH  28  35
ATOM     31  C   UNL     1       0.034   1.515  -0.147  0.00  0.00    +0.044 C 
ATOM     32  C   UNL     1       0.072   0.011  -0.231  0.00  0.00    -0.050 A 
ATOM     33  C   UNL     1       0.237  -0.609  -1.456  0.00  0.00    +0.005 A 
ATOM     34  C   UNL     1       0.272  -1.989  -1.532  0.00  0.00    +0.029 A 
ATOM     35  C   UNL     1       0.142  -2.749  -0.385  0.00  0.00    +0.105 A 
ATOM     36  C   UNL     1      -0.023  -2.129   0.840  0.00  0.00    +0.029 A 
ATOM     37  C   UNL     1      -0.053  -0.749   0.917  0.00  0.00    +0.005 A 
ENDBRANCH  28  35
ENDBRANCH  22  28
ENDBRANCH   1  25
TORSDOF 4
