REMARK  Name = ZINC40005903
REMARK  4 active torsions:
REMARK  status: ('A' for Active; 'I' for Inactive)
REMARK    1  A    between atoms: C_4  and  C_7
REMARK    2  A    between atoms: C_7  and  C_8
REMARK    3  A    between atoms: C_8  and  N_9
REMARK    4  A    between atoms: C_18  and  C_32
REMARK                            x       y       z     vdW  Elec       q    Type
REMARK                         _______ _______ _______ _____ _____    ______ ____
ROOT
ATOM      1  N   UNL     1       5.450  -1.678   1.382  0.00  0.00    -0.313 N 
ATOM      2  C   UNL     1       6.067  -2.023   2.574  0.00  0.00    +0.216 A 
ATOM      3  N   UNL     1       5.480  -1.700   3.719  0.00  0.00    -0.221 NA
ATOM      4  C   UNL     1       6.027  -1.995   4.885  0.00  0.00    +0.143 A 
ATOM      5  C   UNL     1       7.247  -2.667   4.898  0.00  0.00    +0.098 A 
ATOM      6  C   UNL     1       7.828  -3.002   3.664  0.00  0.00    +0.137 A 
ATOM      7  N   UNL     1       7.223  -2.669   2.535  0.00  0.00    -0.209 NA
ATOM      8  C   UNL     1       9.105  -3.755   3.704  0.00  0.00    +0.208 C 
ATOM      9  O   UNL     1       9.975  -3.614   2.872  0.00  0.00    -0.289 OA
ATOM     10  C   UNL     1       9.233  -4.720   4.875  0.00  0.00    +0.230 C 
ATOM     11  C   UNL     1       8.865  -3.954   6.133  0.00  0.00    +0.142 A 
ATOM     12  N   UNL     1       7.894  -2.995   6.088  0.00  0.00    -0.259 N 
ATOM     13  C   UNL     1       7.536  -2.327   7.213  0.00  0.00    +0.266 A 
ATOM     14  O   UNL     1       6.655  -1.487   7.190  0.00  0.00    -0.267 OA
ATOM     15  C   UNL     1       8.243  -2.648   8.459  0.00  0.00    +0.066 A 
ATOM     16  C   UNL     1       7.954  -2.006   9.661  0.00  0.00    +0.030 A 
ATOM     17  C   UNL     1       8.652  -2.348  10.799  0.00  0.00    +0.019 A 
ATOM     18  C   UNL     1       9.639  -3.326  10.754  0.00  0.00    +0.017 A 
ATOM     19  C   UNL     1       9.939  -3.972   9.576  0.00  0.00    +0.029 A 
ATOM     20  C   UNL     1       9.245  -3.643   8.410  0.00  0.00    +0.078 A 
ATOM     21  N   UNL     1       9.503  -4.253   7.229  0.00  0.00    -0.231 NA
ATOM     22 BR   UNL     1       8.265  -1.481  12.434  0.00  0.00    -0.050 Br
ATOM     23  H   UNL     1       5.864  -1.911   0.536  0.00  0.00    +0.149 HD
ENDROOT
BRANCH  10  24
ATOM     24  C   UNL     1       8.315  -5.856   4.691  0.00  0.00    +0.082 C 
ATOM     25  N   UNL     1       7.606  -6.732   4.549  0.00  0.00    -0.195 NA
ENDBRANCH  10  24
BRANCH   1  26
ATOM     26  C   UNL     1       4.171  -0.963   1.399  0.00  0.00    +0.109 C 
BRANCH  26  27
ATOM     27  C   UNL     1       3.711  -0.707  -0.038  0.00  0.00    +0.054 C 
BRANCH  27  31
ATOM     28  C   UNL     1      -0.017   1.378   0.010  0.00  0.00    +0.000 A 
ATOM     29  C   UNL     1       1.171   2.086   0.002  0.00  0.00    +0.000 A 
ATOM     30  C   UNL     1       2.377   1.411  -0.013  0.00  0.00    +0.004 A 
ATOM     31  C   UNL     1       2.396   0.029  -0.020  0.00  0.00    -0.046 A 
ATOM     32  C   UNL     1       1.208  -0.679  -0.012  0.00  0.00    +0.004 A 
ATOM     33  C   UNL     1       0.002  -0.004   0.002  0.00  0.00    +0.000 A 
ENDBRANCH  27  31
ENDBRANCH  26  27
ENDBRANCH   1  26
TORSDOF 4
