REMARK  Name = ZINC20208437
REMARK  5 active torsions:
REMARK  status: ('A' for Active; 'I' for Inactive)
REMARK    1  A    between atoms: C_1  and  C_2
REMARK    2  A    between atoms: C_2  and  S_3
REMARK    3  A    between atoms: S_3  and  C_6
REMARK    4  A    between atoms: C_12  and  C_13
REMARK    5  A    between atoms: C_16  and  C_18
REMARK                            x       y       z     vdW  Elec       q    Type
REMARK                         _______ _______ _______ _____ _____    ______ ____
ROOT
ATOM      1  C   UNL     1      -0.077  -2.258  -0.101  0.00  0.00    +0.235 C 
ATOM      2  N   UNL     1       0.967  -3.016  -0.282  0.00  0.00    -0.145 NA
ATOM      3  N   UNL     1       0.923  -4.369  -0.021  0.00  0.00    -0.150 N 
ATOM      4  C   UNL     1       2.014  -5.260  -0.097  0.00  0.00    +0.153 C 
ATOM      5  N   UNL     1       3.262  -4.877  -0.014  0.00  0.00    -0.283 NA
ATOM      6  C   UNL     1       1.605  -6.678  -0.281  0.00  0.00    +0.084 C 
ATOM      7  C   UNL     1       2.374  -7.570  -1.015  0.00  0.00    +0.063 C 
ATOM      8  C   UNL     1       0.336  -7.089   0.361  0.00  0.00    +0.273 C 
ATOM      9  O   UNL     1       0.135  -8.253   0.667  0.00  0.00    -0.268 OA
ATOM     10  N   UNL     1      -0.591  -6.139   0.599  0.00  0.00    -0.152 NA
ATOM     11  C   UNL     1      -0.292  -4.884   0.378  0.00  0.00    +0.182 C 
ATOM     12  S   UNL     1      -1.296  -3.426   0.487  0.00  0.00    -0.015 S 
ATOM     13  H   UNL     1       3.474  -3.938   0.106  0.00  0.00    +0.188 HD
ENDROOT
BRANCH   7  14
ATOM     14  C   UNL     1       3.471  -7.105  -1.758  0.00  0.00    +0.129 A 
ATOM     15  C   UNL     1       4.398  -7.896  -2.423  0.00  0.00    +0.050 A 
ATOM     16  C   UNL     1       5.309  -7.029  -3.024  0.00  0.00    +0.050 A 
ATOM     17  C   UNL     1       4.914  -5.746  -2.709  0.00  0.00    +0.136 A 
ATOM     18  O   UNL     1       3.806  -5.811  -1.952  0.00  0.00    -0.455 OA
BRANCH  17  19
ATOM     19  C   UNL     1       5.592  -4.508  -3.137  0.00  0.00    +0.019 A 
ATOM     20  C   UNL     1       6.737  -4.574  -3.937  0.00  0.00    +0.013 A 
ATOM     21  C   UNL     1       7.366  -3.414  -4.334  0.00  0.00    +0.022 A 
ATOM     22  C   UNL     1       6.867  -2.183  -3.942  0.00  0.00    +0.059 A 
ATOM     23  C   UNL     1       5.732  -2.108  -3.150  0.00  0.00    +0.060 A 
ATOM     24  C   UNL     1       5.090  -3.263  -2.750  0.00  0.00    +0.033 A 
ATOM     25 CL   UNL     1       5.114  -0.561  -2.663  0.00  0.00    -0.082 Cl
ATOM     26 CL   UNL     1       7.665  -0.726  -4.447  0.00  0.00    -0.082 Cl
ENDBRANCH  17  19
ENDBRANCH   7  14
BRANCH   1  27
ATOM     27  S   UNL     1      -0.243  -0.523  -0.361  0.00  0.00    +0.022 S 
ATOM     28  O   UNL     1       1.087  -0.025  -0.339  0.00  0.00    -0.167 OA
ATOM     29  O   UNL     1      -1.192  -0.101   0.609  0.00  0.00    -0.167 OA
BRANCH  27  31
ATOM     30  C   UNL     1      -1.130   1.114  -2.364  0.00  0.00    +0.028 C 
ATOM     31  C   UNL     1      -0.941  -0.367  -2.028  0.00  0.00    +0.171 C 
ENDBRANCH  27  31
ENDBRANCH   1  27
TORSDOF 4
