REMARK  Name = ZINC46081287
REMARK  7 active torsions:
REMARK  status: ('A' for Active; 'I' for Inactive)
REMARK    1  A    between atoms: C_1  and  C_2
REMARK    2  A    between atoms: C_6  and  N_9
REMARK    3  A    between atoms: C_7  and  C_8
REMARK    4  A    between atoms: C_10  and  C_12
REMARK    5  A    between atoms: C_12  and  N_13
REMARK    6  A    between atoms: C_20  and  C_24
REMARK    7  A    between atoms: N_26  and  C_27
REMARK                            x       y       z     vdW  Elec       q    Type
REMARK                         _______ _______ _______ _____ _____    ______ ____
ROOT
ATOM      1  N   UNL     1      -0.208  -6.335   3.411  0.00  0.00    -0.299 N 
ATOM      2  C   UNL     1      -1.442  -6.923   3.237  0.00  0.00    +0.053 A 
ATOM      3  C   UNL     1      -2.605  -6.160   3.320  0.00  0.00    +0.026 A 
ATOM      4  C   UNL     1      -3.832  -6.760   3.143  0.00  0.00    +0.002 A 
ATOM      5  C   UNL     1      -3.924  -8.120   2.882  0.00  0.00    +0.001 A 
ATOM      6  C   UNL     1      -2.797  -8.888   2.796  0.00  0.00    +0.011 A 
ATOM      7  C   UNL     1      -1.540  -8.300   2.971  0.00  0.00    +0.011 A 
ATOM      8  C   UNL     1      -0.315  -9.108   2.882  0.00  0.00    +0.051 A 
ATOM      9  C   UNL     1       0.889  -8.489   3.062  0.00  0.00    +0.084 A 
ATOM     10  C   UNL     1       0.926  -7.053   3.329  0.00  0.00    +0.253 A 
ATOM     11  O   UNL     1       2.000  -6.499   3.483  0.00  0.00    -0.268 OA
ENDROOT
BRANCH   8  12
ATOM     12  C   UNL     1      -0.385 -10.564   2.604  0.00  0.00    +0.245 C 
ATOM     13  O   UNL     1      -1.454 -11.083   2.354  0.00  0.00    -0.270 OA
ATOM     14  N   UNL     1       0.737 -11.310   2.630  0.00  0.00    -0.314 N 
ATOM     15  C   UNL     1       0.655 -12.763   2.465  0.00  0.00    +0.128 C 
ATOM     16  H   UNL     1       1.600 -10.884   2.758  0.00  0.00    +0.149 HD
ENDBRANCH   8  12
BRANCH   1  17
ATOM     17  C   UNL     1      -0.129  -4.899   3.687  0.00  0.00    +0.221 C 
BRANCH  17  19
ATOM     18  N   UNL     1       0.046  -2.797   2.394  0.00  0.00    -0.284 N 
ATOM     19  C   UNL     1      -0.036  -4.142   2.386  0.00  0.00    +0.237 C 
ATOM     20  O   UNL     1      -0.037  -4.744   1.333  0.00  0.00    -0.274 OA
ATOM     21  H   UNL     1       0.128  -2.321   3.235  0.00  0.00    +0.155 HD
BRANCH  18  27
ATOM     22  C   UNL     1       1.186   1.238  -0.173  0.00  0.00    +0.044 C 
ATOM     23  C   UNL     1       0.559  -0.129  -0.084  0.00  0.00    -0.046 A 
ATOM     24  C   UNL     1      -0.049  -0.684  -1.195  0.00  0.00    +0.004 A 
ATOM     25  C   UNL     1      -0.626  -1.938  -1.118  0.00  0.00    +0.002 A 
ATOM     26  C   UNL     1      -0.596  -2.642   0.071  0.00  0.00    +0.023 A 
ATOM     27  C   UNL     1       0.014  -2.087   1.188  0.00  0.00    +0.037 A 
ATOM     28  C   UNL     1       0.597  -0.829   1.106  0.00  0.00    -0.026 A 
ATOM     29  C   UNL     1       1.265  -0.227   2.314  0.00  0.00    +0.046 C 
ENDBRANCH  18  27
ENDBRANCH  17  19
ENDBRANCH   1  17
TORSDOF 4
