REMARK  Name = ZINC09306732
REMARK  3 active torsions:
REMARK  status: ('A' for Active; 'I' for Inactive)
REMARK    1  A    between atoms: C_5  and  C_7
REMARK    2  A    between atoms: C_7  and  N_8
REMARK    3  A    between atoms: N_18  and  C_21
REMARK                            x       y       z     vdW  Elec       q    Type
REMARK                         _______ _______ _______ _____ _____    ______ ____
ROOT
ATOM      1  N   UNL     1      -4.313  -3.421   1.743  0.00  0.00    -0.301 N 
ATOM      2  C   UNL     1      -3.757  -4.726   1.540  0.00  0.00    +0.119 C 
ATOM      3  C   UNL     1      -4.510  -5.973   1.152  0.00  0.00    +0.190 C 
ATOM      4  S   UNL     1      -3.171  -6.959   0.343  0.00  0.00    -0.027 S 
ATOM      5  O   UNL     1      -3.555  -7.245  -0.995  0.00  0.00    -0.174 OA
ATOM      6  O   UNL     1      -2.782  -8.021   1.203  0.00  0.00    -0.174 OA
ATOM      7  C   UNL     1      -1.836  -5.670   0.329  0.00  0.00    +0.190 C 
ATOM      8  C   UNL     1      -2.716  -4.425   0.414  0.00  0.00    +0.123 C 
ATOM      9  N   UNL     1      -2.217  -3.157   0.895  0.00  0.00    -0.276 N 
ATOM     10  C   UNL     1      -3.281  -2.555   1.505  0.00  0.00    +0.141 C 
ATOM     11  S   UNL     1      -3.319  -0.896   1.927  0.00  0.00    -0.018 S 
ENDROOT
BRANCH   9  12
ATOM     12  C   UNL     1      -0.918  -2.649   0.759  0.00  0.00    +0.039 A 
ATOM     13  C   UNL     1      -0.426  -2.326  -0.498  0.00  0.00    +0.027 A 
ATOM     14  C   UNL     1       0.855  -1.827  -0.633  0.00  0.00    +0.051 A 
ATOM     15  C   UNL     1       1.653  -1.646   0.487  0.00  0.00    +0.162 A 
ATOM     16  C   UNL     1       1.163  -1.966   1.748  0.00  0.00    +0.164 A 
ATOM     17  C   UNL     1      -0.122  -2.469   1.882  0.00  0.00    +0.073 A 
ATOM     18  O   UNL     1       1.930  -1.792   2.858  0.00  0.00    -0.485 OA
ATOM     19  C   UNL     1       3.339  -1.643   2.651  0.00  0.00    +0.270 C 
ATOM     20  C   UNL     1       3.552  -0.641   1.508  0.00  0.00    +0.270 C 
ATOM     21  O   UNL     1       2.916  -1.158   0.334  0.00  0.00    -0.485 OA
ENDBRANCH   9  12
BRANCH   1  22
ATOM     22  C   UNL     1      -5.689  -3.087   2.122  0.00  0.00    +0.143 C 
BRANCH  22  27
ATOM     23  C   UNL     1      -6.299  -4.549   5.549  0.00  0.00    +0.000 A 
ATOM     24  C   UNL     1      -6.124  -3.441   6.357  0.00  0.00    +0.001 A 
ATOM     25  C   UNL     1      -5.809  -2.218   5.796  0.00  0.00    +0.020 A 
ATOM     26  C   UNL     1      -5.667  -2.103   4.424  0.00  0.00    +0.046 A 
ATOM     27  C   UNL     1      -5.842  -3.212   3.616  0.00  0.00    -0.012 A 
ATOM     28  C   UNL     1      -6.163  -4.433   4.178  0.00  0.00    +0.006 A 
ATOM     29 CL   UNL     1      -5.270  -0.567   3.718  0.00  0.00    -0.083 Cl
ENDBRANCH  22  27
ENDBRANCH   1  22
TORSDOF 3
