REMARK  Name = ZINC14962356
REMARK  11 active torsions:
REMARK  status: ('A' for Active; 'I' for Inactive)
REMARK    1  A    between atoms: C_1  and  C_2
REMARK    2  A    between atoms: C_2  and  C_31
REMARK    3  A    between atoms: N_8  and  C_9
REMARK    4  A    between atoms: C_12  and  O_15
REMARK    5  A    between atoms: O_15  and  C_16
REMARK    6  A    between atoms: C_17  and  N_58
REMARK    7  A    between atoms: C_20  and  C_21
REMARK    8  A    between atoms: C_20  and  N_58
REMARK    9  A    between atoms: C_23  and  O_29
REMARK   10  A    between atoms: C_24  and  O_28
REMARK   11  A    between atoms: O_29  and  C_30
REMARK                            x       y       z     vdW  Elec       q    Type
REMARK                         _______ _______ _______ _____ _____    ______ ____
ROOT
ATOM      1  C   UNL     1       8.659   6.758   0.775  0.00  0.00    +0.011 C 
ATOM      2  C   UNL     1       7.472   7.617   0.334  0.00  0.00    -0.031 C 
ATOM      3  C   UNL     1       7.605   7.944  -1.158  0.00  0.00    +0.062 C 
ATOM      4  C   UNL     1       7.371   6.680  -1.946  0.00  0.00    +0.047 A 
ATOM      5  C   UNL     1       6.786   5.564  -1.439  0.00  0.00    -0.020 A 
ATOM      6  C   UNL     1       6.744   4.604  -2.448  0.00  0.00    +0.137 A 
ATOM      7  N   UNL     1       7.282   5.122  -3.526  0.00  0.00    -0.174 NA
ATOM      8  N   UNL     1       7.684   6.433  -3.231  0.00  0.00    -0.237 N 
ATOM      9  C   UNL     1       6.287   5.441  -0.021  0.00  0.00    -0.037 C 
ATOM     10  C   UNL     1       6.169   6.849   0.574  0.00  0.00    -0.005 C 
ATOM     11  C   UNL     1       7.455   8.916   1.142  0.00  0.00    +0.011 C 
ENDROOT
BRANCH   8  12
ATOM     12  C   UNL     1       8.303   7.327  -4.118  0.00  0.00    +0.066 A 
ATOM     13  C   UNL     1       8.019   8.684  -4.046  0.00  0.00    +0.031 A 
ATOM     14  C   UNL     1       8.632   9.565  -4.915  0.00  0.00    +0.048 A 
ATOM     15  C   UNL     1       9.523   9.092  -5.867  0.00  0.00    +0.120 A 
ATOM     16  C   UNL     1       9.803   7.735  -5.944  0.00  0.00    +0.048 A 
ATOM     17  C   UNL     1       9.194   6.855  -5.071  0.00  0.00    +0.031 A 
BRANCH  15  18
ATOM     18  O   UNL     1      10.122   9.958  -6.727  0.00  0.00    -0.495 OA
ATOM     19  C   UNL     1       9.787  11.341  -6.592  0.00  0.00    +0.277 C 
ENDBRANCH  15  18
ENDBRANCH   8  12
BRANCH   9  20
ATOM     20  N   UNL     1       4.961   4.794  -0.015  0.00  0.00    +0.386 N 
ATOM     21  H   UNL     1       4.437   5.089  -0.847  0.00  0.00    -0.085 HD
ATOM     22  H   UNL     1       4.450   5.078   0.830  0.00  0.00    -0.085 HD
BRANCH  20  23
ATOM     23  C   UNL     1       5.107   3.327  -0.025  0.00  0.00    -0.046 C 
BRANCH  23  24
ATOM     24  C   UNL     1       3.739   2.695  -0.018  0.00  0.00    -0.059 A 
ATOM     25  C   UNL     1       3.103   2.413  -1.214  0.00  0.00    +0.051 A 
ATOM     26  C   UNL     1       1.845   1.832  -1.210  0.00  0.00    +0.163 A 
ATOM     27  C   UNL     1       1.224   1.533  -0.001  0.00  0.00    +0.177 A 
ATOM     28  C   UNL     1       1.864   1.823   1.194  0.00  0.00    +0.086 A 
ATOM     29  C   UNL     1       3.122   2.398   1.182  0.00  0.00    +0.025 A 
ATOM     30 CL   UNL     1       1.089   1.458   2.704  0.00  0.00    -0.080 Cl
BRANCH  27  31
ATOM     31  O   UNL     1      -0.011   0.963   0.007  0.00  0.00    -0.502 OA
ATOM     32  H   UNL     1       0.002  -0.004   0.002  0.00  0.00    +0.292 HD
ENDBRANCH  27  31
BRANCH  26  33
ATOM     33  O   UNL     1       1.220   1.553  -2.385  0.00  0.00    -0.491 OA
ATOM     34  C   UNL     1       1.918   1.887  -3.586  0.00  0.00    +0.277 C 
ENDBRANCH  26  33
ENDBRANCH  23  24
ENDBRANCH  20  23
ENDBRANCH   9  20
TORSDOF 7
