REMARK  Name = ZINC02760140
REMARK  5 active torsions:
REMARK  status: ('A' for Active; 'I' for Inactive)
REMARK    1  A    between atoms: C_6  and  C_7
REMARK    2  A    between atoms: C_10  and  N_15
REMARK    3  A    between atoms: C_11  and  C_12
REMARK    4  A    between atoms: C_16  and  C_18
REMARK    5  A    between atoms: C_26  and  C_28
REMARK                            x       y       z     vdW  Elec       q    Type
REMARK                         _______ _______ _______ _____ _____    ______ ____
ROOT
ATOM      1  C   UNL     1      -1.223  -0.849   0.094  0.00  0.00    +0.003 A 
ATOM      2  C   UNL     1      -2.250  -0.534   0.925  0.00  0.00    +0.056 A 
ATOM      3  S   UNL     1      -3.525  -1.681   0.453  0.00  0.00    -0.081 S 
ATOM      4  C   UNL     1      -2.737  -2.520  -0.767  0.00  0.00    +0.084 A 
ATOM      5  C   UNL     1      -1.485  -1.931  -0.838  0.00  0.00    +0.073 A 
ENDROOT
BRANCH   1  11
ATOM      6  C   UNL     1       0.106   1.260   0.107  0.00  0.00    +0.010 A 
ATOM      7  C   UNL     1       1.317   1.921   0.142  0.00  0.00    +0.020 A 
ATOM      8  C   UNL     1       2.499   1.203   0.202  0.00  0.00    +0.041 A 
ATOM      9  C   UNL     1       2.474  -0.181   0.226  0.00  0.00    +0.020 A 
ATOM     10  C   UNL     1       1.268  -0.852   0.191  0.00  0.00    +0.010 A 
ATOM     11  C   UNL     1       0.075  -0.134   0.131  0.00  0.00    -0.017 A 
ATOM     12 CL   UNL     1       4.019   2.041   0.245  0.00  0.00    -0.084 Cl
ENDBRANCH   1  11
BRANCH   5  13
ATOM     13  C   UNL     1      -0.476  -2.381  -1.800  0.00  0.00    +0.244 C 
ATOM     14  O   UNL     1       0.305  -3.263  -1.494  0.00  0.00    -0.270 OA
ATOM     15  N   UNL     1      -0.413  -1.819  -3.023  0.00  0.00    -0.325 N 
ATOM     16  H   UNL     1      -1.036  -1.116  -3.266  0.00  0.00    +0.145 HD
ATOM     17  H   UNL     1       0.255  -2.117  -3.659  0.00  0.00    +0.145 HD
ENDBRANCH   5  13
BRANCH   4  18
ATOM     18  N   UNL     1      -3.229  -3.564  -1.535  0.00  0.00    -0.279 N 
ATOM     19  C   UNL     1      -4.484  -4.013  -1.336  0.00  0.00    +0.224 C 
ATOM     20  O   UNL     1      -5.183  -3.505  -0.485  0.00  0.00    -0.275 OA
ATOM     21  H   UNL     1      -2.671  -3.970  -2.216  0.00  0.00    +0.155 HD
BRANCH  19  22
ATOM     22  C   UNL     1      -5.020  -5.147  -2.171  0.00  0.00    +0.120 C 
ATOM     23  C   UNL     1      -4.668  -6.522  -1.527  0.00  0.00    +0.131 C 
ATOM     24  C   UNL     1      -4.988  -6.359  -0.010  0.00  0.00    +0.035 C 
ATOM     25  C   UNL     1      -6.538  -6.354   0.015  0.00  0.00    +0.035 C 
ATOM     26  C   UNL     1      -6.908  -6.515  -1.490  0.00  0.00    +0.133 C 
ATOM     27  C   UNL     1      -6.570  -5.148  -2.167  0.00  0.00    +0.145 C 
ATOM     28  O   UNL     1      -5.788  -7.348  -1.985  0.00  0.00    -0.372 OA
BRANCH  27  29
ATOM     29  C   UNL     1      -7.107  -5.073  -3.573  0.00  0.00    +0.362 C 
ATOM     30  O   UNL     1      -8.179  -5.588  -3.845  0.00  0.00    -0.246 OA
ATOM     31  O   UNL     1      -6.471  -4.498  -4.439  0.00  0.00    -0.246 OA
ENDBRANCH  27  29
ENDBRANCH  19  22
ENDBRANCH   4  18
TORSDOF 5
