REMARK  Name = ZINC63348759
REMARK  5 active torsions:
REMARK  status: ('A' for Active; 'I' for Inactive)
REMARK    1  A    between atoms: C_1  and  C_2
REMARK    2  A    between atoms: C_2  and  C_3
REMARK    3  A    between atoms: C_2  and  C_4
REMARK    4  A    between atoms: C_4  and  N_5
REMARK    5  A    between atoms: C_28  and  C_30
REMARK                            x       y       z     vdW  Elec       q    Type
REMARK                         _______ _______ _______ _____ _____    ______ ____
ROOT
ATOM      1  N   UNL     1      -2.345  -0.459  -1.412  0.00  0.00    -0.269 N 
ATOM      2  C   UNL     1      -2.895   0.811  -1.454  0.00  0.00    +0.042 A 
ATOM      3  C   UNL     1      -2.997   1.766  -0.442  0.00  0.00    +0.025 A 
ATOM      4  C   UNL     1      -3.603   2.970  -0.765  0.00  0.00    +0.017 A 
ATOM      5  C   UNL     1      -4.089   3.227  -2.032  0.00  0.00    +0.018 A 
ATOM      6  C   UNL     1      -3.993   2.283  -3.050  0.00  0.00    +0.023 A 
ATOM      7  C   UNL     1      -3.391   1.084  -2.735  0.00  0.00    +0.010 A 
ATOM      8  C   UNL     1      -3.116  -0.135  -3.557  0.00  0.00    +0.165 C 
ATOM      9  C   UNL     1      -2.426  -1.086  -2.605  0.00  0.00    +0.250 C 
ATOM     10  O   UNL     1      -2.025  -2.200  -2.864  0.00  0.00    -0.272 OA
ATOM     11  C   UNL     1      -4.409  -0.749  -4.088  0.00  0.00    +0.143 C 
ATOM     12  C   UNL     1      -4.005  -1.819  -5.094  0.00  0.00    -0.034 C 
ATOM     13  C   UNL     1      -4.587  -2.945  -4.698  0.00  0.00    -0.001 A 
ATOM     14  C   UNL     1      -4.633  -4.288  -5.298  0.00  0.00    +0.010 A 
ATOM     15  C   UNL     1      -5.325  -5.231  -4.606  0.00  0.00    +0.001 A 
ATOM     16  C   UNL     1      -5.969  -4.975  -3.391  0.00  0.00    +0.002 A 
ATOM     17  C   UNL     1      -5.983  -3.768  -2.770  0.00  0.00    +0.026 A 
ATOM     18  C   UNL     1      -5.293  -2.695  -3.405  0.00  0.00    +0.043 A 
ATOM     19  N   UNL     1      -5.169  -1.435  -3.042  0.00  0.00    -0.375 N 
ATOM     20  C   UNL     1      -3.052  -1.543  -6.231  0.00  0.00    +0.052 C 
ATOM     21  C   UNL     1      -1.809  -0.873  -5.617  0.00  0.00    +0.113 C 
ATOM     22  N   UNL     1      -2.233   0.177  -4.684  0.00  0.00    -0.281 N 
ATOM     23  C   UNL     1      -1.805   1.442  -4.865  0.00  0.00    +0.214 C 
ATOM     24  O   UNL     1      -2.185   2.323  -4.123  0.00  0.00    -0.276 OA
ATOM     25  C   UNL     1      -0.853   1.762  -5.989  0.00  0.00    +0.109 C 
ATOM     26 BR   UNL     1      -4.904   4.896  -2.391  0.00  0.00    -0.050 Br
ATOM     27  H   UNL     1      -5.511  -1.029  -2.231  0.00  0.00    +0.160 HD
ENDROOT
BRANCH   1  28
ATOM     28  C   UNL     1      -1.741  -1.051  -0.216  0.00  0.00    +0.116 C 
BRANCH  28  30
ATOM     29  C   UNL     1      -0.079   0.803  -0.009  0.00  0.00    +0.009 C 
ATOM     30  C   UNL     1      -0.251  -0.709  -0.174  0.00  0.00    +0.001 C 
ATOM     31  C   UNL     1       0.405  -1.428   1.006  0.00  0.00    +0.009 C 
ENDBRANCH  28  30
ENDBRANCH   1  28
TORSDOF 2
