REMARK  Name = ZINC05514008
REMARK  15 active torsions:
REMARK  status: ('A' for Active; 'I' for Inactive)
REMARK    1  A    between atoms: C_3  and  C_6
REMARK    2  A    between atoms: N_8  and  C_9
REMARK    3  A    between atoms: C_9  and  C_10
REMARK    4  A    between atoms: C_10  and  C_11
REMARK    5  A    between atoms: C_11  and  C_12
REMARK    6  A    between atoms: C_12  and  C_13
REMARK    7  A    between atoms: C_13  and  C_14
REMARK    8  A    between atoms: C_14  and  C_15
REMARK    9  A    between atoms: C_15  and  C_16
REMARK   10  A    between atoms: C_16  and  C_17
REMARK   11  A    between atoms: C_17  and  C_18
REMARK   12  A    between atoms: C_18  and  C_19
REMARK   13  A    between atoms: C_19  and  C_20
REMARK   14  A    between atoms: C_20  and  N_21
REMARK   15  A    between atoms: C_22  and  C_24
REMARK                            x       y       z     vdW  Elec       q    Type
REMARK                         _______ _______ _______ _____ _____    ______ ____
ROOT
ATOM      1  C   UNL     1      -4.263  -4.652   0.018  0.00  0.00    +0.000 C 
ENDROOT
BRANCH   1   2
ATOM      2  C   UNL     1      -2.827  -4.123   0.007  0.00  0.00    +0.000 C 
BRANCH   2   3
ATOM      3  C   UNL     1      -2.848  -2.593   0.015  0.00  0.00    +0.000 C 
BRANCH   3   4
ATOM      4  C   UNL     1      -1.413  -2.063   0.004  0.00  0.00    +0.002 C 
BRANCH   4   5
ATOM      5  C   UNL     1      -1.433  -0.534   0.013  0.00  0.00    +0.019 C 
BRANCH   5   6
ATOM      6  C   UNL     1       0.002  -0.004   0.002  0.00  0.00    +0.104 C 
BRANCH   6   9
ATOM      7  C   UNL     1       1.140   2.151   0.003  0.00  0.00    +0.279 C 
ATOM      8  O   UNL     1       2.202   1.556  -0.011  0.00  0.00    -0.267 OA
ATOM      9  N   UNL     1      -0.018   1.461   0.010  0.00  0.00    -0.309 N 
ATOM     10  H   UNL     1      -0.864   1.934   0.017  0.00  0.00    +0.149 HD
BRANCH   7  13
ATOM     11  C   UNL     1       1.733   5.753   0.016  0.00  0.00    +0.042 A 
ATOM     12  C   UNL     1       2.214   4.434   0.005  0.00  0.00    +0.054 A 
ATOM     13  C   UNL     1       1.120   3.617   0.011  0.00  0.00    +0.189 A 
ATOM     14  O   UNL     1       0.018   4.395   0.020  0.00  0.00    -0.458 OA
ATOM     15  C   UNL     1       0.383   5.683   0.028  0.00  0.00    +0.196 A 
ENDBRANCH   7  13
ENDBRANCH   6   9
ENDBRANCH   5   6
ENDBRANCH   4   5
ENDBRANCH   3   4
ENDBRANCH   2   3
ENDBRANCH   1   2
BRANCH   1  16
ATOM     16  C   UNL     1      -4.242  -6.182   0.009  0.00  0.00    +0.000 C 
BRANCH  16  17
ATOM     17  C   UNL     1      -5.677  -6.712   0.020  0.00  0.00    +0.000 C 
BRANCH  17  18
ATOM     18  C   UNL     1      -5.657  -8.242   0.012  0.00  0.00    +0.000 C 
BRANCH  18  19
ATOM     19  C   UNL     1      -7.092  -8.771   0.023  0.00  0.00    +0.002 C 
BRANCH  19  20
ATOM     20  C   UNL     1      -7.071 -10.301   0.014  0.00  0.00    +0.019 C 
BRANCH  20  21
ATOM     21  C   UNL     1      -8.507 -10.831   0.025  0.00  0.00    +0.104 C 
BRANCH  21  22
ATOM     22  N   UNL     1      -8.487 -12.296   0.017  0.00  0.00    -0.309 N 
ATOM     23  C   UNL     1      -9.645 -12.985   0.024  0.00  0.00    +0.279 C 
ATOM     24  O   UNL     1     -10.707 -12.391   0.038  0.00  0.00    -0.267 OA
ATOM     25  H   UNL     1      -7.640 -12.769   0.006  0.00  0.00    +0.149 HD
BRANCH  23  26
ATOM     26  C   UNL     1      -9.625 -14.452   0.016  0.00  0.00    +0.189 A 
ATOM     27  C   UNL     1     -10.718 -15.269   0.022  0.00  0.00    +0.054 A 
ATOM     28  C   UNL     1     -10.237 -16.587   0.010  0.00  0.00    +0.042 A 
ATOM     29  C   UNL     1      -8.888 -16.518  -0.003  0.00  0.00    +0.196 A 
ATOM     30  O   UNL     1      -8.523 -15.229  -0.004  0.00  0.00    -0.458 OA
ENDBRANCH  23  26
ENDBRANCH  21  22
ENDBRANCH  20  21
ENDBRANCH  19  20
ENDBRANCH  18  19
ENDBRANCH  17  18
ENDBRANCH  16  17
ENDBRANCH   1  16
TORSDOF 15
