REMARK  Name = ZINC64520038
REMARK  3 active torsions:
REMARK  status: ('A' for Active; 'I' for Inactive)
REMARK    1  A    between atoms: C_6  and  S_7
REMARK    2  A    between atoms: S_7  and  N_10
REMARK    3  A    between atoms: C_16  and  C_18
REMARK                            x       y       z     vdW  Elec       q    Type
REMARK                         _______ _______ _______ _____ _____    ______ ____
ROOT
ATOM      1  N   UNL     1      -1.938  -1.163  -1.568  0.00  0.00    -0.174 NA
ATOM      2  C   UNL     1      -2.785  -0.189  -2.271  0.00  0.00    +0.128 C 
ATOM      3  C   UNL     1      -2.062   0.257  -3.548  0.00  0.00    +0.125 C 
ATOM      4  N   UNL     1      -1.607  -0.938  -4.272  0.00  0.00    -0.297 N 
ATOM      5  C   UNL     1      -0.760  -1.912  -3.569  0.00  0.00    +0.125 C 
ATOM      6  C   UNL     1      -1.479  -2.355  -2.293  0.00  0.00    +0.128 C 
ATOM      7  C   UNL     1      -1.960  -1.138  -5.557  0.00  0.00    +0.242 C 
ATOM      8  O   UNL     1      -2.659  -0.327  -6.127  0.00  0.00    -0.273 OA
ENDROOT
BRANCH   7   9
ATOM      9  C   UNL     1      -1.486  -2.368  -6.286  0.00  0.00    +0.190 C 
ATOM     10  C   UNL     1      -2.031  -3.612  -5.620  0.00  0.00    +0.016 C 
ATOM     11  C   UNL     1      -2.786  -4.236  -6.552  0.00  0.00    -0.002 A 
ATOM     12  C   UNL     1      -3.573  -5.475  -6.527  0.00  0.00    +0.029 A 
ATOM     13  C   UNL     1      -4.240  -5.851  -7.643  0.00  0.00    +0.042 A 
ATOM     14  C   UNL     1      -4.198  -5.088  -8.819  0.00  0.00    +0.022 A 
ATOM     15  C   UNL     1      -3.497  -3.939  -8.918  0.00  0.00    +0.027 A 
ATOM     16  C   UNL     1      -2.759  -3.449  -7.806  0.00  0.00    +0.043 A 
ATOM     17  N   UNL     1      -2.013  -2.380  -7.655  0.00  0.00    -0.370 N 
ATOM     18 CL   UNL     1      -5.171  -7.316  -7.618  0.00  0.00    -0.084 Cl
ATOM     19  H   UNL     1      -1.839  -1.709  -8.334  0.00  0.00    +0.161 HD
ENDBRANCH   7   9
BRANCH   1  20
ATOM     20  S   UNL     1      -1.505  -0.917   0.011  0.00  0.00    +0.061 S 
ATOM     21  O   UNL     1      -1.201  -2.196   0.552  0.00  0.00    -0.153 OA
ATOM     22  O   UNL     1      -2.492  -0.066   0.576  0.00  0.00    -0.153 OA
BRANCH  20  28
ATOM     23  C   UNL     1      -0.017   1.380   0.010  0.00  0.00    +0.030 A 
ATOM     24  C   UNL     1       1.149   2.109   0.002  0.00  0.00    +0.029 A 
ATOM     25  C   UNL     1       2.399   1.470  -0.013  0.00  0.00    +0.056 A 
ATOM     26  C   UNL     1       2.385   0.067  -0.020  0.00  0.00    +0.042 A 
ATOM     27  C   UNL     1       1.221  -0.661  -0.013  0.00  0.00    +0.045 A 
ATOM     28  C   UNL     1       0.002  -0.004   0.002  0.00  0.00    +0.107 A 
ATOM     29  S   UNL     1       4.110  -0.355  -0.038  0.00  0.00    -0.027 S 
ATOM     30  C   UNL     1       4.768   1.305  -0.035  0.00  0.00    +0.289 A 
ATOM     31  O   UNL     1       5.931   1.664  -0.045  0.00  0.00    -0.260 OA
ATOM     32  N   UNL     1       3.652   2.060  -0.021  0.00  0.00    -0.316 N 
ATOM     33  H   UNL     1       3.727   3.027  -0.017  0.00  0.00    +0.169 HD
ENDBRANCH  20  28
ENDBRANCH   1  20
TORSDOF 3
