REMARK  Name = ZINC19171409
REMARK  2 active torsions:
REMARK  status: ('A' for Active; 'I' for Inactive)
REMARK    1  A    between atoms: C_6  and  C_7
REMARK    2  A    between atoms: N_15  and  C_18
REMARK                            x       y       z     vdW  Elec       q    Type
REMARK                         _______ _______ _______ _____ _____    ______ ____
ROOT
ATOM      1  C   UNL     1      -1.293  -0.775   0.011  0.00  0.00    +0.117 C 
ATOM      2  C   UNL     1      -1.674  -1.216  -1.401  0.00  0.00    +0.126 C 
ATOM      3  C   UNL     1      -2.666  -2.361  -0.973  0.00  0.00    +0.173 C 
ATOM      4  C   UNL     1      -3.430  -2.564  -2.186  0.00  0.00    +0.246 C 
ATOM      5  O   UNL     1      -3.901  -3.603  -2.595  0.00  0.00    -0.273 OA
ATOM      6  N   UNL     1      -3.505  -1.326  -2.772  0.00  0.00    -0.209 N 
ATOM      7  C   UNL     1      -2.634  -0.410  -2.217  0.00  0.00    +0.233 C 
ATOM      8  O   UNL     1      -2.642   0.795  -2.353  0.00  0.00    -0.274 OA
ATOM      9  N   UNL     1      -1.946  -3.105  -0.015  0.00  0.00    -0.227 NA
ATOM     10  N   UNL     1      -1.129  -2.087   0.716  0.00  0.00    -0.231 NA
ATOM     11  C   UNL     1       0.285  -2.499   0.635  0.00  0.00    +0.104 C 
ATOM     12  C   UNL     1       0.226  -4.015   0.325  0.00  0.00    +0.034 C 
ATOM     13  C   UNL     1      -1.022  -4.093  -0.623  0.00  0.00    +0.104 C 
ENDROOT
BRANCH   6  14
ATOM     14  C   UNL     1      -4.367  -1.022  -3.835  0.00  0.00    +0.045 A 
ATOM     15  C   UNL     1      -4.378   0.256  -4.378  0.00  0.00    +0.025 A 
ATOM     16  C   UNL     1      -5.228   0.554  -5.425  0.00  0.00    +0.023 A 
ATOM     17  C   UNL     1      -6.068  -0.420  -5.934  0.00  0.00    +0.059 A 
ATOM     18  C   UNL     1      -6.060  -1.696  -5.395  0.00  0.00    +0.061 A 
ATOM     19  C   UNL     1      -5.207  -1.999  -4.350  0.00  0.00    +0.045 A 
ATOM     20 CL   UNL     1      -7.115  -2.916  -6.036  0.00  0.00    -0.082 Cl
ATOM     21 CL   UNL     1      -7.136  -0.043  -7.250  0.00  0.00    -0.082 Cl
ENDBRANCH   6  14
BRANCH   1  27
ATOM     22  C   UNL     1       0.527   0.451  -1.193  0.00  0.00    +0.006 A 
ATOM     23  C   UNL     1       1.715   1.158  -1.202  0.00  0.00    +0.020 A 
ATOM     24  C   UNL     1       2.377   1.411  -0.014  0.00  0.00    +0.041 A 
ATOM     25  C   UNL     1       1.851   0.956   1.182  0.00  0.00    +0.020 A 
ATOM     26  C   UNL     1       0.664   0.248   1.189  0.00  0.00    +0.006 A 
ATOM     27  C   UNL     1       0.002  -0.004   0.002  0.00  0.00    -0.028 A 
ATOM     28 CL   UNL     1       3.869   2.299  -0.024  0.00  0.00    -0.084 Cl
ENDBRANCH   1  27
TORSDOF 2
