REMARK  Name = ZINC57316950
REMARK  5 active torsions:
REMARK  status: ('A' for Active; 'I' for Inactive)
REMARK    1  A    between atoms: C_1  and  C_2
REMARK    2  A    between atoms: C_2  and  C_3
REMARK    3  A    between atoms: C_9  and  C_11
REMARK    4  A    between atoms: C_15  and  N_17
REMARK    5  A    between atoms: C_18  and  C_20
REMARK                            x       y       z     vdW  Elec       q    Type
REMARK                         _______ _______ _______ _____ _____    ______ ____
ROOT
ATOM      1  C   UNL     1      -3.142  -1.325  -4.719  0.00  0.00    +0.011 A 
ATOM      2  C   UNL     1      -2.120  -0.761  -5.484  0.00  0.00    +0.011 A 
ATOM      3  C   UNL     1      -2.277  -0.619  -6.848  0.00  0.00    +0.002 A 
ATOM      4  C   UNL     1      -3.445  -1.034  -7.461  0.00  0.00    +0.023 A 
ATOM      5  C   UNL     1      -4.469  -1.595  -6.707  0.00  0.00    +0.034 A 
ATOM      6  C   UNL     1      -4.317  -1.748  -5.337  0.00  0.00    +0.034 A 
ENDROOT
BRANCH   1  13
ATOM      7  C   UNL     1      -1.169  -1.179  -0.028  0.00  0.00    +0.155 A 
ATOM      8  N   UNL     1      -1.812  -1.620   1.016  0.00  0.00    -0.132 NA
ATOM      9  N   UNL     1      -2.964  -2.075   0.665  0.00  0.00    -0.120 NA
ATOM     10  C   UNL     1      -3.106  -1.946  -0.619  0.00  0.00    +0.218 A 
ATOM     11  N   UNL     1      -1.974  -1.363  -1.134  0.00  0.00    -0.190 N 
ATOM     12  N   UNL     1      -1.958  -1.144  -2.505  0.00  0.00    -0.156 NA
ATOM     13  C   UNL     1      -2.976  -1.478  -3.256  0.00  0.00    +0.132 A 
ATOM     14  S   UNL     1      -4.111  -2.172  -2.065  0.00  0.00    -0.026 S 
BRANCH   7  16
ATOM     15  C   UNL     1       0.100   0.942   0.175  0.00  0.00    +0.012 C 
ATOM     16  C   UNL     1       0.210  -0.571  -0.028  0.00  0.00    +0.075 C 
ENDBRANCH   7  16
ENDBRANCH   1  13
BRANCH   5  17
ATOM     17  N   UNL     1      -5.649  -2.012  -7.331  0.00  0.00    -0.281 N 
ATOM     18  C   UNL     1      -6.825  -1.919  -6.679  0.00  0.00    +0.250 C 
ATOM     19  O   UNL     1      -6.875  -1.386  -5.588  0.00  0.00    -0.270 OA
ATOM     20  H   UNL     1      -5.621  -2.368  -8.233  0.00  0.00    +0.155 HD
BRANCH  18  21
ATOM     21  C   UNL     1      -8.054  -2.466  -7.291  0.00  0.00    +0.056 A 
ATOM     22  C   UNL     1      -7.999  -3.085  -8.541  0.00  0.00    +0.029 A 
ATOM     23  C   UNL     1      -9.150  -3.594  -9.107  0.00  0.00    +0.014 A 
ATOM     24  C   UNL     1     -10.358  -3.492  -8.437  0.00  0.00    +0.016 A 
ATOM     25  C   UNL     1     -10.420  -2.881  -7.199  0.00  0.00    +0.022 A 
ATOM     26  C   UNL     1      -9.274  -2.372  -6.618  0.00  0.00    +0.053 A 
ATOM     27 CL   UNL     1      -9.352  -1.611  -5.060  0.00  0.00    -0.083 Cl
ATOM     28  I   UNL     1      -9.071  -4.522 -10.983  0.00  0.00    -0.044 I 
ENDBRANCH  18  21
ENDBRANCH   5  17
TORSDOF 4
