REMARK  Name = ZINC03978319
REMARK  7 active torsions:
REMARK  status: ('A' for Active; 'I' for Inactive)
REMARK    1  A    between atoms: C_1  and  C_2
REMARK    2  A    between atoms: C_7  and  C_34
REMARK    3  A    between atoms: C_7  and  C_35
REMARK    4  A    between atoms: C_11  and  O_33
REMARK    5  A    between atoms: C_13  and  C_32
REMARK    6  A    between atoms: C_18  and  C_31
REMARK    7  A    between atoms: C_24  and  C_26
REMARK                            x       y       z     vdW  Elec       q    Type
REMARK                         _______ _______ _______ _____ _____    ______ ____
ROOT
ATOM      1  C   UNL     1      -0.067   1.524  -0.055  0.00  0.00    +0.012 C 
ATOM      2  C   UNL     1      -0.038  -0.004  -0.053  0.00  0.00    -0.024 C 
ATOM      3  C   UNL     1      -1.494  -0.496   0.069  0.00  0.00    +0.015 C 
ATOM      4  C   UNL     1      -2.123   0.091   1.332  0.00  0.00    +0.075 C 
ATOM      5  C   UNL     1      -1.295  -0.303   2.528  0.00  0.00    +0.139 C 
ATOM      6  O   UNL     1      -1.848  -0.677   3.545  0.00  0.00    -0.297 OA
ATOM      7  C   UNL     1       0.213  -0.244   2.488  0.00  0.00    +0.027 C 
ATOM      8  C   UNL     1       0.759  -0.570   1.110  0.00  0.00    +0.010 C 
ATOM      9  C   UNL     1       2.231  -0.183   0.970  0.00  0.00    +0.037 C 
ATOM     10  C   UNL     1       2.781  -0.875  -0.282  0.00  0.00    +0.125 C 
ATOM     11  C   UNL     1       2.029  -0.422  -1.532  0.00  0.00    +0.019 C 
ATOM     12  C   UNL     1       0.523  -0.510  -1.384  0.00  0.00    +0.008 C 
ATOM     13  C   UNL     1       0.008  -1.922  -1.649  0.00  0.00    +0.006 C 
ATOM     14  C   UNL     1       0.299  -2.286  -3.106  0.00  0.00    +0.015 C 
ATOM     15  C   UNL     1       1.803  -2.388  -3.315  0.00  0.00    +0.031 C 
ATOM     16  C   UNL     1       2.540  -1.234  -2.710  0.00  0.00    -0.044 C 
ATOM     17  C   UNL     1       3.734  -0.898  -3.217  0.00  0.00    +0.092 C 
ATOM     18  C   UNL     1       4.259  -1.579  -4.415  0.00  0.00    +0.333 C 
ATOM     19  O   UNL     1       5.357  -1.271  -4.864  0.00  0.00    -0.246 OA
ATOM     20  O   UNL     1       3.516  -2.532  -5.014  0.00  0.00    -0.453 OA
ATOM     21  C   UNL     1       2.105  -2.478  -4.814  0.00  0.00    +0.220 C 
ATOM     22  C   UNL     1       2.304  -3.694  -2.686  0.00  0.00    +0.020 C 
ATOM     23  C   UNL     1       2.415   1.051  -1.825  0.00  0.00    +0.019 C 
ATOM     24  C   UNL     1       0.730  -1.318   3.476  0.00  0.00    +0.019 C 
ATOM     25  C   UNL     1       0.693   1.114   3.003  0.00  0.00    +0.019 C 
ENDROOT
BRANCH  21  26
ATOM     26  C   UNL     1       1.485  -3.733  -5.373  0.00  0.00    +0.031 A 
ATOM     27  C   UNL     1       0.272  -3.825  -6.093  0.00  0.00    +0.048 A 
ATOM     28  C   UNL     1       0.098  -5.123  -6.400  0.00  0.00    +0.195 A 
ATOM     29  O   UNL     1       1.137  -5.818  -5.907  0.00  0.00    -0.471 OA
ATOM     30  C   UNL     1       1.983  -4.980  -5.288  0.00  0.00    +0.202 A 
ENDBRANCH  21  26
BRANCH  10  31
ATOM     31  O   UNL     1       2.691  -2.287  -0.114  0.00  0.00    -0.391 OA
ATOM     32  H   UNL     1       3.188  -2.626   0.644  0.00  0.00    +0.210 HD
ENDBRANCH  10  31
TORSDOF 2
