REMARK  Name = ZINC09413761
REMARK  6 active torsions:
REMARK  status: ('A' for Active; 'I' for Inactive)
REMARK    1  A    between atoms: C_1  and  C_2
REMARK    2  A    between atoms: C_5  and  N_9
REMARK    3  A    between atoms: C_6  and  C_8
REMARK    4  A    between atoms: C_10  and  N_18
REMARK    5  A    between atoms: C_19  and  C_21
REMARK    6  A    between atoms: C_25  and  N_27
REMARK                            x       y       z     vdW  Elec       q    Type
REMARK                         _______ _______ _______ _____ _____    ______ ____
ROOT
ATOM      1  N   UNL     1       4.922  -0.510  -0.239  0.00  0.00    -0.218 N 
ATOM      2  C   UNL     1       3.670  -1.032  -0.230  0.00  0.00    +0.133 A 
ATOM      3  C   UNL     1       3.790  -2.400  -0.333  0.00  0.00    +0.029 A 
ATOM      4  C   UNL     1       5.138  -2.702  -0.415  0.00  0.00    +0.082 A 
ATOM      5  N   UNL     1       5.823  -1.569  -0.355  0.00  0.00    -0.168 NA
ATOM      6  C   UNL     1       5.505  -4.180  -0.541  0.00  0.00    +0.161 C 
ATOM      7  S   UNL     1       3.893  -4.928  -1.019  0.00  0.00    +0.033 S 
ATOM      8  O   UNL     1       3.672  -6.104  -0.253  0.00  0.00    -0.257 OA
ATOM      9  C   UNL     1       2.816  -3.575  -0.389  0.00  0.00    +0.144 C 
ENDROOT
BRANCH   1  14
ATOM     10  C   UNL     1       6.253   4.995   0.127  0.00  0.00    +0.044 C 
ATOM     11  C   UNL     1       5.899   3.533   0.030  0.00  0.00    -0.050 A 
ATOM     12  C   UNL     1       4.950   3.112  -0.884  0.00  0.00    +0.005 A 
ATOM     13  C   UNL     1       4.624   1.773  -0.975  0.00  0.00    +0.028 A 
ATOM     14  C   UNL     1       5.251   0.850  -0.149  0.00  0.00    +0.070 A 
ATOM     15  C   UNL     1       6.199   1.276   0.771  0.00  0.00    -0.025 A 
ATOM     16  C   UNL     1       6.524   2.616   0.854  0.00  0.00    +0.008 A 
ATOM     17  C   UNL     1       6.877   0.278   1.674  0.00  0.00    +0.046 C 
ENDBRANCH   1  14
BRANCH   2  18
ATOM     18  N   UNL     1       2.480  -0.315  -0.128  0.00  0.00    -0.266 N 
ATOM     19  C   UNL     1       1.387  -0.896   0.405  0.00  0.00    +0.249 C 
ATOM     20  O   UNL     1       1.464  -2.008   0.890  0.00  0.00    -0.270 OA
ATOM     21  H   UNL     1       2.438   0.602  -0.442  0.00  0.00    +0.157 HD
BRANCH  19  22
ATOM     22  C   UNL     1       0.094  -0.181   0.400  0.00  0.00    +0.039 A 
ATOM     23  C   UNL     1       0.022   1.136  -0.059  0.00  0.00    +0.014 A 
ATOM     24  C   UNL     1      -1.186   1.800  -0.056  0.00  0.00    +0.023 A 
ATOM     25  C   UNL     1      -2.330   1.159   0.393  0.00  0.00    +0.071 A 
ATOM     26  C   UNL     1      -2.266  -0.146   0.849  0.00  0.00    +0.145 A 
ATOM     27  C   UNL     1      -1.062  -0.819   0.856  0.00  0.00    +0.047 A 
ATOM     28 CL   UNL     1      -3.849   2.000   0.388  0.00  0.00    -0.081 Cl
BRANCH  26  29
ATOM     29  N   UNL     1      -3.491  -0.822   1.332  0.00  0.00    +0.058 N 
ATOM     30  O   UNL     1      -3.436  -1.970   1.734  0.00  0.00    -0.126 OA
ATOM     31  O   UNL     1      -4.555  -0.229   1.327  0.00  0.00    -0.126 OA
ENDBRANCH  26  29
ENDBRANCH  19  22
ENDBRANCH   2  18
TORSDOF 4
