REMARK  Name = ZINC26958946
REMARK  7 active torsions:
REMARK  status: ('A' for Active; 'I' for Inactive)
REMARK    1  A    between atoms: C_5  and  S_16
REMARK    2  A    between atoms: C_6  and  N_7
REMARK    3  A    between atoms: N_7  and  C_8
REMARK    4  A    between atoms: S_16  and  N_19
REMARK    5  A    between atoms: N_19  and  C_20
REMARK    6  A    between atoms: C_20  and  N_22
REMARK    7  A    between atoms: N_22  and  C_23
REMARK                            x       y       z     vdW  Elec       q    Type
REMARK                         _______ _______ _______ _____ _____    ______ ____
ROOT
ATOM      1  C   UNL     1      -3.055   4.572  -2.788  0.00  0.00    +0.042 A 
ATOM      2  C   UNL     1      -4.095   4.336  -3.663  0.00  0.00    +0.084 A 
ATOM      3  N   UNL     1      -4.970   3.376  -3.430  0.00  0.00    -0.365 N 
ATOM      4  C   UNL     1      -4.890   2.602  -2.364  0.00  0.00    +0.113 A 
ATOM      5  C   UNL     1      -3.883   2.777  -1.437  0.00  0.00    +0.145 A 
ATOM      6  C   UNL     1      -2.937   3.781  -1.646  0.00  0.00    +0.057 A 
ATOM      7  H   UNL     1      -5.797   3.203  -4.135  0.00  0.00    +0.165 HD
ENDROOT
BRANCH   5   8
ATOM      8  S   UNL     1      -3.789   1.743  -0.014  0.00  0.00    +0.077 S 
ATOM      9  O   UNL     1      -2.454   1.262   0.051  0.00  0.00    -0.150 OA
ATOM     10  O   UNL     1      -4.911   0.872  -0.070  0.00  0.00    -0.150 OA
BRANCH   8  11
ATOM     11  N   UNL     1      -4.008   2.712   1.311  0.00  0.00    -0.197 N 
ATOM     12  H   UNL     1      -3.204   2.818   2.053  0.00  0.00    +0.176 HD
BRANCH  11  13
ATOM     13  C   UNL     1      -5.172   3.371   1.479  0.00  0.00    +0.150 C 
ATOM     14  S   UNL     1      -6.469   3.108   0.393  0.00  0.00    -0.017 S 
BRANCH  13  15
ATOM     15  N   UNL     1      -5.314   4.236   2.502  0.00  0.00    -0.323 N 
ATOM     16  H   UNL     1      -4.457   4.464   3.153  0.00  0.00    +0.148 HD
BRANCH  15  17
ATOM     17  C   UNL     1      -6.610   4.873   2.748  0.00  0.00    +0.072 C 
ATOM     18  C   UNL     1      -6.700   6.174   1.947  0.00  0.00    +0.022 C 
ATOM     19  C   UNL     1      -8.053   6.839   2.203  0.00  0.00    +0.002 C 
ATOM     20  C   UNL     1      -8.195   7.148   3.695  0.00  0.00    +0.000 C 
ATOM     21  C   UNL     1      -8.106   5.848   4.496  0.00  0.00    +0.002 C 
ATOM     22  C   UNL     1      -6.752   5.182   4.240  0.00  0.00    +0.022 C 
ENDBRANCH  15  17
ENDBRANCH  13  15
ENDBRANCH  11  13
ENDBRANCH   8  11
ENDBRANCH   5   8
BRANCH   6  23
ATOM     23  N   UNL     1      -1.903   3.987  -0.738  0.00  0.00    -0.339 N 
ATOM     24  H   UNL     1      -1.774   3.302   0.113  0.00  0.00    +0.146 HD
BRANCH  23  25
ATOM     25  C   UNL     1      -0.986   5.115  -0.916  0.00  0.00    +0.070 C 
ATOM     26  C   UNL     1       0.072   4.753  -1.961  0.00  0.00    +0.022 C 
ATOM     27  C   UNL     1       0.772   6.027  -2.439  0.00  0.00    +0.002 C 
ATOM     28  C   UNL     1      -0.268   7.120  -2.688  0.00  0.00    +0.000 C 
ATOM     29  C   UNL     1      -0.083   8.243  -1.666  0.00  0.00    +0.000 C 
ATOM     30  C   UNL     1      -0.640   7.797  -0.313  0.00  0.00    +0.000 C 
ATOM     31  C   UNL     1       0.337   6.820   0.344  0.00  0.00    +0.002 C 
ATOM     32  C   UNL     1      -0.301   5.431   0.415  0.00  0.00    +0.022 C 
ENDBRANCH  23  25
ENDBRANCH   6  23
TORSDOF 7
