REMARK  Name = ZINC40284494
REMARK  5 active torsions:
REMARK  status: ('A' for Active; 'I' for Inactive)
REMARK    1  A    between atoms: C_1  and  O_2
REMARK    2  A    between atoms: O_2  and  C_3
REMARK    3  A    between atoms: C_3  and  C_5
REMARK    4  A    between atoms: C_10  and  N_11
REMARK    5  A    between atoms: C_23  and  C_25
REMARK                            x       y       z     vdW  Elec       q    Type
REMARK                         _______ _______ _______ _____ _____    ______ ____
ROOT
ATOM      1  N   UNL     1       1.712  -2.126  -3.343  0.00  0.00    -0.269 N 
ATOM      2  C   UNL     1       2.119  -2.739  -4.473  0.00  0.00    +0.307 C 
ATOM      3  O   UNL     1       1.968  -3.939  -4.601  0.00  0.00    -0.252 OA
ATOM      4  N   UNL     1       2.692  -2.022  -5.459  0.00  0.00    -0.272 N 
ATOM      5  C   UNL     1       2.787  -0.558  -5.371  0.00  0.00    +0.116 C 
ATOM      6  C   UNL     1       1.950   0.070  -6.492  0.00  0.00    +0.076 C 
ATOM      7  C   UNL     1       2.236  -0.660  -7.780  0.00  0.00    +0.066 A 
ATOM      8  C   UNL     1       2.804  -1.883  -7.854  0.00  0.00    +0.064 A 
ATOM      9  N   UNL     1       2.895  -2.207  -9.172  0.00  0.00    -0.346 N 
ATOM     10  H   UNL     1       3.259  -3.027  -9.541  0.00  0.00    +0.167 HD
ATOM     11  C   UNL     1       2.381  -1.168  -9.870  0.00  0.00    +0.197 A 
ATOM     12  N   UNL     1       1.990  -0.247  -9.028  0.00  0.00    -0.240 NA
ATOM     13  C   UNL     1       3.247  -2.688  -6.652  0.00  0.00    +0.159 C 
ATOM     14  H   UNL     1       1.754  -1.159  -3.274  0.00  0.00    +0.156 HD
ENDROOT
BRANCH  13  15
ATOM     15  C   UNL     1       4.752  -2.713  -6.573  0.00  0.00    +0.014 A 
ATOM     16  C   UNL     1       5.498  -1.808  -7.303  0.00  0.00    +0.010 A 
ATOM     17  C   UNL     1       6.878  -1.830  -7.231  0.00  0.00    +0.020 A 
ATOM     18  C   UNL     1       7.514  -2.759  -6.426  0.00  0.00    +0.044 A 
ATOM     19  C   UNL     1       6.769  -3.665  -5.694  0.00  0.00    +0.058 A 
ATOM     20  C   UNL     1       5.387  -3.639  -5.763  0.00  0.00    +0.130 A 
ATOM     21  F   UNL     1       4.658  -4.521  -5.045  0.00  0.00    -0.205 F 
ATOM     22 CL   UNL     1       9.248  -2.787  -6.336  0.00  0.00    -0.083 Cl
ENDBRANCH  13  15
BRANCH   1  28
ATOM     23  C   UNL     1       0.200  -2.379  -1.466  0.00  0.00    +0.083 A 
ATOM     24  C   UNL     1      -0.279  -3.148  -0.402  0.00  0.00    +0.055 A 
ATOM     25  C   UNL     1       0.268  -4.389  -0.150  0.00  0.00    +0.124 A 
ATOM     26  C   UNL     1       1.291  -4.879  -0.950  0.00  0.00    +0.040 A 
ATOM     27  C   UNL     1       1.772  -4.130  -2.004  0.00  0.00    +0.027 A 
ATOM     28  C   UNL     1       1.230  -2.881  -2.276  0.00  0.00    +0.049 A 
ATOM     29  F   UNL     1      -0.194  -5.132   0.880  0.00  0.00    -0.205 F 
BRANCH  23  30
ATOM     30  C   UNL     1      -0.380  -1.052  -1.742  0.00  0.00    +0.341 C 
ATOM     31  O   UNL     1       0.094  -0.352  -2.614  0.00  0.00    -0.245 OA
BRANCH  30  33
ATOM     32  C   UNL     1      -1.945   0.680  -1.345  0.00  0.00    +0.280 C 
ATOM     33  O   UNL     1      -1.434  -0.616  -1.025  0.00  0.00    -0.464 OA
ENDBRANCH  30  33
ENDBRANCH  23  30
ENDBRANCH   1  28
TORSDOF 4
