REMARK  Name = ZINC46877482
REMARK  10 active torsions:
REMARK  status: ('A' for Active; 'I' for Inactive)
REMARK    1  A    between atoms: C_1  and  C_2
REMARK    2  A    between atoms: C_4  and  C_11
REMARK    3  A    between atoms: C_5  and  C_10
REMARK    4  A    between atoms: N_6  and  C_7
REMARK    5  A    between atoms: C_7  and  C_8
REMARK    6  A    between atoms: C_11  and  C_13
REMARK    7  A    between atoms: C_13  and  N_14
REMARK    8  A    between atoms: C_17  and  C_21
REMARK    9  A    between atoms: C_17  and  C_22
REMARK   10  A    between atoms: C_26  and  C_28
REMARK                            x       y       z     vdW  Elec       q    Type
REMARK                         _______ _______ _______ _____ _____    ______ ____
ROOT
ATOM      1  N   UNL     1       0.052  -4.611  -3.539  0.00  0.00    -0.216 N 
ATOM      2  C   UNL     1       1.175  -5.291  -3.842  0.00  0.00    +0.251 C 
ATOM      3  O   UNL     1       2.319  -4.922  -3.687  0.00  0.00    -0.272 OA
ATOM      4  C   UNL     1       0.710  -6.613  -4.419  0.00  0.00    +0.135 C 
ATOM      5  N   UNL     1      -0.759  -6.516  -4.368  0.00  0.00    -0.281 N 
ATOM      6  C   UNL     1      -1.047  -5.314  -3.836  0.00  0.00    +0.310 C 
ATOM      7  O   UNL     1      -2.178  -4.912  -3.648  0.00  0.00    -0.252 OA
ATOM      8  C   UNL     1       1.202  -7.778  -3.558  0.00  0.00    +0.047 C 
ATOM      9  H   UNL     1      -1.395  -7.188  -4.659  0.00  0.00    +0.152 HD
ENDROOT
BRANCH   4  10
ATOM     10  C   UNL     1       1.183  -6.767  -5.841  0.00  0.00    -0.015 A 
ATOM     11  C   UNL     1       2.366  -6.177  -6.244  0.00  0.00    +0.006 A 
ATOM     12  C   UNL     1       2.799  -6.318  -7.549  0.00  0.00    +0.001 A 
ATOM     13  C   UNL     1       2.050  -7.050  -8.451  0.00  0.00    +0.012 A 
ATOM     14  C   UNL     1       0.867  -7.641  -8.048  0.00  0.00    +0.055 A 
ATOM     15  C   UNL     1       0.435  -7.503  -6.742  0.00  0.00    +0.018 A 
BRANCH  14  16
ATOM     16  C   UNL     1       0.049  -8.438  -9.032  0.00  0.00    +0.417 C 
ATOM     17  F   UNL     1       0.686  -8.437 -10.277  0.00  0.00    -0.166 F 
ATOM     18  F   UNL     1      -0.077  -9.754  -8.574  0.00  0.00    -0.166 F 
ATOM     19  F   UNL     1      -1.220  -7.863  -9.157  0.00  0.00    -0.166 F 
ENDBRANCH  14  16
ENDBRANCH   4  10
BRANCH   1  20
ATOM     20  C   UNL     1       0.035  -3.269  -2.951  0.00  0.00    +0.197 C 
BRANCH  20  21
ATOM     21  C   UNL     1       0.043  -3.379  -1.448  0.00  0.00    +0.183 C 
ATOM     22  O   UNL     1       0.060  -4.471  -0.920  0.00  0.00    -0.290 OA
BRANCH  21  26
ATOM     23  C   UNL     1      -0.018   1.503   0.010  0.00  0.00    +0.063 C 
ATOM     24  C   UNL     1       0.002  -0.004   0.002  0.00  0.00    +0.017 A 
ATOM     25  C   UNL     1       0.008  -0.777  -1.097  0.00  0.00    +0.034 A 
ATOM     26  C   UNL     1       0.030  -2.167  -0.625  0.00  0.00    +0.040 A 
ATOM     27  C   UNL     1       0.035  -2.098   0.755  0.00  0.00    +0.027 A 
ATOM     28  N   UNL     1       0.023  -0.801   1.110  0.00  0.00    -0.344 N 
ATOM     29  C   UNL     1       0.056  -3.273   1.700  0.00  0.00    +0.064 C 
BRANCH  28  30
ATOM     30  C   UNL     1       0.029  -0.312   2.491  0.00  0.00    +0.148 C 
BRANCH  30  31
ATOM     31  C   UNL     1      -1.390  -0.165   2.978  0.00  0.00    -0.013 C 
ATOM     32  C   UNL     1      -1.771  -0.769   4.075  0.00  0.00    +0.005 C 
ENDBRANCH  30  31
ENDBRANCH  28  30
ENDBRANCH  21  26
ENDBRANCH  20  21
ENDBRANCH   1  20
TORSDOF 7
