REMARK  Name = ZINC09237712
REMARK  6 active torsions:
REMARK  status: ('A' for Active; 'I' for Inactive)
REMARK    1  A    between atoms: C_1  and  C_2
REMARK    2  A    between atoms: C_5  and  C_30
REMARK    3  A    between atoms: C_6  and  N_8
REMARK    4  A    between atoms: C_9  and  C_11
REMARK    5  A    between atoms: C_13  and  C_23
REMARK    6  A    between atoms: C_17  and  C_22
REMARK                            x       y       z     vdW  Elec       q    Type
REMARK                         _______ _______ _______ _____ _____    ______ ____
ROOT
ATOM      1  C   UNL     1      -0.777   1.581  -1.236  0.00  0.00    +0.166 C 
ATOM      2  C   UNL     1      -0.007   1.079  -0.008  0.00  0.00    +0.140 C 
ATOM      3  N   UNL     1       1.370   1.576  -0.028  0.00  0.00    -0.272 N 
ATOM      4  N   UNL     1       2.073   1.192  -1.125  0.00  0.00    -0.225 N 
ATOM      5  C   UNL     1       3.429   1.124  -1.263  0.00  0.00    +0.148 A 
ATOM      6  N   UNL     1       3.676   0.724  -2.481  0.00  0.00    -0.132 NA
ATOM      7  N   UNL     1       2.572   0.530  -3.116  0.00  0.00    -0.121 NA
ATOM      8  C   UNL     1       1.566   0.796  -2.330  0.00  0.00    +0.209 A 
ATOM      9  S   UNL     1      -0.158   0.680  -2.689  0.00  0.00    -0.069 S 
ATOM     10  C   UNL     1       4.452   1.450  -0.206  0.00  0.00    +0.090 C 
ATOM     11  H   UNL     1       1.857   1.326   0.819  0.00  0.00    +0.167 HD
ENDROOT
BRANCH   2  12
ATOM     12  C   UNL     1      -0.695   1.568   1.241  0.00  0.00    -0.024 A 
ATOM     13  C   UNL     1      -0.477   2.857   1.689  0.00  0.00    +0.008 A 
ATOM     14  C   UNL     1      -1.112   3.309   2.831  0.00  0.00    +0.038 A 
ATOM     15  C   UNL     1      -1.956   2.465   3.533  0.00  0.00    +0.123 A 
ATOM     16  C   UNL     1      -2.168   1.171   3.086  0.00  0.00    +0.038 A 
ATOM     17  C   UNL     1      -1.537   0.724   1.940  0.00  0.00    +0.008 A 
ATOM     18  F   UNL     1      -2.572   2.903   4.653  0.00  0.00    -0.205 F 
ENDBRANCH   2  12
BRANCH   1  20
ATOM     19  N   UNL     1      -3.156   2.133  -1.629  0.00  0.00    -0.284 N 
ATOM     20  C   UNL     1      -2.250   1.314  -1.059  0.00  0.00    +0.233 C 
ATOM     21  O   UNL     1      -2.619   0.362  -0.404  0.00  0.00    -0.274 OA
ATOM     22  H   UNL     1      -2.864   2.937  -2.084  0.00  0.00    +0.155 HD
BRANCH  19  28
ATOM     23  C   UNL     1      -6.711  -1.231  -1.158  0.00  0.00    +0.044 C 
ATOM     24  C   UNL     1      -6.270   0.199  -1.334  0.00  0.00    -0.049 A 
ATOM     25  C   UNL     1      -7.213   1.206  -1.431  0.00  0.00    +0.004 A 
ATOM     26  C   UNL     1      -6.813   2.519  -1.593  0.00  0.00    +0.005 A 
ATOM     27  C   UNL     1      -5.468   2.830  -1.654  0.00  0.00    -0.029 A 
ATOM     28  C   UNL     1      -4.519   1.821  -1.562  0.00  0.00    +0.037 A 
ATOM     29  C   UNL     1      -4.925   0.503  -1.399  0.00  0.00    +0.027 A 
ATOM     30  C   UNL     1      -5.032   4.263  -1.824  0.00  0.00    +0.045 C 
ENDBRANCH  19  28
ENDBRANCH   1  20
TORSDOF 3
