REMARK  Name = ZINC18176728
REMARK  2 active torsions:
REMARK  status: ('A' for Active; 'I' for Inactive)
REMARK    1  A    between atoms: C_6  and  N_7
REMARK    2  A    between atoms: N_10  and  C_11
REMARK                            x       y       z     vdW  Elec       q    Type
REMARK                         _______ _______ _______ _____ _____    ______ ____
ROOT
ATOM      1  N   UNL     1       0.011   0.988  -0.160  0.00  0.00    -0.269 N 
ATOM      2  C   UNL     1       1.190   1.640  -0.156  0.00  0.00    +0.308 C 
ATOM      3  O   UNL     1       1.225   2.834  -0.381  0.00  0.00    -0.252 OA
ATOM      4  N   UNL     1       2.331   0.969   0.098  0.00  0.00    -0.269 N 
ATOM      5  H   UNL     1      -0.011   0.025  -0.047  0.00  0.00    +0.156 HD
ATOM      6  H   UNL     1       2.313   0.004   0.204  0.00  0.00    +0.156 HD
ENDROOT
BRANCH   1  12
ATOM      7  C   UNL     1      -2.333   1.301   0.336  0.00  0.00    +0.026 A 
ATOM      8  C   UNL     1      -3.507   2.009   0.169  0.00  0.00    +0.040 A 
ATOM      9  C   UNL     1      -3.542   3.107  -0.673  0.00  0.00    +0.124 A 
ATOM     10  C   UNL     1      -2.397   3.503  -1.345  0.00  0.00    +0.040 A 
ATOM     11  C   UNL     1      -1.219   2.802  -1.176  0.00  0.00    +0.026 A 
ATOM     12  C   UNL     1      -1.183   1.700  -0.332  0.00  0.00    +0.035 A 
ATOM     13  F   UNL     1      -4.693   3.795  -0.839  0.00  0.00    -0.205 F 
ENDBRANCH   1  12
BRANCH   4  14
ATOM     14  C   UNL     1       3.541   1.662   0.209  0.00  0.00    +0.035 A 
ATOM     15  C   UNL     1       4.725   1.067  -0.208  0.00  0.00    +0.024 A 
ATOM     16  C   UNL     1       5.917   1.756  -0.104  0.00  0.00    +0.017 A 
ATOM     17  C   UNL     1       5.935   3.034   0.427  0.00  0.00    +0.018 A 
ATOM     18  C   UNL     1       4.758   3.627   0.848  0.00  0.00    +0.017 A 
ATOM     19  C   UNL     1       3.562   2.945   0.741  0.00  0.00    +0.024 A 
ATOM     20 BR   UNL     1       7.570   3.971   0.576  0.00  0.00    -0.050 Br
ENDBRANCH   4  14
TORSDOF 2
