REMARK  Name = ZINC32990954
REMARK  6 active torsions:
REMARK  status: ('A' for Active; 'I' for Inactive)
REMARK    1  A    between atoms: C_1  and  C_2
REMARK    2  A    between atoms: C_5  and  C_31
REMARK    3  A    between atoms: N_6  and  C_7
REMARK    4  A    between atoms: C_10  and  C_13
REMARK    5  A    between atoms: N_18  and  S_21
REMARK    6  A    between atoms: S_21  and  C_24
REMARK                            x       y       z     vdW  Elec       q    Type
REMARK                         _______ _______ _______ _____ _____    ______ ____
ROOT
ATOM      1  C   UNL     1      -4.538  -3.360   0.031  0.00  0.00    +0.247 C 
ATOM      2  O   UNL     1      -4.832  -3.993  -0.964  0.00  0.00    -0.270 OA
ATOM      3  N   UNL     1      -5.306  -3.445   1.135  0.00  0.00    -0.295 N 
ATOM      4  C   UNL     1      -5.035  -2.594   2.302  0.00  0.00    +0.125 C 
ATOM      5  C   UNL     1      -6.318  -1.818   2.645  0.00  0.00    +0.128 C 
ATOM      6  N   UNL     1      -7.437  -2.768   2.706  0.00  0.00    -0.174 NA
ATOM      7  C   UNL     1      -7.705  -3.623   1.542  0.00  0.00    +0.128 C 
ATOM      8  C   UNL     1      -6.425  -4.395   1.196  0.00  0.00    +0.125 C 
ENDROOT
BRANCH   1  12
ATOM      9  C   UNL     1      -1.090  -0.879   0.027  0.00  0.00    +0.047 A 
ATOM     10  C   UNL     1      -1.365  -1.682   1.128  0.00  0.00    +0.027 A 
ATOM     11  C   UNL     1      -2.486  -2.483   1.135  0.00  0.00    +0.015 A 
ATOM     12  C   UNL     1      -3.340  -2.497   0.030  0.00  0.00    +0.037 A 
ATOM     13  C   UNL     1      -3.057  -1.693  -1.077  0.00  0.00    +0.015 A 
ATOM     14  C   UNL     1      -1.938  -0.890  -1.075  0.00  0.00    +0.027 A 
BRANCH   9  20
ATOM     15  C   UNL     1      -0.673   1.488   1.931  0.00  0.00    +0.064 C 
ATOM     16  C   UNL     1       0.266   0.997   0.860  0.00  0.00    +0.021 A 
ATOM     17  C   UNL     1       1.466   1.530   0.554  0.00  0.00    +0.023 A 
ATOM     18  C   UNL     1       2.007   0.775  -0.506  0.00  0.00    +0.023 A 
ATOM     19  C   UNL     1       1.119  -0.192  -0.810  0.00  0.00    +0.021 A 
ATOM     20  N   UNL     1       0.045  -0.063   0.025  0.00  0.00    -0.318 N 
ATOM     21  C   UNL     1       1.281  -1.236  -1.885  0.00  0.00    +0.064 C 
ENDBRANCH   9  20
ENDBRANCH   1  12
BRANCH   6  22
ATOM     22  S   UNL     1      -8.380  -2.873   4.064  0.00  0.00    +0.061 S 
ATOM     23  O   UNL     1      -8.267  -1.626   4.735  0.00  0.00    -0.153 OA
ATOM     24  O   UNL     1      -9.632  -3.404   3.648  0.00  0.00    -0.153 OA
BRANCH  22  25
ATOM     25  C   UNL     1      -7.646  -4.081   5.116  0.00  0.00    +0.106 A 
ATOM     26  C   UNL     1      -8.018  -5.408   5.010  0.00  0.00    +0.030 A 
ATOM     27  C   UNL     1      -7.438  -6.356   5.831  0.00  0.00    +0.022 A 
ATOM     28  C   UNL     1      -6.493  -5.975   6.767  0.00  0.00    +0.041 A 
ATOM     29  C   UNL     1      -6.125  -4.646   6.877  0.00  0.00    +0.022 A 
ATOM     30  C   UNL     1      -6.701  -3.700   6.051  0.00  0.00    +0.030 A 
ATOM     31 CL   UNL     1      -5.768  -7.165   7.804  0.00  0.00    -0.084 Cl
ENDBRANCH  22  25
ENDBRANCH   6  22
TORSDOF 4
