REMARK  Name = ZINC19810636
REMARK  5 active torsions:
REMARK  status: ('A' for Active; 'I' for Inactive)
REMARK    1  A    between atoms: C_5  and  C_7
REMARK    2  A    between atoms: C_7  and  C_8
REMARK    3  A    between atoms: C_10  and  C_13
REMARK    4  A    between atoms: C_13  and  N_14
REMARK    5  A    between atoms: C_18  and  C_20
REMARK                            x       y       z     vdW  Elec       q    Type
REMARK                         _______ _______ _______ _____ _____    ______ ____
ROOT
ATOM      1  N   UNL     1       3.715  -2.568   5.033  0.00  0.00    +0.392 N 
ATOM      2  C   UNL     1       4.377  -1.571   4.172  0.00  0.00    -0.077 C 
ATOM      3  C   UNL     1       5.782  -1.321   4.757  0.00  0.00    -0.020 C 
ATOM      4  C   UNL     1       5.628  -1.763   6.237  0.00  0.00    -0.010 C 
ATOM      5  C   UNL     1       4.654  -2.960   6.106  0.00  0.00    -0.000 C 
ATOM      6  H   UNL     1       2.885  -2.165   5.440  0.00  0.00    -0.080 HD
ENDROOT
BRANCH   5   7
ATOM      7  C   UNL     1       3.913  -3.177   7.399  0.00  0.00    +0.095 A 
ATOM      8  N   UNL     1       2.771  -2.633   7.704  0.00  0.00    -0.234 NA
ATOM      9  C   UNL     1       2.387  -3.041   8.941  0.00  0.00    +0.090 A 
ATOM     10  C   UNL     1       1.272  -2.771   9.741  0.00  0.00    +0.050 A 
ATOM     11  C   UNL     1       1.167  -3.353  10.984  0.00  0.00    +0.043 A 
ATOM     12  C   UNL     1       2.159  -4.206  11.450  0.00  0.00    +0.022 A 
ATOM     13  C   UNL     1       3.264  -4.482  10.673  0.00  0.00    +0.029 A 
ATOM     14  C   UNL     1       3.387  -3.904   9.417  0.00  0.00    +0.066 A 
ATOM     15  N   UNL     1       4.337  -3.975   8.416  0.00  0.00    -0.343 N 
ATOM     16 CL   UNL     1      -0.217  -3.018  11.978  0.00  0.00    -0.083 Cl
ATOM     17  H   UNL     1       5.155  -4.495   8.436  0.00  0.00    +0.167 HD
ENDBRANCH   5   7
BRANCH   1  18
ATOM     18  C   UNL     1       3.354  -3.748   4.237  0.00  0.00    +0.023 C 
BRANCH  18  21
ATOM     19  C   UNL     1       1.372  -2.695   1.389  0.00  0.00    +0.176 A 
ATOM     20  N   UNL     1       2.530  -2.937   2.014  0.00  0.00    -0.197 NA
ATOM     21  C   UNL     1       2.304  -3.368   3.224  0.00  0.00    +0.211 A 
ATOM     22  O   UNL     1       0.979  -3.415   3.412  0.00  0.00    -0.340 OA
ATOM     23  N   UNL     1       0.391  -2.965   2.201  0.00  0.00    -0.061 NA
BRANCH  19  24
ATOM     24  C   UNL     1       1.228  -2.186  -0.022  0.00  0.00    +0.117 C 
BRANCH  24  29
ATOM     25  C   UNL     1      -0.017   1.378   0.010  0.00  0.00    +0.000 A 
ATOM     26  C   UNL     1       1.171   2.087   0.002  0.00  0.00    +0.003 A 
ATOM     27  C   UNL     1       2.377   1.414  -0.013  0.00  0.00    +0.038 A 
ATOM     28  C   UNL     1       2.397   0.029  -0.021  0.00  0.00    +0.127 A 
ATOM     29  C   UNL     1       1.208  -0.679  -0.013  0.00  0.00    -0.005 A 
ATOM     30  C   UNL     1       0.002  -0.004   0.002  0.00  0.00    +0.007 A 
ATOM     31  F   UNL     1       3.577  -0.630  -0.036  0.00  0.00    -0.205 F 
ENDBRANCH  24  29
ENDBRANCH  19  24
ENDBRANCH  18  21
ENDBRANCH   1  18
TORSDOF 5
