REMARK  Name = ZINC15828807
REMARK  2 active torsions:
REMARK  status: ('A' for Active; 'I' for Inactive)
REMARK    1  A    between atoms: C_10  and  S_13
REMARK    2  A    between atoms: S_13  and  C_16
REMARK                            x       y       z     vdW  Elec       q    Type
REMARK                         _______ _______ _______ _____ _____    ______ ____
ROOT
ATOM      1  C   UNL     1      -0.017   1.389   0.010  0.00  0.00    +0.021 A 
ATOM      2  C   UNL     1       1.143   2.103   0.002  0.00  0.00    +0.015 A 
ATOM      3  C   UNL     1       2.373   1.428  -0.013  0.00  0.00    +0.049 A 
ATOM      4  C   UNL     1       2.396   0.013  -0.021  0.00  0.00    +0.076 A 
ATOM      5  C   UNL     1       1.179  -0.690  -0.012  0.00  0.00    +0.048 A 
ATOM      6  C   UNL     1       0.002  -0.004   0.002  0.00  0.00    +0.043 A 
ATOM      7 CL   UNL     1      -1.497  -0.879   0.012  0.00  0.00    -0.083 Cl
ATOM      8  N   UNL     1       3.566  -0.636  -0.036  0.00  0.00    -0.253 NA
ATOM      9  C   UNL     1       4.709   0.008  -0.044  0.00  0.00    +0.142 A 
ATOM     10  C   UNL     1       4.769   1.396  -0.038  0.00  0.00    +0.159 A 
ATOM     11  C   UNL     1       3.598   2.133  -0.021  0.00  0.00    +0.215 A 
ATOM     12  O   UNL     1       3.625   3.488  -0.015  0.00  0.00    -0.285 OA
ENDROOT
BRANCH  10  13
ATOM     13  S   UNL     1       6.329   2.215  -0.049  0.00  0.00    +0.030 S 
ATOM     14  O   UNL     1       6.282   3.191   0.983  0.00  0.00    -0.164 OA
ATOM     15  O   UNL     1       7.321   1.198  -0.091  0.00  0.00    -0.164 OA
BRANCH  13  16
ATOM     16  C   UNL     1       6.445   3.095  -1.571  0.00  0.00    +0.099 A 
ATOM     17  C   UNL     1       6.984   2.479  -2.685  0.00  0.00    +0.066 A 
ATOM     18  C   UNL     1       7.076   3.170  -3.881  0.00  0.00    +0.128 A 
ATOM     19  C   UNL     1       6.627   4.477  -3.962  0.00  0.00    +0.076 A 
ATOM     20  C   UNL     1       6.087   5.092  -2.845  0.00  0.00    +0.128 A 
ATOM     21  C   UNL     1       5.991   4.398  -1.651  0.00  0.00    +0.066 A 
ATOM     22  F   UNL     1       5.649   6.368  -2.922  0.00  0.00    -0.205 F 
ATOM     23  F   UNL     1       7.604   2.569  -4.970  0.00  0.00    -0.205 F 
ENDBRANCH  13  16
ENDBRANCH  10  13
TORSDOF 2
