REMARK  Name = ZINC41604891
REMARK  14 active torsions:
REMARK  status: ('A' for Active; 'I' for Inactive)
REMARK    1  A    between atoms: C_1  and  C_2
REMARK    2  A    between atoms: C_2  and  N_3
REMARK    3  A    between atoms: N_3  and  C_4
REMARK    4  A    between atoms: N_3  and  C_6
REMARK    5  A    between atoms: C_4  and  C_5
REMARK    6  A    between atoms: C_6  and  C_8
REMARK    7  A    between atoms: C_6  and  C_9
REMARK    8  A    between atoms: C_9  and  N_10
REMARK    9  A    between atoms: C_11  and  C_13
REMARK   10  A    between atoms: N_15  and  C_16
REMARK   11  A    between atoms: C_20  and  N_22
REMARK   12  A    between atoms: C_23  and  C_25
REMARK   13  A    between atoms: C_25  and  C_26
REMARK   14  A    between atoms: C_25  and  C_27
REMARK                            x       y       z     vdW  Elec       q    Type
REMARK                         _______ _______ _______ _____ _____    ______ ____
ROOT
ATOM      1  C   UNL     1       4.648  -1.360  -4.923  0.00  0.00    +0.303 C 
ATOM      2  O   UNL     1       5.313  -0.761  -4.102  0.00  0.00    -0.265 OA
ATOM      3  N   UNL     1       5.113  -1.524  -6.177  0.00  0.00    -0.278 N 
ATOM      4  H   UNL     1       4.552  -1.938  -6.851  0.00  0.00    +0.155 HD
ENDROOT
BRANCH   3   5
ATOM      5  C   UNL     1       6.402  -1.097  -6.506  0.00  0.00    +0.036 A 
ATOM      6  C   UNL     1       6.662  -0.582  -7.771  0.00  0.00    +0.023 A 
ATOM      7  C   UNL     1       7.936  -0.160  -8.097  0.00  0.00    +0.004 A 
ATOM      8  C   UNL     1       8.956  -0.248  -7.168  0.00  0.00    +0.023 A 
ATOM      9  C   UNL     1       8.702  -0.761  -5.902  0.00  0.00    +0.035 A 
ATOM     10  C   UNL     1       7.422  -1.180  -5.569  0.00  0.00    +0.046 A 
BRANCH   9  11
ATOM     11  N   UNL     1       9.735  -0.850  -4.963  0.00  0.00    -0.285 N 
ATOM     12  C   UNL     1      10.701   0.089  -4.932  0.00  0.00    +0.220 C 
ATOM     13  O   UNL     1      10.628   1.058  -5.658  0.00  0.00    -0.275 OA
ATOM     14  H   UNL     1       9.755  -1.588  -4.333  0.00  0.00    +0.155 HD
BRANCH  12  15
ATOM     15  C   UNL     1      11.872  -0.065  -3.996  0.00  0.00    +0.069 C 
ATOM     16  C   UNL     1      12.623  -1.357  -4.327  0.00  0.00    +0.017 C 
ATOM     17  C   UNL     1      12.815   1.129  -4.159  0.00  0.00    +0.017 C 
ENDBRANCH  12  15
ENDBRANCH   9  11
ENDBRANCH   3   5
BRANCH   1  19
ATOM     18  N   UNL     1       2.850  -1.750  -3.287  0.00  0.00    -0.309 N 
ATOM     19  C   UNL     1       3.315  -1.915  -4.541  0.00  0.00    +0.299 C 
ATOM     20  O   UNL     1       2.650  -2.513  -5.361  0.00  0.00    -0.265 OA
ATOM     21  H   UNL     1       3.382  -1.272  -2.631  0.00  0.00    +0.149 HD
BRANCH  18  22
ATOM     22  C   UNL     1       1.542  -2.295  -2.913  0.00  0.00    +0.089 C 
BRANCH  22  23
ATOM     23  C   UNL     1       1.201  -1.865  -1.485  0.00  0.00    -0.054 C 
ATOM     24  C   UNL     1      -0.188  -2.389  -1.113  0.00  0.00    -0.012 C 
BRANCH  23  25
ATOM     25  N   UNL     1       1.210  -0.399  -1.399  0.00  0.00    +0.382 N 
ATOM     26  H   UNL     1       2.116  -0.051  -1.675  0.00  0.00    -0.081 HD
BRANCH  25  28
ATOM     27  C   UNL     1       0.283   1.677  -2.310  0.00  0.00    -0.017 C 
ATOM     28  C   UNL     1       0.182   0.151  -2.294  0.00  0.00    -0.082 C 
ENDBRANCH  25  28
BRANCH  25  29
ATOM     29  C   UNL     1       0.927   0.013  -0.018  0.00  0.00    -0.082 C 
ATOM     30  C   UNL     1       2.066  -0.448   0.895  0.00  0.00    -0.017 C 
ENDBRANCH  25  29
ENDBRANCH  23  25
ENDBRANCH  22  23
ENDBRANCH  18  22
ENDBRANCH   1  19
TORSDOF 9
