REMARK  Name = ZINC38556701
REMARK  3 active torsions:
REMARK  status: ('A' for Active; 'I' for Inactive)
REMARK    1  A    between atoms: C_4  and  C_28
REMARK    2  A    between atoms: C_5  and  C_7
REMARK    3  A    between atoms: C_18  and  C_21
REMARK                            x       y       z     vdW  Elec       q    Type
REMARK                         _______ _______ _______ _____ _____    ______ ____
ROOT
ATOM      1  C   UNL     1       1.253  -2.166  -0.023  0.00  0.00    +0.247 C 
ATOM      2  O   UNL     1       2.310  -2.753  -0.144  0.00  0.00    -0.270 OA
ATOM      3  N   UNL     1       0.104  -2.862   0.086  0.00  0.00    -0.295 N 
ATOM      4  C   UNL     1      -1.192  -2.169   0.105  0.00  0.00    +0.127 C 
ATOM      5  C   UNL     1      -2.075  -2.749  -1.006  0.00  0.00    +0.126 C 
ATOM      6  N   UNL     1      -2.054  -4.215  -0.905  0.00  0.00    -0.307 N 
ATOM      7  C   UNL     1      -0.758  -4.909  -0.924  0.00  0.00    +0.126 C 
ATOM      8  C   UNL     1       0.124  -4.329   0.182  0.00  0.00    +0.127 C 
ATOM      9  C   UNL     1      -3.224  -4.924  -0.794  0.00  0.00    +0.151 C 
ATOM     10  N   UNL     1      -4.392  -4.322  -0.885  0.00  0.00    -0.258 N 
ATOM     11  N   UNL     1      -5.519  -4.896  -0.788  0.00  0.00    -0.176 NA
ATOM     12  C   UNL     1      -5.811  -6.038  -0.270  0.00  0.00    +0.079 C 
ATOM     13  C   UNL     1      -4.770  -6.920   0.381  0.00  0.00    +0.134 C 
ATOM     14  S   UNL     1      -3.207  -6.676  -0.532  0.00  0.00    -0.085 S 
ATOM     15  H   UNL     1      -4.391  -3.364  -1.038  0.00  0.00    +0.191 HD
ENDROOT
BRANCH  12  16
ATOM     16  C   UNL     1      -7.208  -6.501  -0.312  0.00  0.00    -0.001 A 
ATOM     17  C   UNL     1      -7.556  -7.734   0.248  0.00  0.00    +0.011 A 
ATOM     18  C   UNL     1      -8.867  -8.161   0.205  0.00  0.00    +0.020 A 
ATOM     19  C   UNL     1      -9.837  -7.371  -0.390  0.00  0.00    +0.041 A 
ATOM     20  C   UNL     1      -9.498  -6.148  -0.947  0.00  0.00    +0.020 A 
ATOM     21  C   UNL     1      -8.193  -5.706  -0.906  0.00  0.00    +0.011 A 
ATOM     22 CL   UNL     1     -11.484  -7.917  -0.440  0.00  0.00    -0.084 Cl
ENDBRANCH  12  16
BRANCH   1  27
ATOM     23  C   UNL     1       0.604   1.362   1.090  0.00  0.00    +0.001 A 
ATOM     24  C   UNL     1       1.178   2.080   0.057  0.00  0.00    +0.001 A 
ATOM     25  C   UNL     1       1.777   1.422  -1.003  0.00  0.00    +0.013 A 
ATOM     26  C   UNL     1       1.804   0.043  -1.034  0.00  0.00    +0.067 A 
ATOM     27  C   UNL     1       1.227  -0.688   0.005  0.00  0.00    +0.049 A 
ATOM     28  C   UNL     1       0.625  -0.017   1.071  0.00  0.00    +0.013 A 
BRANCH  26  29
ATOM     29  C   UNL     1       2.456  -0.673  -2.189  0.00  0.00    +0.418 C 
ATOM     30  F   UNL     1       2.958   0.266  -3.097  0.00  0.00    -0.166 F 
ATOM     31  F   UNL     1       3.505  -1.468  -1.714  0.00  0.00    -0.166 F 
ATOM     32  F   UNL     1       1.512  -1.482  -2.830  0.00  0.00    -0.166 F 
ENDBRANCH  26  29
ENDBRANCH   1  27
TORSDOF 3
