REMARK  Name = ZINC36542200
REMARK  14 active torsions:
REMARK  status: ('A' for Active; 'I' for Inactive)
REMARK    1  A    between atoms: C_1  and  C_2
REMARK    2  A    between atoms: C_2  and  C_3
REMARK    3  A    between atoms: C_3  and  C_4
REMARK    4  A    between atoms: C_4  and  C_5
REMARK    5  A    between atoms: C_5  and  C_6
REMARK    6  A    between atoms: C_7  and  C_8
REMARK    7  A    between atoms: N_10  and  C_11
REMARK    8  A    between atoms: N_10  and  C_18
REMARK    9  A    between atoms: C_18  and  C_20
REMARK   10  A    between atoms: C_18  and  C_25
REMARK   11  A    between atoms: N_27  and  C_28
REMARK   12  A    between atoms: C_28  and  C_29
REMARK   13  A    between atoms: C_29  and  C_30
REMARK   14  A    between atoms: C_30  and  C_31
REMARK                            x       y       z     vdW  Elec       q    Type
REMARK                         _______ _______ _______ _____ _____    ______ ____
ROOT
ATOM      1  C   UNL     1      -2.643  -7.173   0.557  0.00  0.00    +0.244 C 
ATOM      2  O   UNL     1      -2.489  -8.175  -0.114  0.00  0.00    -0.270 OA
ATOM      3  N   UNL     1      -3.480  -7.192   1.614  0.00  0.00    -0.247 N 
ENDROOT
BRANCH   3   4
ATOM      4  C   UNL     1      -3.657  -6.040   2.386  0.00  0.00    +0.056 A 
ATOM      5  C   UNL     1      -2.893  -5.844   3.529  0.00  0.00    +0.025 A 
ATOM      6  C   UNL     1      -3.070  -4.705   4.290  0.00  0.00    +0.002 A 
ATOM      7  C   UNL     1      -4.007  -3.759   3.915  0.00  0.00    +0.002 A 
ATOM      8  C   UNL     1      -4.770  -3.950   2.778  0.00  0.00    +0.022 A 
ATOM      9  C   UNL     1      -4.594  -5.085   2.009  0.00  0.00    +0.062 A 
ATOM     10 CL   UNL     1      -5.546  -5.321   0.577  0.00  0.00    -0.082 Cl
ENDBRANCH   3   4
BRANCH   1  12
ATOM     11  C   UNL     1      -1.089  -5.923  -0.825  0.00  0.00    -0.022 C 
ATOM     12  C   UNL     1      -1.915  -5.941   0.217  0.00  0.00    +0.063 C 
BRANCH  11  13
ATOM     13  C   UNL     1      -0.344  -4.660  -1.174  0.00  0.00    +0.027 C 
BRANCH  13  14
ATOM     14  C   UNL     1       1.157  -4.952  -1.229  0.00  0.00    +0.004 C 
BRANCH  14  15
ATOM     15  C   UNL     1       1.913  -3.670  -1.583  0.00  0.00    +0.000 C 
BRANCH  15  17
ATOM     16  C   UNL     1       4.170  -2.680  -1.992  0.00  0.00    +0.004 C 
ATOM     17  C   UNL     1       3.414  -3.962  -1.639  0.00  0.00    -0.003 C 
ENDBRANCH  15  17
ENDBRANCH  14  15
ENDBRANCH  13  14
ENDBRANCH  11  13
ENDBRANCH   1  12
BRANCH   3  18
ATOM     18  C   UNL     1      -4.204  -8.420   1.952  0.00  0.00    +0.233 C 
BRANCH  18  19
ATOM     19  C   UNL     1      -5.678  -8.122   2.049  0.00  0.00    +0.135 A 
ATOM     20  C   UNL     1      -6.671  -8.916   1.608  0.00  0.00    +0.047 A 
ATOM     21  C   UNL     1      -7.885  -8.253   1.901  0.00  0.00    +0.041 A 
ATOM     22  C   UNL     1      -7.562  -7.095   2.503  0.00  0.00    +0.195 A 
ATOM     23  O   UNL     1      -6.224  -7.024   2.595  0.00  0.00    -0.465 OA
ENDBRANCH  18  19
BRANCH  18  24
ATOM     24  C   UNL     1      -3.710  -8.946   3.275  0.00  0.00    +0.242 C 
ATOM     25  O   UNL     1      -3.391  -8.173   4.154  0.00  0.00    -0.273 OA
ATOM     26  N   UNL     1      -3.622 -10.275   3.482  0.00  0.00    -0.313 N 
ATOM     27  H   UNL     1      -3.878 -10.893   2.779  0.00  0.00    +0.149 HD
BRANCH  26  28
ATOM     28  C   UNL     1      -3.142 -10.786   4.768  0.00  0.00    +0.104 C 
BRANCH  28  29
ATOM     29  C   UNL     1      -3.140 -12.316   4.740  0.00  0.00    +0.018 C 
BRANCH  29  30
ATOM     30  C   UNL     1      -2.638 -12.850   6.083  0.00  0.00    -0.002 C 
ATOM     31  C   UNL     1      -2.636 -14.380   6.055  0.00  0.00    +0.004 C 
ENDBRANCH  29  30
ENDBRANCH  28  29
ENDBRANCH  26  28
ENDBRANCH  18  24
ENDBRANCH   3  18
TORSDOF 12
