REMARK  Name = ZINC65591057
REMARK  4 active torsions:
REMARK  status: ('A' for Active; 'I' for Inactive)
REMARK    1  A    between atoms: C_8  and  C_23
REMARK    2  A    between atoms: N_10  and  S_12
REMARK    3  A    between atoms: S_12  and  C_15
REMARK    4  A    between atoms: C_20  and  C_21
REMARK                            x       y       z     vdW  Elec       q    Type
REMARK                         _______ _______ _______ _____ _____    ______ ____
ROOT
ATOM      1  C   UNL     1      -0.352   0.464   1.947  0.00  0.00    +0.000 A 
ATOM      2  C   UNL     1       0.645   1.403   1.751  0.00  0.00    +0.000 A 
ATOM      3  C   UNL     1       1.820   1.033   1.131  0.00  0.00    +0.005 A 
ATOM      4  C   UNL     1       2.008  -0.273   0.698  0.00  0.00    -0.028 A 
ATOM      5  C   UNL     1       1.013  -1.206   0.883  0.00  0.00    -0.041 A 
ATOM      6  C   UNL     1      -0.167  -0.833   1.516  0.00  0.00    +0.004 A 
ATOM      7  C   UNL     1       1.132  -2.632   0.414  0.00  0.00    +0.065 C 
ATOM      8  C   UNL     1       2.596  -3.012   0.196  0.00  0.00    +0.170 C 
ATOM      9  N   UNL     1       3.232  -1.938  -0.584  0.00  0.00    -0.160 NA
ATOM     10  C   UNL     1       3.321  -0.614   0.041  0.00  0.00    +0.145 C 
ENDROOT
BRANCH   8  11
ATOM     11  C   UNL     1       2.678  -4.312  -0.562  0.00  0.00    +0.230 C 
ATOM     12  O   UNL     1       1.719  -4.708  -1.192  0.00  0.00    -0.274 OA
ATOM     13  N   UNL     1       3.815  -5.034  -0.542  0.00  0.00    -0.328 N 
ATOM     14  H   UNL     1       4.582  -4.717  -0.039  0.00  0.00    +0.145 HD
ATOM     15  H   UNL     1       3.868  -5.870  -1.030  0.00  0.00    +0.145 HD
ENDBRANCH   8  11
BRANCH   9  16
ATOM     16  S   UNL     1       3.822  -2.213  -2.107  0.00  0.00    +0.063 S 
ATOM     17  O   UNL     1       3.005  -3.223  -2.683  0.00  0.00    -0.153 OA
ATOM     18  O   UNL     1       3.999  -0.939  -2.710  0.00  0.00    -0.153 OA
BRANCH  16  19
ATOM     19  C   UNL     1       5.430  -2.911  -1.924  0.00  0.00    +0.123 A 
ATOM     20  C   UNL     1       5.676  -4.202  -2.346  0.00  0.00    +0.030 A 
ATOM     21  C   UNL     1       6.937  -4.751  -2.203  0.00  0.00    +0.002 A 
ATOM     22  C   UNL     1       7.960  -4.012  -1.636  0.00  0.00    +0.001 A 
ATOM     23  C   UNL     1       7.729  -2.721  -1.209  0.00  0.00    +0.021 A 
ATOM     24  C   UNL     1       6.459  -2.158  -1.356  0.00  0.00    +0.078 A 
BRANCH  24  25
ATOM     25  C   UNL     1       6.213  -0.816  -0.922  0.00  0.00    +0.101 C 
ATOM     26  N   UNL     1       6.018   0.249  -0.577  0.00  0.00    -0.191 NA
ENDBRANCH  24  25
ENDBRANCH  16  19
ENDBRANCH   9  16
TORSDOF 4
