REMARK  Name = ZINC07804749
REMARK  15 active torsions:
REMARK  status: ('A' for Active; 'I' for Inactive)
REMARK    1  A    between atoms: C_1  and  C_2
REMARK    2  A    between atoms: C_2  and  C_3
REMARK    3  A    between atoms: C_2  and  C_4
REMARK    4  A    between atoms: C_7  and  C_10
REMARK    5  A    between atoms: C_10  and  C_12
REMARK    6  A    between atoms: C_10  and  N_62
REMARK    7  A    between atoms: C_12  and  C_13
REMARK    8  A    between atoms: C_12  and  C_14
REMARK    9  A    between atoms: C_15  and  C_16
REMARK   10  A    between atoms: C_15  and  N_62
REMARK   11  A    between atoms: N_18  and  C_19
REMARK   12  A    between atoms: C_21  and  N_27
REMARK   13  A    between atoms: C_24  and  O_25
REMARK   14  A    between atoms: O_25  and  C_26
REMARK   15  A    between atoms: C_28  and  C_30
REMARK                            x       y       z     vdW  Elec       q    Type
REMARK                         _______ _______ _______ _____ _____    ______ ____
ROOT
ATOM      1  C   UNL     1       4.011   6.195  -0.232  0.00  0.00    +0.016 C 
ENDROOT
BRANCH   1   2
ATOM      2  C   UNL     1       2.748   5.392  -0.062  0.00  0.00    +0.200 C 
ATOM      3  O   UNL     1       1.675   5.954  -0.005  0.00  0.00    -0.278 OA
ATOM      4  N   UNL     1       2.811   4.048   0.028  0.00  0.00    -0.284 N 
ATOM      5  H   UNL     1       3.672   3.605   0.068  0.00  0.00    +0.155 HD
BRANCH   4   6
ATOM      6  C   UNL     1       1.631   3.293   0.062  0.00  0.00    +0.077 A 
ATOM      7  C   UNL     1       0.465   3.801  -0.489  0.00  0.00    +0.050 A 
ATOM      8  C   UNL     1      -0.702   3.050  -0.454  0.00  0.00    +0.035 A 
ATOM      9  C   UNL     1      -0.699   1.789   0.128  0.00  0.00    +0.027 A 
ATOM     10  C   UNL     1       0.462   1.284   0.683  0.00  0.00    +0.049 A 
ATOM     11  C   UNL     1       1.629   2.030   0.650  0.00  0.00    +0.141 A 
BRANCH   8  12
ATOM     12  N   UNL     1      -1.881   3.561  -1.010  0.00  0.00    -0.286 N 
ATOM     13  C   UNL     1      -3.071   3.279  -0.444  0.00  0.00    +0.214 C 
ATOM     14  O   UNL     1      -3.115   2.664   0.600  0.00  0.00    -0.276 OA
ATOM     15  C   UNL     1      -4.347   3.727  -1.109  0.00  0.00    +0.109 C 
ATOM     16  H   UNL     1      -1.841   4.119  -1.803  0.00  0.00    +0.155 HD
ENDBRANCH   8  12
BRANCH  11  17
ATOM     17  O   UNL     1       2.772   1.529   1.191  0.00  0.00    -0.493 OA
ATOM     18  C   UNL     1       2.697   0.228   1.777  0.00  0.00    +0.277 C 
ENDBRANCH  11  17
ENDBRANCH   4   6
ENDBRANCH   1   2
BRANCH   1  19
ATOM     19  N   UNL     1       3.667   7.628  -0.302  0.00  0.00    +0.389 N 
ATOM     20  H   UNL     1       2.978   7.775  -1.049  0.00  0.00    -0.084 HD
ATOM     21  H   UNL     1       3.267   7.925   0.596  0.00  0.00    -0.084 HD
BRANCH  19  22
ATOM     22  C   UNL     1       4.872   8.431  -0.587  0.00  0.00    -0.038 C 
BRANCH  22  26
ATOM     23  C   UNL     1       3.741  11.940  -2.744  0.00  0.00    -0.045 A 
ATOM     24  C   UNL     1       4.898  11.263  -3.083  0.00  0.00    +0.004 A 
ATOM     25  C   UNL     1       5.264  10.128  -2.384  0.00  0.00    +0.002 A 
ATOM     26  C   UNL     1       4.473   9.669  -1.347  0.00  0.00    -0.061 A 
ATOM     27  C   UNL     1       3.313  10.343  -1.013  0.00  0.00    +0.002 A 
ATOM     28  C   UNL     1       2.950  11.481  -1.708  0.00  0.00    +0.004 A 
BRANCH  23  30
ATOM     29  C   UNL     1       1.973  12.958  -4.154  0.00  0.00    +0.012 C 
ATOM     30  C   UNL     1       3.342  13.177  -3.506  0.00  0.00    +0.013 C 
ATOM     31  C   UNL     1       3.267  14.366  -2.545  0.00  0.00    +0.012 C 
ENDBRANCH  23  30
ENDBRANCH  22  26
BRANCH  22  32
ATOM     32  C   UNL     1       5.539   8.834   0.730  0.00  0.00    -0.027 C 
ATOM     33  C   UNL     1       6.727   9.753   0.440  0.00  0.00    +0.006 C 
ATOM     34  C   UNL     1       4.527   9.572   1.609  0.00  0.00    +0.006 C 
ENDBRANCH  22  32
ENDBRANCH  19  22
ENDBRANCH   1  19
TORSDOF 9
