REMARK  Name = ZINC06656016
REMARK  9 active torsions:
REMARK  status: ('A' for Active; 'I' for Inactive)
REMARK    1  A    between atoms: C_1  and  C_2
REMARK    2  A    between atoms: C_2  and  O_3
REMARK    3  A    between atoms: O_3  and  C_4
REMARK    4  A    between atoms: C_4  and  C_6
REMARK    5  A    between atoms: C_10  and  N_11
REMARK    6  A    between atoms: C_12  and  C_14
REMARK    7  A    between atoms: C_15  and  C_24
REMARK    8  A    between atoms: C_18  and  C_23
REMARK    9  A    between atoms: C_28  and  N_53
REMARK                            x       y       z     vdW  Elec       q    Type
REMARK                         _______ _______ _______ _____ _____    ______ ____
ROOT
ATOM      1  C   UNL     1       8.736   3.358  -0.059  0.00  0.00    +0.091 A 
ATOM      2  C   UNL     1      10.176   3.177  -0.072  0.00  0.00    -0.025 A 
ATOM      3  C   UNL     1      10.598   1.893  -0.083  0.00  0.00    -0.021 A 
ATOM      4  S   UNL     1       9.114   0.930  -0.068  0.00  0.00    -0.079 S 
ATOM      5  C   UNL     1       7.948   2.212  -0.059  0.00  0.00    +0.087 A 
ATOM      6  C   UNL     1      12.019   1.424  -0.100  0.00  0.00    -0.036 C 
ATOM      7  C   UNL     1      12.547   3.745   0.352  0.00  0.00    -0.074 C 
ATOM      8  C   UNL     1      11.190   4.315  -0.072  0.00  0.00    +0.018 C 
ATOM      9  C   UNL     1      14.299   2.221  -0.333  0.00  0.00    -0.096 C 
ATOM     10  N   UNL     1      12.871   2.574  -0.488  0.00  0.00    +0.381 N 
ATOM     11  H   UNL     1      12.690   2.808  -1.471  0.00  0.00    -0.082 HD
ENDROOT
BRANCH   5  12
ATOM     12  N   UNL     1       6.567   2.119  -0.047  0.00  0.00    -0.273 N 
ATOM     13  C   UNL     1       5.973   0.909  -0.048  0.00  0.00    +0.284 C 
ATOM     14  O   UNL     1       6.651  -0.101  -0.060  0.00  0.00    -0.266 OA
ATOM     15  H   UNL     1       6.026   2.924  -0.038  0.00  0.00    +0.156 HD
BRANCH  13  16
ATOM     16  C   UNL     1       4.508   0.810  -0.036  0.00  0.00    +0.194 A 
ATOM     17  C   UNL     1       3.803  -0.351  -0.036  0.00  0.00    +0.008 A 
ATOM     18  C   UNL     1       2.391   0.032  -0.021  0.00  0.00    +0.024 A 
ATOM     19  C   UNL     1       1.189  -0.680  -0.013  0.00  0.00    +0.015 A 
ATOM     20  C   UNL     1       0.002  -0.004   0.002  0.00  0.00    -0.050 A 
ATOM     21  C   UNL     1      -0.017   1.384   0.010  0.00  0.00    +0.007 A 
ATOM     22  C   UNL     1       1.158   2.105   0.002  0.00  0.00    +0.047 A 
ATOM     23  C   UNL     1       2.378   1.439  -0.013  0.00  0.00    +0.136 A 
ATOM     24  O   UNL     1       3.658   1.858  -0.023  0.00  0.00    -0.450 OA
ATOM     25  C   UNL     1      -1.296  -0.770   0.011  0.00  0.00    +0.044 C 
ATOM     26  C   UNL     1       4.361  -1.751  -0.049  0.00  0.00    +0.048 C 
ENDBRANCH  13  16
ENDBRANCH   5  12
BRANCH   1  27
ATOM     27  C   UNL     1       8.137   4.693  -0.047  0.00  0.00    +0.342 C 
ATOM     28  O   UNL     1       7.897   5.243   1.011  0.00  0.00    -0.245 OA
BRANCH  27  29
ATOM     29  O   UNL     1       7.851   5.315  -1.210  0.00  0.00    -0.461 OA
BRANCH  29  31
ATOM     30  C   UNL     1       7.007   7.179  -2.530  0.00  0.00    +0.048 C 
ATOM     31  C   UNL     1       7.258   6.638  -1.122  0.00  0.00    +0.229 C 
ENDBRANCH  29  31
ENDBRANCH  27  29
ENDBRANCH   1  27
TORSDOF 5
