REMARK  Name = ZINC13341816
REMARK  10 active torsions:
REMARK  status: ('A' for Active; 'I' for Inactive)
REMARK    1  A    between atoms: C_1  and  C_2
REMARK    2  A    between atoms: C_2  and  O_3
REMARK    3  A    between atoms: O_3  and  C_4
REMARK    4  A    between atoms: C_9  and  N_10
REMARK    5  A    between atoms: C_14  and  S_16
REMARK    6  A    between atoms: S_16  and  C_17
REMARK    7  A    between atoms: C_17  and  C_18
REMARK    8  A    between atoms: N_20  and  C_21
REMARK    9  A    between atoms: C_23  and  C_29
REMARK   10  A    between atoms: C_25  and  C_27
REMARK                            x       y       z     vdW  Elec       q    Type
REMARK                         _______ _______ _______ _____ _____    ______ ____
ROOT
ATOM      1  S   UNL     1       7.560   4.499   0.412  0.00  0.00    -0.088 S 
ENDROOT
BRANCH   1   6
ATOM      2  N   UNL     1      12.825   6.907   0.709  0.00  0.00    -0.289 N 
ATOM      3  C   UNL     1      11.481   6.560   0.634  0.00  0.00    +0.187 A 
ATOM      4  N   UNL     1      10.419   7.340   0.583  0.00  0.00    -0.125 NA
ATOM      5  N   UNL     1       9.164   6.782   0.508  0.00  0.00    -0.133 NA
ATOM      6  C   UNL     1       9.028   5.470   0.497  0.00  0.00    +0.160 A 
ATOM      7  S   UNL     1      10.732   4.940   0.584  0.00  0.00    -0.024 S 
ATOM      8  H   UNL     1      13.507   6.219   0.665  0.00  0.00    +0.154 HD
BRANCH   2  14
ATOM      9  C   UNL     1      14.529   8.589   1.062  0.00  0.00    +0.142 A 
ATOM     10  C   UNL     1      14.890   9.920   1.192  0.00  0.00    +0.047 A 
ATOM     11  C   UNL     1      13.926  10.909   1.118  0.00  0.00    +0.004 A 
ATOM     12  C   UNL     1      12.601  10.573   0.909  0.00  0.00    +0.002 A 
ATOM     13  C   UNL     1      12.233   9.248   0.773  0.00  0.00    +0.027 A 
ATOM     14  C   UNL     1      13.195   8.250   0.846  0.00  0.00    +0.075 A 
BRANCH   9  15
ATOM     15  O   UNL     1      15.476   7.616   1.140  0.00  0.00    -0.490 OA
BRANCH  15  17
ATOM     16  C   UNL     1      17.738   6.812   1.421  0.00  0.00    +0.048 C 
ATOM     17  C   UNL     1      16.823   8.037   1.364  0.00  0.00    +0.226 C 
ENDBRANCH  15  17
ENDBRANCH   9  15
ENDBRANCH   2  14
ENDBRANCH   1   6
BRANCH   1  18
ATOM     18  C   UNL     1       6.226   5.726   0.349  0.00  0.00    +0.172 C 
BRANCH  18  19
ATOM     19  C   UNL     1       4.897   5.020   0.273  0.00  0.00    +0.227 C 
ATOM     20  O   UNL     1       4.854   3.808   0.262  0.00  0.00    -0.275 OA
ATOM     21  N   UNL     1       3.756   5.735   0.218  0.00  0.00    -0.285 N 
ATOM     22  H   UNL     1       3.792   6.702   0.150  0.00  0.00    +0.155 HD
BRANCH  21  23
ATOM     23  C   UNL     1       2.518   5.083   0.257  0.00  0.00    +0.035 A 
ATOM     24  C   UNL     1       1.439   5.602  -0.444  0.00  0.00    +0.038 A 
ATOM     25  C   UNL     1       0.203   4.954  -0.407  0.00  0.00    +0.066 A 
ATOM     26  C   UNL     1       0.053   3.784   0.335  0.00  0.00    +0.030 A 
ATOM     27  C   UNL     1       1.139   3.265   1.038  0.00  0.00    +0.066 A 
ATOM     28  C   UNL     1       2.371   3.921   1.000  0.00  0.00    +0.038 A 
BRANCH  27  29
ATOM     29  C   UNL     1       0.986   2.024   1.826  0.00  0.00    +0.387 C 
ATOM     30  O   UNL     1       1.933   1.573   2.438  0.00  0.00    -0.241 OA
ATOM     31  O   UNL     1      -0.204   1.395   1.866  0.00  0.00    -0.241 OA
ENDBRANCH  27  29
BRANCH  25  32
ATOM     32  C   UNL     1      -0.946   5.509  -1.153  0.00  0.00    +0.387 C 
ATOM     33  O   UNL     1      -0.815   6.529  -1.799  0.00  0.00    -0.241 OA
ATOM     34  O   UNL     1      -2.138   4.883  -1.116  0.00  0.00    -0.241 OA
ENDBRANCH  25  32
ENDBRANCH  21  23
ENDBRANCH  18  19
ENDBRANCH   1  18
TORSDOF 9
