REMARK  Name = ZINC39590437
REMARK  9 active torsions:
REMARK  status: ('A' for Active; 'I' for Inactive)
REMARK    1  A    between atoms: C_1  and  C_2
REMARK    2  A    between atoms: C_5  and  C_34
REMARK    3  A    between atoms: C_6  and  C_8
REMARK    4  A    between atoms: C_10  and  C_14
REMARK    5  A    between atoms: C_18  and  S_22
REMARK    6  A    between atoms: N_20  and  N_21
REMARK    7  A    between atoms: S_22  and  C_23
REMARK    8  A    between atoms: C_23  and  C_24
REMARK    9  A    between atoms: N_26  and  C_27
REMARK                            x       y       z     vdW  Elec       q    Type
REMARK                         _______ _______ _______ _____ _____    ______ ____
ROOT
ATOM      1  C   UNL     1      -1.687  -5.509   3.966  0.00  0.00    +0.185 C 
ATOM      2  N   UNL     1      -1.557  -6.727   3.125  0.00  0.00    -0.234 NA
ATOM      3  N   UNL     1      -2.587  -7.622   3.675  0.00  0.00    -0.228 NA
ATOM      4  C   UNL     1      -2.545  -7.381   5.136  0.00  0.00    +0.214 C 
ATOM      5  N   UNL     1      -1.974  -6.029   5.323  0.00  0.00    -0.197 NA
ATOM      6  H   UNL     1      -1.740  -6.518   2.155  0.00  0.00    +0.143 HD
ATOM      7  H   UNL     1      -3.496  -7.402   3.298  0.00  0.00    +0.143 HD
ENDROOT
BRANCH   1  10
ATOM      8  C   UNL     1      -0.055  -2.875   2.693  0.00  0.00    +0.091 C 
ATOM      9  C   UNL     1      -0.058  -4.216   2.565  0.00  0.00    +0.034 C 
ATOM     10  C   UNL     1      -0.380  -4.714   3.963  0.00  0.00    +0.187 C 
ATOM     11  N   UNL     1      -0.522  -3.470   4.738  0.00  0.00    -0.176 NA
ATOM     12  N   UNL     1      -0.325  -2.520   3.976  0.00  0.00    -0.154 NA
BRANCH   8  18
ATOM     13  C   UNL     1      -1.117  -1.133  -1.864  0.00  0.00    +0.044 C 
ATOM     14  C   UNL     1      -0.295  -1.081  -0.602  0.00  0.00    -0.050 A 
ATOM     15  C   UNL     1       0.712  -0.140  -0.472  0.00  0.00    +0.003 A 
ATOM     16  C   UNL     1       1.469  -0.086   0.684  0.00  0.00    +0.004 A 
ATOM     17  C   UNL     1       1.225  -0.972   1.714  0.00  0.00    -0.041 A 
ATOM     18  C   UNL     1       0.212  -1.921   1.589  0.00  0.00    +0.005 A 
ATOM     19  C   UNL     1      -0.552  -1.967   0.424  0.00  0.00    +0.013 A 
ATOM     20  C   UNL     1       2.052  -0.912   2.973  0.00  0.00    +0.044 C 
ENDBRANCH   8  18
ENDBRANCH   1  10
BRANCH   5  21
ATOM     21  N   UNL     1      -2.903  -5.161   6.029  0.00  0.00    -0.264 NA
ATOM     22  H   UNL     1      -3.099  -5.515   6.953  0.00  0.00    +0.137 HD
ATOM     23  H   UNL     1      -2.554  -4.215   6.070  0.00  0.00    +0.137 HD
ENDBRANCH   5  21
BRANCH   4  24
ATOM     24  S   UNL     1      -4.222  -7.447   5.825  0.00  0.00    -0.115 S 
BRANCH  24  25
ATOM     25  C   UNL     1      -5.121  -6.160   4.915  0.00  0.00    +0.168 C 
BRANCH  25  26
ATOM     26  C   UNL     1      -6.548  -6.109   5.397  0.00  0.00    +0.227 C 
ATOM     27  O   UNL     1      -6.922  -6.865   6.269  0.00  0.00    -0.275 OA
ATOM     28  N   UNL     1      -7.409  -5.222   4.860  0.00  0.00    -0.285 N 
ATOM     29  H   UNL     1      -7.132  -4.668   4.113  0.00  0.00    +0.155 HD
BRANCH  28  30
ATOM     30  C   UNL     1      -8.703  -5.099   5.380  0.00  0.00    +0.033 A 
ATOM     31  C   UNL     1      -9.766  -4.805   4.537  0.00  0.00    +0.024 A 
ATOM     32  C   UNL     1     -11.042  -4.685   5.053  0.00  0.00    +0.017 A 
ATOM     33  C   UNL     1     -11.260  -4.858   6.408  0.00  0.00    +0.018 A 
ATOM     34  C   UNL     1     -10.203  -5.151   7.250  0.00  0.00    +0.017 A 
ATOM     35  C   UNL     1      -8.926  -5.277   6.739  0.00  0.00    +0.024 A 
ATOM     36 BR   UNL     1     -13.008  -4.692   7.111  0.00  0.00    -0.050 Br
ENDBRANCH  28  30
ENDBRANCH  25  26
ENDBRANCH  24  25
ENDBRANCH   4  24
TORSDOF 7
