REMARK  Name = ZINC04531015
REMARK  10 active torsions:
REMARK  status: ('A' for Active; 'I' for Inactive)
REMARK    1  A    between atoms: C_1  and  C_2
REMARK    2  A    between atoms: C_5  and  S_8
REMARK    3  A    between atoms: S_8  and  O_11
REMARK    4  A    between atoms: O_11  and  C_12
REMARK    5  A    between atoms: C_12  and  C_13
REMARK    6  A    between atoms: C_15  and  O_29
REMARK    7  A    between atoms: C_17  and  O_28
REMARK    8  A    between atoms: C_19  and  N_44
REMARK    9  A    between atoms: C_21  and  O_24
REMARK   10  A    between atoms: O_24  and  C_25
REMARK                            x       y       z     vdW  Elec       q    Type
REMARK                         _______ _______ _______ _____ _____    ______ ____
ROOT
ATOM      1  C   UNL     1       1.279   2.026   0.001  0.00  0.00    +0.180 C 
ATOM      2  C   UNL     1       2.022   1.615  -1.273  0.00  0.00    +0.173 C 
ATOM      3  C   UNL     1       2.108   0.087  -1.334  0.00  0.00    +0.136 C 
ATOM      4  C   UNL     1       0.693  -0.497  -1.272  0.00  0.00    +0.014 C 
ATOM      5  C   UNL     1       0.002  -0.004   0.002  0.00  0.00    +0.239 C 
ATOM      6  O   UNL     1      -0.017   1.425   0.010  0.00  0.00    -0.345 OA
ENDROOT
BRANCH   4   9
ATOM      7  H   UNL     1      -1.010  -0.425  -2.426  0.00  0.00    -0.089 HD
ATOM      8  H   UNL     1      -0.079   0.950  -2.517  0.00  0.00    -0.089 HD
ATOM      9  N   UNL     1      -0.057  -0.067  -2.465  0.00  0.00    +0.385 N 
ATOM     10  H   UNL     1       0.404  -0.436  -3.305  0.00  0.00    -0.089 HD
ENDBRANCH   4   9
BRANCH   5  11
ATOM     11  O   UNL     1      -1.338  -0.499   0.039  0.00  0.00    -0.356 OA
ATOM     12  C   UNL     1      -2.039  -0.189   1.245  0.00  0.00    +0.197 C 
ENDBRANCH   5  11
BRANCH   3  13
ATOM     13  O   UNL     1       2.735  -0.308  -2.556  0.00  0.00    -0.391 OA
ATOM     14  H   UNL     1       3.636   0.027  -2.662  0.00  0.00    +0.210 HD
ENDBRANCH   3  13
BRANCH   2  15
ATOM     15  O   UNL     1       3.339   2.168  -1.258  0.00  0.00    -0.387 OA
ATOM     16  H   UNL     1       3.869   1.943  -2.034  0.00  0.00    +0.210 HD
ENDBRANCH   2  15
BRANCH   1  17
ATOM     17  C   UNL     1       1.136   3.549   0.039  0.00  0.00    +0.228 C 
BRANCH  17  18
ATOM     18  O   UNL     1       0.546   3.941   1.280  0.00  0.00    -0.232 OA
BRANCH  18  19
ATOM     19  S   UNL     1       0.355   5.443   1.428  0.00  0.00    +0.112 S 
ATOM     20  O   UNL     1      -0.037   5.673   2.774  0.00  0.00    -0.142 OA
ATOM     21  O   UNL     1       1.501   6.057   0.854  0.00  0.00    -0.142 OA
BRANCH  19  26
ATOM     22  C   UNL     1      -4.343   6.992  -2.026  0.00  0.00    +0.044 C 
ATOM     23  C   UNL     1      -3.170   6.606  -1.163  0.00  0.00    -0.050 A 
ATOM     24  C   UNL     1      -3.371   6.244   0.155  0.00  0.00    +0.005 A 
ATOM     25  C   UNL     1      -2.295   5.889   0.947  0.00  0.00    +0.030 A 
ATOM     26  C   UNL     1      -1.017   5.896   0.419  0.00  0.00    +0.117 A 
ATOM     27  C   UNL     1      -0.815   6.263  -0.898  0.00  0.00    +0.030 A 
ATOM     28  C   UNL     1      -1.892   6.614  -1.690  0.00  0.00    +0.005 A 
ENDBRANCH  19  26
ENDBRANCH  18  19
ENDBRANCH  17  18
ENDBRANCH   1  17
TORSDOF 8
