REMARK  Name = ZINC16647531
REMARK  9 active torsions:
REMARK  status: ('A' for Active; 'I' for Inactive)
REMARK    1  A    between atoms: C_1  and  C_2
REMARK    2  A    between atoms: C_2  and  C_3
REMARK    3  A    between atoms: C_3  and  C_5
REMARK    4  A    between atoms: C_3  and  C_6
REMARK    5  A    between atoms: C_6  and  N_7
REMARK    6  A    between atoms: C_8  and  C_10
REMARK    7  A    between atoms: C_10  and  N_11
REMARK    8  A    between atoms: N_13  and  C_32
REMARK    9  A    between atoms: C_22  and  C_24
REMARK                            x       y       z     vdW  Elec       q    Type
REMARK                         _______ _______ _______ _____ _____    ______ ____
ROOT
ATOM      1  N   UNL     1       2.355   0.044   0.265  0.00  0.00    -0.275 N 
ATOM      2  C   UNL     1       3.812   0.168   0.392  0.00  0.00    +0.217 C 
ATOM      3  N   UNL     1       4.071   1.552   0.854  0.00  0.00    -0.300 N 
ATOM      4  C   UNL     1       2.901   2.298   0.345  0.00  0.00    +0.115 C 
ATOM      5  C   UNL     1       1.799   1.274   0.226  0.00  0.00    +0.241 C 
ATOM      6  O   UNL     1       0.616   1.514   0.109  0.00  0.00    -0.273 OA
ATOM      7  C   UNL     1       2.506   3.390   1.335  0.00  0.00    +0.054 C 
ATOM      8  C   UNL     1       1.261   4.120   0.817  0.00  0.00    +0.110 C 
ATOM      9  N   UNL     1       1.525   4.592  -0.549  0.00  0.00    -0.297 N 
ATOM     10  C   UNL     1       1.978   3.624  -1.557  0.00  0.00    +0.110 C 
ATOM     11  C   UNL     1       3.217   2.899  -1.021  0.00  0.00    +0.054 C 
ATOM     12  C   UNL     1       1.353   5.889  -0.871  0.00  0.00    +0.248 C 
ATOM     13  O   UNL     1       1.060   6.696  -0.010  0.00  0.00    -0.270 OA
ENDROOT
BRANCH  12  14
ATOM     14  C   UNL     1       1.523   6.331  -2.270  0.00  0.00    +0.055 A 
ATOM     15  C   UNL     1       1.228   5.460  -3.321  0.00  0.00    +0.016 A 
ATOM     16  C   UNL     1       1.387   5.878  -4.625  0.00  0.00    +0.021 A 
ATOM     17  C   UNL     1       1.839   7.160  -4.895  0.00  0.00    +0.042 A 
ATOM     18  C   UNL     1       2.134   8.029  -3.858  0.00  0.00    +0.040 A 
ATOM     19  C   UNL     1       1.974   7.624  -2.548  0.00  0.00    +0.054 A 
ATOM     20 CL   UNL     1       2.337   8.717  -1.249  0.00  0.00    -0.083 Cl
ATOM     21 CL   UNL     1       2.038   7.678  -6.540  0.00  0.00    -0.083 Cl
ENDBRANCH  12  14
BRANCH   3  22
ATOM     22  C   UNL     1       5.257   2.048   0.308  0.00  0.00    +0.032 A 
ATOM     23  C   UNL     1       6.097   1.208  -0.412  0.00  0.00    +0.023 A 
ATOM     24  C   UNL     1       7.266   1.703  -0.954  0.00  0.00    +0.002 A 
ATOM     25  C   UNL     1       7.607   3.031  -0.772  0.00  0.00    +0.000 A 
ATOM     26  C   UNL     1       6.776   3.869  -0.051  0.00  0.00    +0.002 A 
ATOM     27  C   UNL     1       5.602   3.381   0.489  0.00  0.00    +0.023 A 
ENDBRANCH   3  22
BRANCH   1  28
ATOM     28  C   UNL     1       1.617  -1.219   0.192  0.00  0.00    +0.205 C 
BRANCH  28  30
ATOM     29  N   UNL     1       0.840  -2.783  -1.560  0.00  0.00    -0.314 N 
ATOM     30  C   UNL     1       1.486  -1.642  -1.248  0.00  0.00    +0.230 C 
ATOM     31  O   UNL     1       1.962  -0.955  -2.127  0.00  0.00    -0.274 OA
ATOM     32  H   UNL     1       0.459  -3.332  -0.857  0.00  0.00    +0.149 HD
BRANCH  29  33
ATOM     33  C   UNL     1       0.713  -3.194  -2.960  0.00  0.00    +0.107 C 
BRANCH  33  34
ATOM     34  C   UNL     1      -0.058  -4.514  -3.036  0.00  0.00    +0.003 C 
ATOM     35  C   UNL     1      -1.491  -4.297  -2.547  0.00  0.00    +0.009 C 
BRANCH  34  37
ATOM     36  C   UNL     1      -0.744  -6.385  -4.543  0.00  0.00    +0.004 C 
ATOM     37  C   UNL     1      -0.083  -5.007  -4.485  0.00  0.00    +0.001 C 
ENDBRANCH  34  37
ENDBRANCH  33  34
ENDBRANCH  29  33
ENDBRANCH  28  30
ENDBRANCH   1  28
TORSDOF 7
