REMARK  Name = ZINC20288729
REMARK  11 active torsions:
REMARK  status: ('A' for Active; 'I' for Inactive)
REMARK    1  A    between atoms: C_1  and  C_2
REMARK    2  A    between atoms: C_2  and  N_3
REMARK    3  A    between atoms: N_3  and  C_4
REMARK    4  A    between atoms: C_4  and  C_5
REMARK    5  A    between atoms: C_6  and  C_8
REMARK    6  A    between atoms: N_10  and  C_11
REMARK    7  A    between atoms: C_11  and  C_13
REMARK    8  A    between atoms: C_11  and  C_14
REMARK    9  A    between atoms: C_14  and  C_16
REMARK   10  A    between atoms: C_14  and  N_21
REMARK   11  A    between atoms: N_24  and  C_27
REMARK                            x       y       z     vdW  Elec       q    Type
REMARK                         _______ _______ _______ _____ _____    ______ ____
ROOT
ATOM      1  C   UNL     1       0.135   6.071  -0.317  0.00  0.00    +0.114 C 
ENDROOT
BRANCH   1   2
ATOM      2  N   UNL     1       1.136   6.395  -1.342  0.00  0.00    -0.290 NA
ATOM      3  C   UNL     1       1.623   7.773  -1.185  0.00  0.00    +0.104 C 
ATOM      4  C   UNL     1       2.719   8.044  -2.219  0.00  0.00    +0.120 C 
ATOM      5  N   UNL     1       2.179   7.830  -3.569  0.00  0.00    -0.325 N 
ATOM      6  C   UNL     1       1.691   6.452  -3.725  0.00  0.00    +0.120 C 
ATOM      7  C   UNL     1       0.596   6.181  -2.692  0.00  0.00    +0.104 C 
BRANCH   5   8
ATOM      8  C   UNL     1       3.131   8.138  -4.545  0.00  0.00    +0.065 A 
ATOM      9  C   UNL     1       2.796   8.072  -5.890  0.00  0.00    +0.026 A 
ATOM     10  C   UNL     1       3.738   8.381  -6.852  0.00  0.00    +0.002 A 
ATOM     11  C   UNL     1       5.018   8.747  -6.477  0.00  0.00    +0.003 A 
ATOM     12  C   UNL     1       5.359   8.809  -5.138  0.00  0.00    +0.040 A 
ATOM     13  C   UNL     1       4.419   8.505  -4.170  0.00  0.00    +0.144 A 
ATOM     14  F   UNL     1       4.752   8.565  -2.862  0.00  0.00    -0.204 F 
ENDBRANCH   5   8
ENDBRANCH   1   2
BRANCH   1  15
ATOM     15  C   UNL     1      -0.272   4.627  -0.451  0.00  0.00    +0.009 A 
ATOM     16  C   UNL     1      -1.503   4.072  -0.330  0.00  0.00    +0.013 A 
ATOM     17  C   UNL     1      -1.643   2.707  -0.501  0.00  0.00    +0.008 A 
ATOM     18  C   UNL     1      -0.544   1.963  -0.773  0.00  0.00    +0.045 A 
ATOM     19  S   UNL     1       0.742   3.201  -0.808  0.00  0.00    -0.100 S 
ENDBRANCH   1  15
BRANCH   1  20
ATOM     20  C   UNL     1       0.732   6.306   1.072  0.00  0.00    +0.092 C 
ATOM     21  C   UNL     1       2.029   5.506   1.211  0.00  0.00    +0.030 C 
BRANCH  20  24
ATOM     22  C   UNL     1      -0.176   6.406   3.331  0.00  0.00    +0.299 C 
ATOM     23  O   UNL     1       0.655   7.248   3.597  0.00  0.00    -0.265 OA
ATOM     24  N   UNL     1      -0.222   5.871   2.095  0.00  0.00    -0.303 N 
ATOM     25  H   UNL     1      -0.976   5.107   1.853  0.00  0.00    +0.149 HD
BRANCH  22  27
ATOM     26  N   UNL     1      -1.033   6.410   5.639  0.00  0.00    -0.294 N 
ATOM     27  C   UNL     1      -1.150   5.962   4.374  0.00  0.00    +0.301 C 
ATOM     28  O   UNL     1      -2.047   5.198   4.081  0.00  0.00    -0.265 OA
BRANCH  26  30
ATOM     29  C   UNL     1      -1.312   4.668   7.333  0.00  0.00    +0.024 C 
ATOM     30  C   UNL     1      -1.931   5.906   6.681  0.00  0.00    +0.105 C 
ENDBRANCH  26  30
BRANCH  26  31
ATOM     31  C   UNL     1      -0.007   7.402   5.973  0.00  0.00    +0.105 C 
ATOM     32  C   UNL     1      -0.524   8.802   5.639  0.00  0.00    +0.024 C 
ENDBRANCH  26  31
ENDBRANCH  22  27
ENDBRANCH  20  24
ENDBRANCH   1  20
TORSDOF 8
