REMARK  Name = ZINC63133343
REMARK  6 active torsions:
REMARK  status: ('A' for Active; 'I' for Inactive)
REMARK    1  A    between atoms: C_4  and  S_7
REMARK    2  A    between atoms: S_7  and  C_8
REMARK    3  A    between atoms: C_8  and  C_9
REMARK    4  A    between atoms: C_12  and  C_14
REMARK    5  A    between atoms: N_16  and  N_17
REMARK    6  A    between atoms: C_18  and  C_20
REMARK                            x       y       z     vdW  Elec       q    Type
REMARK                         _______ _______ _______ _____ _____    ______ ____
ROOT
ATOM      1  C   UNL     1       7.355  -5.256  -1.710  0.00  0.00    +0.295 C 
ATOM      2  O   UNL     1       8.286  -5.900  -1.263  0.00  0.00    -0.265 OA
ATOM      3  N   UNL     1       7.195  -5.139  -3.044  0.00  0.00    -0.228 N 
ATOM      4  H   UNL     1       6.453  -4.626  -3.400  0.00  0.00    +0.173 HD
ENDROOT
BRANCH   1   8
ATOM      5  C   UNL     1       4.705  -3.433  -0.063  0.00  0.00    +0.116 A 
ATOM      6  C   UNL     1       5.361  -3.891   1.026  0.00  0.00    +0.046 A 
ATOM      7  C   UNL     1       6.453  -4.643   0.566  0.00  0.00    +0.055 A 
ATOM      8  C   UNL     1       6.408  -4.606  -0.799  0.00  0.00    +0.191 A 
ATOM      9  O   UNL     1       5.336  -3.871  -1.161  0.00  0.00    -0.454 OA
BRANCH   5  10
ATOM     10  C   UNL     1       3.465  -2.578  -0.046  0.00  0.00    +0.148 C 
BRANCH  10  11
ATOM     11  S   UNL     1       3.939  -0.827  -0.042  0.00  0.00    -0.117 S 
BRANCH  11  15
ATOM     12  C   UNL     1      -0.017   1.379   0.010  0.00  0.00    +0.000 A 
ATOM     13  C   UNL     1       1.169   2.090   0.002  0.00  0.00    +0.001 A 
ATOM     14  C   UNL     1       2.377   1.421  -0.013  0.00  0.00    +0.015 A 
ATOM     15  C   UNL     1       2.400   0.031  -0.021  0.00  0.00    +0.008 A 
ATOM     16  C   UNL     1       1.206  -0.680  -0.013  0.00  0.00    +0.015 A 
ATOM     17  C   UNL     1       0.002  -0.004   0.002  0.00  0.00    +0.001 A 
ENDBRANCH  11  15
ENDBRANCH  10  11
ENDBRANCH   5  10
ENDBRANCH   1   8
BRANCH   3  18
ATOM     18  N   UNL     1       8.100  -5.760  -3.914  0.00  0.00    -0.230 N 
ATOM     19  C   UNL     1       7.940  -5.644  -5.248  0.00  0.00    +0.258 C 
ATOM     20  O   UNL     1       7.009  -5.000  -5.695  0.00  0.00    -0.269 OA
ATOM     21  H   UNL     1       8.841  -6.274  -3.558  0.00  0.00    +0.173 HD
BRANCH  19  22
ATOM     22  C   UNL     1       8.887  -6.294  -6.160  0.00  0.00    +0.044 C 
ATOM     23  C   UNL     1       8.867  -6.268  -7.537  0.00  0.00    +0.008 A 
ATOM     24  C   UNL     1       7.999  -5.657  -8.477  0.00  0.00    +0.010 A 
ATOM     25  C   UNL     1       8.222  -5.801  -9.801  0.00  0.00    +0.001 A 
ATOM     26  C   UNL     1       9.299  -6.545 -10.309  0.00  0.00    +0.002 A 
ATOM     27  C   UNL     1      10.184  -7.167  -9.499  0.00  0.00    +0.026 A 
ATOM     28  C   UNL     1      10.015  -7.061  -8.041  0.00  0.00    +0.043 A 
ATOM     29  N   UNL     1      10.704  -7.549  -7.048  0.00  0.00    -0.380 N 
ATOM     30  C   UNL     1      10.092  -7.127  -5.783  0.00  0.00    +0.154 C 
ATOM     31  H   UNL     1      11.498  -8.100  -7.131  0.00  0.00    +0.160 HD
ENDBRANCH  19  22
ENDBRANCH   3  18
TORSDOF 6
