REMARK  Name = ZINC02456338
REMARK  2 active torsions:
REMARK  status: ('A' for Active; 'I' for Inactive)
REMARK    1  A    between atoms: C_3  and  C_6
REMARK    2  A    between atoms: C_19  and  C_21
REMARK                            x       y       z     vdW  Elec       q    Type
REMARK                         _______ _______ _______ _____ _____    ______ ____
ROOT
ATOM      1  C   UNL     1       3.650   4.237   1.835  0.00  0.00    +0.283 C 
ATOM      2  O   UNL     1       4.688   3.936   2.394  0.00  0.00    -0.267 OA
ATOM      3  N   UNL     1       3.409   3.801   0.583  0.00  0.00    -0.275 N 
ATOM      4  C   UNL     1       4.340   2.857  -0.010  0.00  0.00    +0.205 C 
ATOM      5  C   UNL     1       3.700   1.513  -0.137  0.00  0.00    +0.235 C 
ATOM      6  O   UNL     1       4.421   0.549   0.015  0.00  0.00    -0.274 OA
ATOM      7  N   UNL     1       2.447   1.272  -0.392  0.00  0.00    -0.284 N 
ATOM      8  C   UNL     1       1.258   1.958  -0.321  0.00  0.00    +0.039 A 
ATOM      9  C   UNL     1       0.103   1.162  -0.408  0.00  0.00    +0.025 A 
ATOM     10  C   UNL     1      -1.154   1.713  -0.360  0.00  0.00    +0.017 A 
ATOM     11  C   UNL     1      -1.296   3.081  -0.208  0.00  0.00    +0.018 A 
ATOM     12  C   UNL     1      -0.172   3.872  -0.124  0.00  0.00    +0.023 A 
ATOM     13  C   UNL     1       1.107   3.323  -0.184  0.00  0.00    -0.000 A 
ATOM     14  C   UNL     1       2.242   4.296  -0.098  0.00  0.00    +0.139 C 
ATOM     15 BR   UNL     1      -3.018   3.858  -0.126  0.00  0.00    -0.050 Br
ATOM     16  H   UNL     1       2.317   0.369  -0.720  0.00  0.00    +0.155 HD
ENDROOT
BRANCH  14  17
ATOM     17  C   UNL     1       2.638   4.691  -1.497  0.00  0.00    -0.022 A 
ATOM     18  C   UNL     1       2.579   6.017  -1.884  0.00  0.00    +0.008 A 
ATOM     19  C   UNL     1       2.948   6.381  -3.165  0.00  0.00    +0.038 A 
ATOM     20  C   UNL     1       3.365   5.415  -4.065  0.00  0.00    +0.123 A 
ATOM     21  C   UNL     1       3.418   4.087  -3.679  0.00  0.00    +0.038 A 
ATOM     22  C   UNL     1       3.055   3.726  -2.395  0.00  0.00    +0.008 A 
ATOM     23  F   UNL     1       3.720   5.769  -5.320  0.00  0.00    -0.205 F 
ENDBRANCH  14  17
BRANCH   1  26
ATOM     24  C   UNL     1       1.644   6.383   4.002  0.00  0.00    +0.042 A 
ATOM     25  C   UNL     1       2.837   5.697   3.726  0.00  0.00    +0.054 A 
ATOM     26  C   UNL     1       2.662   5.073   2.524  0.00  0.00    +0.189 A 
ATOM     27  O   UNL     1       1.422   5.364   2.080  0.00  0.00    -0.458 OA
ATOM     28  C   UNL     1       0.803   6.150   2.971  0.00  0.00    +0.196 A 
ENDBRANCH   1  26
TORSDOF 2
