REMARK  Name = ZINC12836271
REMARK  4 active torsions:
REMARK  status: ('A' for Active; 'I' for Inactive)
REMARK    1  A    between atoms: C_3  and  C_6
REMARK    2  A    between atoms: C_9  and  N_12
REMARK    3  A    between atoms: C_13  and  C_15
REMARK    4  A    between atoms: C_22  and  C_24
REMARK                            x       y       z     vdW  Elec       q    Type
REMARK                         _______ _______ _______ _____ _____    ______ ____
ROOT
ATOM      1  C   UNL     1      -5.906   3.272   0.949  0.00  0.00    +0.093 C 
ATOM      2  C   UNL     1      -5.988   1.748   0.842  0.00  0.00    +0.016 C 
ATOM      3  C   UNL     1      -4.595   1.145   1.034  0.00  0.00    +0.020 C 
ATOM      4  C   UNL     1      -3.664   1.658  -0.076  0.00  0.00    +0.108 C 
ATOM      5  N   UNL     1      -3.693   3.127  -0.068  0.00  0.00    -0.297 N 
ATOM      6  C   UNL     1      -4.991   3.809  -0.156  0.00  0.00    +0.120 C 
ATOM      7  C   UNL     1      -2.549   3.836   0.014  0.00  0.00    +0.247 C 
ATOM      8  O   UNL     1      -2.590   5.046   0.119  0.00  0.00    -0.270 OA
ENDROOT
BRANCH   7   9
ATOM      9  C   UNL     1      -1.244   3.141  -0.025  0.00  0.00    +0.039 A 
ATOM     10  C   UNL     1      -1.079   2.013  -0.848  0.00  0.00    +0.015 A 
ATOM     11  C   UNL     1       0.107   1.355  -0.896  0.00  0.00    +0.030 A 
ATOM     12  C   UNL     1       1.195   1.805  -0.126  0.00  0.00    +0.089 A 
ATOM     13  C   UNL     1       1.043   2.945   0.704  0.00  0.00    +0.090 A 
ATOM     14  C   UNL     1      -0.194   3.609   0.745  0.00  0.00    +0.043 A 
ATOM     15  N   UNL     1       2.078   3.373   1.436  0.00  0.00    -0.252 NA
ATOM     16  C   UNL     1       3.224   2.734   1.379  0.00  0.00    +0.131 A 
ATOM     17  C   UNL     1       3.374   1.611   0.562  0.00  0.00    +0.131 A 
ATOM     18  N   UNL     1       2.373   1.172  -0.166  0.00  0.00    -0.252 NA
ENDBRANCH   7   9
BRANCH   1  20
ATOM     19  N   UNL     1      -7.455   5.198   0.849  0.00  0.00    -0.285 N 
ATOM     20  C   UNL     1      -7.284   3.862   0.792  0.00  0.00    +0.222 C 
ATOM     21  O   UNL     1      -8.239   3.135   0.616  0.00  0.00    -0.275 OA
ATOM     22  H   UNL     1      -6.685   5.783   0.923  0.00  0.00    +0.155 HD
BRANCH  19  26
ATOM     23  C   UNL     1     -11.296   6.815   0.705  0.00  0.00    +0.017 A 
ATOM     24  C   UNL     1     -10.312   7.417   1.492  0.00  0.00    +0.013 A 
ATOM     25  C   UNL     1      -9.044   6.880   1.537  0.00  0.00    +0.024 A 
ATOM     26  C   UNL     1      -8.744   5.740   0.800  0.00  0.00    +0.033 A 
ATOM     27  C   UNL     1      -9.719   5.142   0.011  0.00  0.00    +0.024 A 
ATOM     28  C   UNL     1     -10.991   5.670  -0.034  0.00  0.00    +0.013 A 
BRANCH  23  31
ATOM     29  C   UNL     1     -14.798   7.752   0.178  0.00  0.00    +0.042 A 
ATOM     30  C   UNL     1     -13.700   6.904  -0.072  0.00  0.00    +0.050 A 
ATOM     31  C   UNL     1     -12.657   7.388   0.654  0.00  0.00    +0.135 A 
ATOM     32  O   UNL     1     -13.079   8.483   1.315  0.00  0.00    -0.463 OA
ATOM     33  C   UNL     1     -14.373   8.706   1.030  0.00  0.00    +0.196 A 
ENDBRANCH  23  31
ENDBRANCH  19  26
ENDBRANCH   1  20
TORSDOF 4
