REMARK  Name = ZINC12694561
REMARK  9 active torsions:
REMARK  status: ('A' for Active; 'I' for Inactive)
REMARK    1  A    between atoms: C_1  and  C_2
REMARK    2  A    between atoms: C_2  and  O_3
REMARK    3  A    between atoms: O_3  and  C_4
REMARK    4  A    between atoms: C_4  and  C_6
REMARK    5  A    between atoms: C_7  and  N_18
REMARK    6  A    between atoms: C_9  and  C_11
REMARK    7  A    between atoms: C_19  and  C_21
REMARK    8  A    between atoms: C_21  and  N_54
REMARK    9  A    between atoms: C_24  and  C_27
REMARK                            x       y       z     vdW  Elec       q    Type
REMARK                         _______ _______ _______ _____ _____    ______ ____
ROOT
ATOM      1  C   UNL     1       0.797  -0.854   0.289  0.00  0.00    +0.118 A 
ATOM      2  C   UNL     1      -0.282   0.030   0.344  0.00  0.00    +0.055 A 
ATOM      3  C   UNL     1      -1.533  -0.483   0.581  0.00  0.00    +0.040 A 
ATOM      4  C   UNL     1      -1.671  -1.847   0.759  0.00  0.00    +0.022 A 
ATOM      5  S   UNL     1       0.009  -2.427   0.589  0.00  0.00    -0.080 S 
ENDROOT
BRANCH   4   6
ATOM      6  C   UNL     1      -2.897  -2.628   1.024  0.00  0.00    -0.011 A 
ATOM      7  C   UNL     1      -4.130  -1.982   1.129  0.00  0.00    +0.010 A 
ATOM      8  C   UNL     1      -5.272  -2.716   1.370  0.00  0.00    +0.020 A 
ATOM      9  C   UNL     1      -5.196  -4.091   1.519  0.00  0.00    +0.041 A 
ATOM     10  C   UNL     1      -3.975  -4.737   1.422  0.00  0.00    +0.020 A 
ATOM     11  C   UNL     1      -2.827  -4.014   1.175  0.00  0.00    +0.010 A 
ATOM     12 CL   UNL     1      -6.637  -5.008   1.830  0.00  0.00    -0.084 Cl
ENDBRANCH   4   6
BRANCH   2  13
ATOM     13  N   UNL     1      -0.094   1.401   0.158  0.00  0.00    -0.286 N 
ATOM     14  C   UNL     1      -0.982   2.278   0.667  0.00  0.00    +0.201 C 
ATOM     15  O   UNL     1      -1.890   1.884   1.369  0.00  0.00    -0.278 OA
ATOM     16  H   UNL     1       0.673   1.722  -0.341  0.00  0.00    +0.155 HD
BRANCH  14  17
ATOM     17  C   UNL     1      -0.847   3.748   0.364  0.00  0.00    +0.019 C 
BRANCH  17  23
ATOM     18  C   UNL     1      -1.605   5.940   1.058  0.00  0.00    -0.077 C 
ATOM     19  C   UNL     1      -2.602   6.674   1.957  0.00  0.00    -0.006 C 
ATOM     20  C   UNL     1      -4.027   6.381   1.477  0.00  0.00    +0.071 C 
ATOM     21  C   UNL     1      -4.261   4.868   1.491  0.00  0.00    -0.006 C 
ATOM     22  C   UNL     1      -3.216   4.187   0.605  0.00  0.00    -0.077 C 
ATOM     23  N   UNL     1      -1.869   4.487   1.135  0.00  0.00    +0.385 N 
ATOM     24  H   UNL     1      -1.823   4.192   2.117  0.00  0.00    -0.081 HD
BRANCH  20  25
ATOM     25  C   UNL     1      -5.015   7.053   2.395  0.00  0.00    +0.213 C 
ATOM     26  O   UNL     1      -5.828   6.387   3.002  0.00  0.00    -0.276 OA
ATOM     27  N   UNL     1      -4.996   8.392   2.542  0.00  0.00    -0.329 N 
ATOM     28  H   UNL     1      -4.346   8.924   2.057  0.00  0.00    +0.145 HD
ATOM     29  H   UNL     1      -5.633   8.824   3.133  0.00  0.00    +0.145 HD
ENDBRANCH  20  25
ENDBRANCH  17  23
ENDBRANCH  14  17
ENDBRANCH   2  13
BRANCH   1  30
ATOM     30  C   UNL     1       2.163  -0.574   0.056  0.00  0.00    +0.348 C 
ATOM     31  O   UNL     1       2.527   0.572  -0.131  0.00  0.00    -0.244 OA
BRANCH  30  32
ATOM     32  O   UNL     1       3.064  -1.579   0.041  0.00  0.00    -0.461 OA
BRANCH  32  34
ATOM     33  C   UNL     1       5.294  -2.485  -0.181  0.00  0.00    +0.048 C 
ATOM     34  C   UNL     1       4.427  -1.224  -0.201  0.00  0.00    +0.229 C 
ENDBRANCH  32  34
ENDBRANCH  30  32
ENDBRANCH   1  30
TORSDOF 8
