REMARK  Name = ZINC44678020
REMARK  2 active torsions:
REMARK  status: ('A' for Active; 'I' for Inactive)
REMARK    1  A    between atoms: C_4  and  C_7
REMARK    2  A    between atoms: C_10  and  N_12
REMARK                            x       y       z     vdW  Elec       q    Type
REMARK                         _______ _______ _______ _____ _____    ______ ____
ROOT
ATOM      1  N   UNL     1       5.448  -1.659  -1.531  0.00  0.00    -0.308 N 
ATOM      2  C   UNL     1       6.254  -2.784  -1.473  0.00  0.00    +0.070 A 
ATOM      3  C   UNL     1       6.161  -4.000  -0.812  0.00  0.00    +0.029 A 
ATOM      4  C   UNL     1       7.158  -4.941  -0.963  0.00  0.00    +0.017 A 
ATOM      5  C   UNL     1       8.255  -4.680  -1.772  0.00  0.00    +0.020 A 
ATOM      6  C   UNL     1       8.363  -3.477  -2.435  0.00  0.00    +0.045 A 
ATOM      7  C   UNL     1       7.361  -2.514  -2.293  0.00  0.00    +0.092 A 
ATOM      8  N   UNL     1       7.186  -1.266  -2.803  0.00  0.00    -0.215 NA
ATOM      9  C   UNL     1       6.060  -0.764  -2.361  0.00  0.00    +0.194 A 
ATOM     10  N   UNL     1       5.569   0.483  -2.682  0.00  0.00    -0.329 N 
ATOM     11 BR   UNL     1       9.611  -5.983  -1.965  0.00  0.00    -0.050 Br
ATOM     12  H   UNL     1       4.689   0.752  -2.375  0.00  0.00    +0.145 HD
ATOM     13  H   UNL     1       6.103   1.093  -3.216  0.00  0.00    +0.145 HD
ENDROOT
BRANCH   1  16
ATOM     14  C   UNL     1       4.100  -0.356   0.215  0.00  0.00    +0.044 C 
ATOM     15  C   UNL     1       4.117  -1.822   0.652  0.00  0.00    +0.036 C 
ATOM     16  C   UNL     1       4.172  -1.466  -0.836  0.00  0.00    +0.099 C 
BRANCH  14  20
ATOM     17  C   UNL     1       0.414   1.770   0.586  0.00  0.00    +0.000 A 
ATOM     18  C   UNL     1       1.573   2.448   0.260  0.00  0.00    +0.000 A 
ATOM     19  C   UNL     1       2.766   1.760   0.140  0.00  0.00    +0.004 A 
ATOM     20  C   UNL     1       2.800   0.394   0.346  0.00  0.00    -0.042 A 
ATOM     21  C   UNL     1       1.641  -0.285   0.673  0.00  0.00    +0.004 A 
ATOM     22  C   UNL     1       0.447   0.403   0.791  0.00  0.00    +0.000 A 
ENDBRANCH  14  20
ENDBRANCH   1  16
TORSDOF 2
