REMARK  Name = ZINC03595853
REMARK  4 active torsions:
REMARK  status: ('A' for Active; 'I' for Inactive)
REMARK    1  A    between atoms: C_1  and  C_2
REMARK    2  A    between atoms: N_11  and  C_15
REMARK    3  A    between atoms: C_15  and  C_16
REMARK    4  A    between atoms: N_18  and  C_19
REMARK                            x       y       z     vdW  Elec       q    Type
REMARK                         _______ _______ _______ _____ _____    ______ ____
ROOT
ATOM      1  C   UNL     1      -1.217   2.179  -2.473  0.00  0.00    +0.010 C 
ATOM      2  C   UNL     1      -2.065   1.908  -1.228  0.00  0.00    +0.018 C 
ATOM      3  C   UNL     1      -3.270   2.851  -1.218  0.00  0.00    +0.006 C 
ATOM      4  C   UNL     1      -4.107   2.594   0.037  0.00  0.00    +0.000 C 
ATOM      5  C   UNL     1      -3.255   2.857   1.281  0.00  0.00    +0.003 C 
ATOM      6  C   UNL     1      -2.050   1.913   1.281  0.00  0.00    +0.035 C 
ATOM      7  C   UNL     1      -1.222   2.142   0.021  0.00  0.00    +0.115 C 
ATOM      8  C   UNL     1      -0.011   1.238   0.015  0.00  0.00    +0.247 C 
ATOM      9  O   UNL     1       0.001   0.026   0.017  0.00  0.00    -0.273 OA
ATOM     10  N   UNL     1       1.056   2.065   0.002  0.00  0.00    -0.215 N 
ATOM     11  C   UNL     1       0.682   3.350   0.003  0.00  0.00    +0.310 C 
ATOM     12  O   UNL     1       1.464   4.281  -0.008  0.00  0.00    -0.252 OA
ATOM     13  N   UNL     1      -0.656   3.497   0.018  0.00  0.00    -0.285 N 
ATOM     14  H   UNL     1      -1.149   4.332   0.021  0.00  0.00    +0.151 HD
ENDROOT
BRANCH  10  15
ATOM     15  C   UNL     1       2.449   1.611  -0.013  0.00  0.00    +0.214 C 
BRANCH  15  16
ATOM     16  C   UNL     1       2.910   1.454  -1.439  0.00  0.00    +0.235 C 
ATOM     17  O   UNL     1       2.150   1.696  -2.353  0.00  0.00    -0.274 OA
ATOM     18  N   UNL     1       4.168   1.043  -1.699  0.00  0.00    -0.282 N 
ATOM     19  H   UNL     1       4.795   0.912  -0.971  0.00  0.00    +0.155 HD
BRANCH  18  20
ATOM     20  C   UNL     1       4.568   0.807  -3.021  0.00  0.00    +0.069 A 
ATOM     21  C   UNL     1       4.066   1.591  -4.050  0.00  0.00    +0.027 A 
ATOM     22  C   UNL     1       4.466   1.359  -5.352  0.00  0.00    +0.017 A 
ATOM     23  C   UNL     1       5.359   0.339  -5.632  0.00  0.00    +0.021 A 
ATOM     24  C   UNL     1       5.858  -0.448  -4.610  0.00  0.00    +0.055 A 
ATOM     25  C   UNL     1       5.465  -0.217  -3.304  0.00  0.00    +0.146 A 
ATOM     26  F   UNL     1       5.952  -0.986  -2.305  0.00  0.00    -0.204 F 
ATOM     27 BR   UNL     1       5.897   0.021  -7.417  0.00  0.00    -0.050 Br
ENDBRANCH  18  20
ENDBRANCH  15  16
ENDBRANCH  10  15
TORSDOF 3
