REMARK  Name = ZINC38828574
REMARK  4 active torsions:
REMARK  status: ('A' for Active; 'I' for Inactive)
REMARK    1  A    between atoms: C_1  and  C_2
REMARK    2  A    between atoms: C_3  and  C_23
REMARK    3  A    between atoms: N_13  and  C_16
REMARK    4  A    between atoms: C_19  and  C_22
REMARK                            x       y       z     vdW  Elec       q    Type
REMARK                         _______ _______ _______ _____ _____    ______ ____
ROOT
ATOM      1  C   UNL     1      -0.018   1.503   0.010  0.00  0.00    +0.068 C 
ATOM      2  C   UNL     1       0.002  -0.004   0.002  0.00  0.00    +0.070 A 
ATOM      3  C   UNL     1       0.008  -0.813  -1.142  0.00  0.00    +0.051 A 
ATOM      4  C   UNL     1       0.028  -2.141  -0.712  0.00  0.00    +0.186 A 
ATOM      5  N   UNL     1       0.042  -3.311  -1.363  0.00  0.00    -0.128 NA
ATOM      6  N   UNL     1       0.061  -4.440  -0.745  0.00  0.00    -0.140 NA
ATOM      7  C   UNL     1       0.068  -4.495   0.594  0.00  0.00    +0.176 A 
ATOM      8  C   UNL     1       0.055  -3.305   1.340  0.00  0.00    +0.102 A 
ATOM      9  N   UNL     1       0.035  -2.110   0.663  0.00  0.00    -0.210 N 
ATOM     10  N   UNL     1       0.023  -0.772   1.064  0.00  0.00    -0.169 NA
ATOM     11  C   UNL     1       0.063  -3.377   2.741  0.00  0.00    +0.048 A 
ATOM     12  C   UNL     1       0.084  -4.577   3.358  0.00  0.00    +0.095 A 
ATOM     13  N   UNL     1       0.098  -5.747   2.667  0.00  0.00    -0.271 N 
ATOM     14  C   UNL     1       0.090  -5.768   1.317  0.00  0.00    +0.284 A 
ATOM     15  O   UNL     1       0.103  -6.825   0.712  0.00  0.00    -0.265 OA
ENDROOT
BRANCH   3  16
ATOM     16  C   UNL     1      -0.006  -0.345  -2.548  0.00  0.00    -0.012 A 
ATOM     17  C   UNL     1      -1.102  -0.618  -3.365  0.00  0.00    +0.010 A 
ATOM     18  C   UNL     1      -1.109  -0.179  -4.674  0.00  0.00    +0.016 A 
ATOM     19  C   UNL     1      -0.032   0.530  -5.175  0.00  0.00    +0.018 A 
ATOM     20  C   UNL     1       1.059   0.803  -4.368  0.00  0.00    +0.016 A 
ATOM     21  C   UNL     1       1.075   0.375  -3.056  0.00  0.00    +0.010 A 
ATOM     22 BR   UNL     1      -0.049   1.128  -6.969  0.00  0.00    -0.050 Br
ENDBRANCH   3  16
BRANCH  13  23
ATOM     23  C   UNL     1       0.120  -7.014   3.402  0.00  0.00    +0.352 C 
ATOM     24  N   UNL     1      -0.182  -6.792   4.828  0.00  0.00    -0.219 NA
ATOM     25  C   UNL     1       0.873  -7.187   5.463  0.00  0.00    +0.147 C 
ATOM     26  N   UNL     1       1.826  -7.641   4.607  0.00  0.00    -0.136 NA
ATOM     27  N   UNL     1       1.480  -7.580   3.418  0.00  0.00    -0.136 NA
ATOM     28  C   UNL     1       1.026  -7.149   6.962  0.00  0.00    +0.089 C 
ENDBRANCH  13  23
TORSDOF 2
