REMARK  Name = ZINC20616591
REMARK  3 active torsions:
REMARK  status: ('A' for Active; 'I' for Inactive)
REMARK    1  A    between atoms: C_5  and  N_7
REMARK    2  A    between atoms: C_9  and  C_21
REMARK    3  A    between atoms: C_13  and  N_18
REMARK                            x       y       z     vdW  Elec       q    Type
REMARK                         _______ _______ _______ _____ _____    ______ ____
ROOT
ATOM      1  N   UNL     1       2.325   3.881   0.001  0.00  0.00    -0.324 N 
ATOM      2  C   UNL     1       2.304   5.193  -0.091  0.00  0.00    +0.212 A 
ATOM      3  C   UNL     1       3.555   5.968  -0.210  0.00  0.00    +0.098 A 
ATOM      4  C   UNL     1       3.479   7.198  -0.851  0.00  0.00    +0.030 A 
ATOM      5  C   UNL     1       2.167   7.616  -1.350  0.00  0.00    +0.020 A 
ATOM      6  C   UNL     1       2.046   8.698  -2.231  0.00  0.00    +0.044 A 
ATOM      7  C   UNL     1       0.811   9.067  -2.685  0.00  0.00    +0.127 A 
ATOM      8  C   UNL     1      -0.324   8.379  -2.281  0.00  0.00    +0.036 A 
ATOM      9  C   UNL     1      -0.227   7.310  -1.412  0.00  0.00    +0.049 A 
ATOM     10  C   UNL     1       1.016   6.918  -0.937  0.00  0.00    +0.138 A 
ATOM     11  O   UNL     1       1.130   5.875  -0.084  0.00  0.00    -0.439 OA
ATOM     12  H   UNL     1       3.286   3.351   0.085  0.00  0.00    +0.169 HD
ENDROOT
BRANCH   3  13
ATOM     13  C   UNL     1       4.828   5.458   0.325  0.00  0.00    +0.255 C 
ATOM     14  O   UNL     1       4.865   4.377   0.881  0.00  0.00    -0.270 OA
ATOM     15  N   UNL     1       5.953   6.190   0.200  0.00  0.00    -0.261 N 
ATOM     16  C   UNL     1       7.154   5.710   0.705  0.00  0.00    +0.165 A 
ATOM     17  N   UNL     1       8.347   6.272   0.681  0.00  0.00    -0.233 NA
ATOM     18  C   UNL     1       9.395   5.673   1.213  0.00  0.00    +0.120 A 
ATOM     19  C   UNL     1       9.222   4.459   1.790  0.00  0.00    +0.068 A 
ATOM     20  S   UNL     1       7.469   4.219   1.538  0.00  0.00    -0.061 S 
ATOM     21  H   UNL     1       5.920   7.168  -0.303  0.00  0.00    +0.157 HD
ENDBRANCH   3  13
BRANCH   1  26
ATOM     22  C   UNL     1      -0.656   2.134   1.181  0.00  0.00    +0.002 A 
ATOM     23  C   UNL     1      -1.217   1.742  -0.023  0.00  0.00    +0.002 A 
ATOM     24  C   UNL     1      -0.604   2.071  -1.219  0.00  0.00    +0.022 A 
ATOM     25  C   UNL     1       0.579   2.782  -1.219  0.00  0.00    +0.064 A 
ATOM     26  C   UNL     1       1.154   3.175  -0.007  0.00  0.00    +0.060 A 
ATOM     27  C   UNL     1       0.525   2.845   1.196  0.00  0.00    +0.027 A 
ATOM     28 CL   UNL     1       1.351   3.187  -2.720  0.00  0.00    -0.081 Cl
ENDBRANCH   1  26
BRANCH   7  29
ATOM     29  N   UNL     1       0.683  10.211  -3.615  0.00  0.00    +0.056 N 
ATOM     30  O   UNL     1       1.676  10.819  -3.973  0.00  0.00    -0.126 OA
ATOM     31  O   UNL     1      -0.415  10.545  -4.023  0.00  0.00    -0.126 OA
ENDBRANCH   7  29
TORSDOF 3
