REMARK  Name = ZINC30498777
REMARK  10 active torsions:
REMARK  status: ('A' for Active; 'I' for Inactive)
REMARK    1  A    between atoms: C_1  and  C_2
REMARK    2  A    between atoms: C_2  and  C_3
REMARK    3  A    between atoms: N_5  and  C_6
REMARK    4  A    between atoms: C_9  and  C_12
REMARK    5  A    between atoms: C_12  and  C_14
REMARK    6  A    between atoms: C_12  and  N_15
REMARK    7  A    between atoms: N_15  and  C_16
REMARK    8  A    between atoms: C_16  and  C_18
REMARK    9  A    between atoms: C_16  and  C_19
REMARK   10  A    between atoms: N_21  and  C_22
REMARK                            x       y       z     vdW  Elec       q    Type
REMARK                         _______ _______ _______ _____ _____    ______ ____
ROOT
ATOM      1  N   UNL     1      -2.390   5.310   0.140  0.00  0.00    +0.391 N 
ATOM      2  H   UNL     1      -1.766   6.120   0.545  0.00  0.00    -0.084 HD
ATOM      3  H   UNL     1      -2.595   4.574   0.931  0.00  0.00    -0.084 HD
ENDROOT
BRANCH   1   4
ATOM      4  C   UNL     1      -3.657   5.867  -0.352  0.00  0.00    -0.043 C 
ATOM      5  C   UNL     1      -4.606   6.093   0.827  0.00  0.00    -0.009 C 
BRANCH   4   9
ATOM      6  C   UNL     1      -2.912   9.588  -2.317  0.00  0.00    +0.033 A 
ATOM      7  C   UNL     1      -3.837   8.696  -2.844  0.00  0.00    +0.023 A 
ATOM      8  C   UNL     1      -4.075   7.494  -2.207  0.00  0.00    +0.004 A 
ATOM      9  C   UNL     1      -3.394   7.179  -1.045  0.00  0.00    -0.062 A 
ATOM     10  C   UNL     1      -2.477   8.067  -0.515  0.00  0.00    +0.004 A 
ATOM     11  C   UNL     1      -2.230   9.268  -1.150  0.00  0.00    +0.023 A 
BRANCH   6  14
ATOM     12  C   UNL     1      -3.674  11.451  -3.585  0.00  0.00    +0.217 C 
ATOM     13  O   UNL     1      -4.807  11.026  -3.509  0.00  0.00    -0.275 OA
ATOM     14  N   UNL     1      -2.669  10.807  -2.960  0.00  0.00    -0.286 N 
ATOM     15  H   UNL     1      -1.657  11.239  -2.955  0.00  0.00    +0.155 HD
BRANCH  12  17
ATOM     16  C   UNL     1      -4.692  13.229  -4.981  0.00  0.00    +0.013 C 
ATOM     17  C   UNL     1      -3.389  12.700  -4.379  0.00  0.00    +0.093 C 
ENDBRANCH  12  17
ENDBRANCH   6  14
ENDBRANCH   4   9
ENDBRANCH   1   4
BRANCH   1  18
ATOM     18  C   UNL     1      -1.652   4.644  -0.943  0.00  0.00    +0.014 C 
ATOM     19  C   UNL     1      -2.232   3.247  -1.171  0.00  0.00    -0.004 C 
BRANCH  18  20
ATOM     20  C   UNL     1      -0.199   4.529  -0.563  0.00  0.00    +0.203 C 
ATOM     21  O   UNL     1       0.185   4.958   0.504  0.00  0.00    -0.277 OA
ATOM     22  N   UNL     1       0.675   3.947  -1.409  0.00  0.00    -0.287 N 
ATOM     23  H   UNL     1       0.348   3.644  -2.414  0.00  0.00    +0.155 HD
BRANCH  22  24
ATOM     24  C   UNL     1       1.998   3.730  -1.008  0.00  0.00    +0.033 A 
ATOM     25  C   UNL     1       3.008   3.649  -1.958  0.00  0.00    +0.025 A 
ATOM     26  C   UNL     1       4.312   3.429  -1.560  0.00  0.00    +0.022 A 
ATOM     27  C   UNL     1       4.613   3.289  -0.216  0.00  0.00    +0.041 A 
ATOM     28  C   UNL     1       3.608   3.368   0.732  0.00  0.00    +0.022 A 
ATOM     29  C   UNL     1       2.303   3.589   0.340  0.00  0.00    +0.025 A 
ATOM     30 CL   UNL     1       6.253   3.012   0.280  0.00  0.00    -0.084 Cl
ENDBRANCH  22  24
ENDBRANCH  18  20
ENDBRANCH   1  18
TORSDOF 7
