REMARK  Name = ZINC16035076
REMARK  3 active torsions:
REMARK  status: ('A' for Active; 'I' for Inactive)
REMARK    1  A    between atoms: C_1  and  C_2
REMARK    2  A    between atoms: C_2  and  C_4
REMARK    3  A    between atoms: N_23  and  C_26
REMARK                            x       y       z     vdW  Elec       q    Type
REMARK                         _______ _______ _______ _____ _____    ______ ____
ROOT
ATOM      1  C   UNL     1       0.013  -0.789  -1.303  0.00  0.00    +0.153 C 
ATOM      2  C   UNL     1      -1.386  -0.713  -1.932  0.00  0.00    +0.117 C 
ATOM      3  C   UNL     1      -2.056  -2.068  -1.548  0.00  0.00    +0.114 C 
ATOM      4  C   UNL     1      -0.867  -3.013  -1.336  0.00  0.00    +0.110 C 
ATOM      5  N   UNL     1       0.320  -2.193  -1.066  0.00  0.00    -0.312 N 
ATOM      6  C   UNL     1       1.491  -2.764  -0.571  0.00  0.00    +0.038 A 
ATOM      7  C   UNL     1       2.752  -2.279  -0.836  0.00  0.00    +0.024 A 
ATOM      8  C   UNL     1       3.857  -2.928  -0.310  0.00  0.00    +0.002 A 
ATOM      9  C   UNL     1       3.697  -4.057   0.474  0.00  0.00    +0.001 A 
ATOM     10  C   UNL     1       2.437  -4.551   0.752  0.00  0.00    +0.010 A 
ATOM     11  C   UNL     1       1.319  -3.906   0.238  0.00  0.00    -0.004 A 
ATOM     12  C   UNL     1      -0.053  -4.365   0.533  0.00  0.00    +0.007 C 
ATOM     13  C   UNL     1      -1.099  -3.945  -0.178  0.00  0.00    -0.003 C 
ATOM     14  C   UNL     1      -2.760  -2.431  -2.846  0.00  0.00    +0.232 C 
ATOM     15  O   UNL     1      -3.685  -3.207  -2.959  0.00  0.00    -0.274 OA
ATOM     16  N   UNL     1      -2.182  -1.747  -3.846  0.00  0.00    -0.210 N 
ATOM     17  C   UNL     1      -1.295  -0.804  -3.439  0.00  0.00    +0.232 C 
ATOM     18  O   UNL     1      -0.556  -0.155  -4.148  0.00  0.00    -0.274 OA
ENDROOT
BRANCH  16  19
ATOM     19  C   UNL     1      -2.476  -1.977  -5.197  0.00  0.00    +0.044 A 
ATOM     20  C   UNL     1      -1.941  -1.151  -6.176  0.00  0.00    +0.025 A 
ATOM     21  C   UNL     1      -2.232  -1.379  -7.506  0.00  0.00    +0.017 A 
ATOM     22  C   UNL     1      -3.057  -2.431  -7.864  0.00  0.00    +0.018 A 
ATOM     23  C   UNL     1      -3.592  -3.256  -6.891  0.00  0.00    +0.017 A 
ATOM     24  C   UNL     1      -3.299  -3.035  -5.559  0.00  0.00    +0.025 A 
ATOM     25 BR   UNL     1      -3.455  -2.740  -9.687  0.00  0.00    -0.050 Br
ENDBRANCH  16  19
BRANCH   1  27
ATOM     26  C   UNL     1       0.043   1.471   0.003  0.00  0.00    +0.088 C 
ATOM     27  C   UNL     1       0.027  -0.036   0.002  0.00  0.00    +0.151 C 
ATOM     28  O   UNL     1       0.027  -0.640   1.048  0.00  0.00    -0.296 OA
ENDBRANCH   1  27
TORSDOF 2
