REMARK  Name = ZINC39711577
REMARK  10 active torsions:
REMARK  status: ('A' for Active; 'I' for Inactive)
REMARK    1  A    between atoms: C_1  and  C_2
REMARK    2  A    between atoms: C_2  and  C_3
REMARK    3  A    between atoms: C_3  and  N_4
REMARK    4  A    between atoms: N_7  and  C_10
REMARK    5  A    between atoms: C_10  and  C_12
REMARK    6  A    between atoms: C_10  and  C_27
REMARK    7  A    between atoms: N_32  and  C_33
REMARK    8  A    between atoms: C_33  and  C_34
REMARK    9  A    between atoms: C_33  and  C_35
REMARK   10  A    between atoms: C_33  and  C_36
REMARK                            x       y       z     vdW  Elec       q    Type
REMARK                         _______ _______ _______ _____ _____    ______ ____
ROOT
ATOM      1  C   UNL     1      -1.212  -6.033  -2.253  0.00  0.00    +0.115 C 
ENDROOT
BRANCH   1   2
ATOM      2  C   UNL     1      -1.119  -6.629  -0.847  0.00  0.00    +0.119 C 
ATOM      3  C   UNL     1      -2.199  -5.987   0.002  0.00  0.00    -0.003 C 
ATOM      4  C   UNL     1      -1.803  -5.331   1.125  0.00  0.00    -0.003 A 
ATOM      5  C   UNL     1      -2.784  -4.684   1.998  0.00  0.00    +0.059 A 
ATOM      6  C   UNL     1      -2.355  -4.035   3.113  0.00  0.00    +0.167 A 
ATOM      7  C   UNL     1      -0.984  -3.975   3.442  0.00  0.00    +0.168 A 
ATOM      8  C   UNL     1      -0.021  -4.569   2.653  0.00  0.00    +0.073 A 
ATOM      9  C   UNL     1      -0.375  -5.258   1.486  0.00  0.00    +0.044 A 
ATOM     10  N   UNL     1       0.573  -5.826   0.736  0.00  0.00    -0.284 N 
ATOM     11  C   UNL     1       0.311  -6.488  -0.376  0.00  0.00    +0.226 C 
ATOM     12  O   UNL     1       1.217  -6.984  -1.019  0.00  0.00    -0.275 OA
ATOM     13  O   UNL     1      -0.855  -3.267   4.601  0.00  0.00    -0.453 OA
ATOM     14  C   UNL     1      -2.089  -2.543   4.753  0.00  0.00    +0.466 C 
ATOM     15  O   UNL     1      -3.058  -3.361   4.072  0.00  0.00    -0.453 OA
ATOM     16  H   UNL     1       1.497  -5.747   1.020  0.00  0.00    +0.155 HD
ENDBRANCH   1   2
BRANCH   1  20
ATOM     17  N   UNL     1       0.215  -2.267  -0.968  0.00  0.00    +0.381 N 
ATOM     18  C   UNL     1      -1.079  -2.315  -1.661  0.00  0.00    -0.063 C 
ATOM     19  C   UNL     1      -1.637  -3.739  -1.603  0.00  0.00    +0.066 C 
ATOM     20  N   UNL     1      -0.685  -4.662  -2.239  0.00  0.00    -0.299 NA
ATOM     21  C   UNL     1       0.622  -4.606  -1.570  0.00  0.00    +0.066 C 
ATOM     22  C   UNL     1       1.162  -3.175  -1.629  0.00  0.00    -0.063 C 
ATOM     23  H   UNL     1       0.092  -2.552  -0.007  0.00  0.00    -0.082 HD
BRANCH  17  24
ATOM     24  C   UNL     1       0.742  -0.897  -1.009  0.00  0.00    -0.079 C 
BRANCH  24  26
ATOM     25  C   UNL     1       0.368   1.456  -0.255  0.00  0.00    +0.002 C 
ATOM     26  C   UNL     1      -0.181   0.028  -0.213  0.00  0.00    -0.022 C 
ENDBRANCH  24  26
ENDBRANCH  17  24
ENDBRANCH   1  20
BRANCH   1  27
ATOM     27  C   UNL     1      -0.390  -6.885  -3.223  0.00  0.00    +0.236 C 
ATOM     28  N   UNL     1       0.987  -7.034  -2.733  0.00  0.00    -0.148 NA
ATOM     29  N   UNL     1       1.760  -6.543  -3.559  0.00  0.00    -0.069 NA
ATOM     30  N   UNL     1       1.102  -6.014  -4.669  0.00  0.00    -0.179 N 
ATOM     31  N   UNL     1      -0.251  -6.196  -4.523  0.00  0.00    -0.179 NA
ATOM     32  H   UNL     1       1.532  -5.585  -5.426  0.00  0.00    +0.191 HD
BRANCH  31  33
ATOM     33  C   UNL     1      -0.958  -4.909  -4.516  0.00  0.00    +0.035 C 
ATOM     34  C   UNL     1      -0.087  -3.852  -3.833  0.00  0.00    +0.029 C 
ATOM     35  C   UNL     1      -1.249  -4.478  -5.955  0.00  0.00    +0.029 C 
ATOM     36  C   UNL     1      -2.276  -5.055  -3.751  0.00  0.00    +0.029 C 
ENDBRANCH  31  33
ENDBRANCH   1  27
TORSDOF 6
