REMARK  Name = ZINC23249928
REMARK  10 active torsions:
REMARK  status: ('A' for Active; 'I' for Inactive)
REMARK    1  A    between atoms: C_1  and  C_2
REMARK    2  A    between atoms: C_5  and  C_28
REMARK    3  A    between atoms: C_10  and  C_12
REMARK    4  A    between atoms: C_12  and  C_14
REMARK    5  A    between atoms: C_12  and  N_15
REMARK    6  A    between atoms: N_18  and  C_21
REMARK    7  A    between atoms: C_21  and  C_22
REMARK    8  A    between atoms: N_24  and  C_25
REMARK    9  A    between atoms: C_25  and  C_26
REMARK   10  A    between atoms: C_25  and  C_27
REMARK                            x       y       z     vdW  Elec       q    Type
REMARK                         _______ _______ _______ _____ _____    ______ ____
ROOT
ATOM      1  N   UNL     1       4.015  -3.296   1.249  0.00  0.00    +0.389 N 
ATOM      2  C   UNL     1       5.397  -2.837   1.061  0.00  0.00    -0.062 C 
ATOM      3  C   UNL     1       6.327  -4.048   0.957  0.00  0.00    +0.066 C 
ATOM      4  N   UNL     1       5.912  -4.886  -0.177  0.00  0.00    -0.298 NA
ATOM      5  C   UNL     1       4.521  -5.332  -0.014  0.00  0.00    +0.066 C 
ATOM      6  C   UNL     1       3.606  -4.111   0.097  0.00  0.00    -0.062 C 
ATOM      7  H   UNL     1       3.956  -3.850   2.090  0.00  0.00    -0.081 HD
ENDROOT
BRANCH   1   8
ATOM      8  C   UNL     1       3.125  -2.133   1.366  0.00  0.00    +0.016 C 
ATOM      9  C   UNL     1       3.587  -1.252   2.529  0.00  0.00    -0.004 C 
BRANCH   8  17
ATOM     10  C   UNL     1       0.265   1.085  -1.122  0.00  0.00    +0.009 C 
ATOM     11  C   UNL     1       0.160  -0.354  -0.613  0.00  0.00    +0.004 C 
ATOM     12  C   UNL     1      -1.313  -0.723  -0.421  0.00  0.00    +0.009 C 
ATOM     13  C   UNL     1      -1.420  -2.173   0.057  0.00  0.00    +0.004 C 
ATOM     14  C   UNL     1      -0.706  -2.316   1.405  0.00  0.00    +0.111 C 
ATOM     15  N   UNL     1       0.672  -1.827   1.264  0.00  0.00    -0.302 N 
ATOM     16  C   UNL     1       0.893  -0.477   0.727  0.00  0.00    +0.111 C 
ATOM     17  C   UNL     1       1.716  -2.602   1.621  0.00  0.00    +0.202 C 
ATOM     18  O   UNL     1       1.520  -3.678   2.146  0.00  0.00    -0.277 OA
ATOM     19  C   UNL     1      -2.894  -2.550   0.216  0.00  0.00    +0.009 C 
ENDBRANCH   8  17
ENDBRANCH   1   8
BRANCH   4  20
ATOM     20  C   UNL     1       6.816  -6.031  -0.344  0.00  0.00    +0.180 C 
BRANCH  20  21
ATOM     21  C   UNL     1       6.513  -6.724  -1.648  0.00  0.00    +0.227 C 
ATOM     22  O   UNL     1       5.631  -6.305  -2.367  0.00  0.00    -0.274 OA
ATOM     23  N   UNL     1       7.223  -7.809  -2.015  0.00  0.00    -0.312 N 
ATOM     24  H   UNL     1       7.929  -8.145  -1.440  0.00  0.00    +0.149 HD
BRANCH  23  25
ATOM     25  C   UNL     1       6.928  -8.483  -3.282  0.00  0.00    +0.067 C 
ATOM     26  C   UNL     1       7.683  -7.787  -4.417  0.00  0.00    +0.027 C 
ATOM     27  C   UNL     1       7.370  -9.945  -3.197  0.00  0.00    +0.027 C 
ENDBRANCH  23  25
ENDBRANCH  20  21
ENDBRANCH   4  20
TORSDOF 5
