REMARK  Name = ZINC29155330
REMARK  8 active torsions:
REMARK  status: ('A' for Active; 'I' for Inactive)
REMARK    1  A    between atoms: C_1  and  C_2
REMARK    2  A    between atoms: C_2  and  O_3
REMARK    3  A    between atoms: O_3  and  C_4
REMARK    4  A    between atoms: C_7  and  C_10
REMARK    5  A    between atoms: C_10  and  N_11
REMARK    6  A    between atoms: N_14  and  C_17
REMARK    7  A    between atoms: C_17  and  C_18
REMARK    8  A    between atoms: N_20  and  C_21
REMARK                            x       y       z     vdW  Elec       q    Type
REMARK                         _______ _______ _______ _____ _____    ______ ____
ROOT
ATOM      1  N   UNL     1      -1.473  -2.740  -1.749  0.00  0.00    -0.302 NA
ATOM      2  C   UNL     1      -2.382  -2.673  -2.901  0.00  0.00    +0.066 C 
ATOM      3  C   UNL     1      -1.613  -3.030  -4.176  0.00  0.00    -0.063 C 
ATOM      4  N   UNL     1      -1.039  -4.376  -4.038  0.00  0.00    +0.387 N 
ATOM      5  C   UNL     1      -0.130  -4.443  -2.885  0.00  0.00    -0.063 C 
ATOM      6  C   UNL     1      -0.899  -4.086  -1.611  0.00  0.00    +0.066 C 
ATOM      7  H   UNL     1      -1.865  -5.080  -3.861  0.00  0.00    -0.081 HD
ENDROOT
BRANCH   1   8
ATOM      8  C   UNL     1      -2.156  -2.331  -0.515  0.00  0.00    +0.119 C 
BRANCH   8  12
ATOM      9  C   UNL     1      -3.173   1.813  -0.757  0.00  0.00    +0.121 A 
ATOM     10  C   UNL     1      -4.065   0.851  -1.208  0.00  0.00    +0.046 A 
ATOM     11  C   UNL     1      -3.734  -0.487  -1.129  0.00  0.00    +0.008 A 
ATOM     12  C   UNL     1      -2.515  -0.869  -0.600  0.00  0.00    -0.033 A 
ATOM     13  C   UNL     1      -1.624   0.087  -0.150  0.00  0.00    +0.008 A 
ATOM     14  C   UNL     1      -1.950   1.427  -0.226  0.00  0.00    +0.046 A 
BRANCH   9  15
ATOM     15  O   UNL     1      -3.496   3.131  -0.834  0.00  0.00    -0.492 OA
BRANCH  15  17
ATOM     16  C   UNL     1      -3.066   5.488  -0.518  0.00  0.00    +0.048 C 
ATOM     17  C   UNL     1      -2.529   4.065  -0.350  0.00  0.00    +0.225 C 
ENDBRANCH  15  17
ENDBRANCH   9  15
ENDBRANCH   8  12
ENDBRANCH   1   8
BRANCH   4  18
ATOM     18  C   UNL     1      -0.356  -4.786  -5.272  0.00  0.00    +0.019 C 
BRANCH  18  19
ATOM     19  C   UNL     1      -0.044  -6.259  -5.209  0.00  0.00    +0.201 C 
ATOM     20  O   UNL     1      -0.461  -6.928  -4.287  0.00  0.00    -0.278 OA
ATOM     21  N   UNL     1       0.699  -6.833  -6.176  0.00  0.00    -0.284 N 
ATOM     22  H   UNL     1       1.173  -6.209  -6.948  0.00  0.00    +0.155 HD
BRANCH  21  23
ATOM     23  C   UNL     1       0.867  -8.224  -6.197  0.00  0.00    +0.083 A 
ATOM     24  C   UNL     1       1.297  -8.892  -5.056  0.00  0.00    +0.148 A 
ATOM     25  C   UNL     1       1.462 -10.264  -5.081  0.00  0.00    +0.078 A 
ATOM     26  C   UNL     1       1.198 -10.974  -6.240  0.00  0.00    +0.127 A 
ATOM     27  C   UNL     1       0.769 -10.311  -7.378  0.00  0.00    +0.055 A 
ATOM     28  C   UNL     1       0.598  -8.939  -7.357  0.00  0.00    +0.045 A 
ATOM     29 BR   UNL     1       0.005  -8.036  -8.909  0.00  0.00    -0.048 Br
ATOM     30  F   UNL     1       1.360 -12.315  -6.262  0.00  0.00    -0.205 F 
ATOM     31  F   UNL     1       1.553  -8.200  -3.924  0.00  0.00    -0.203 F 
ENDBRANCH  21  23
ENDBRANCH  18  19
ENDBRANCH   4  18
TORSDOF 7
