REMARK  Name = ZINC57367100
REMARK  5 active torsions:
REMARK  status: ('A' for Active; 'I' for Inactive)
REMARK    1  A    between atoms: C_1  and  C_2
REMARK    2  A    between atoms: C_4  and  C_30
REMARK    3  A    between atoms: N_8  and  N_9
REMARK    4  A    between atoms: N_9  and  C_10
REMARK    5  A    between atoms: N_20  and  C_23
REMARK                            x       y       z     vdW  Elec       q    Type
REMARK                         _______ _______ _______ _____ _____    ______ ____
ROOT
ATOM      1  C   UNL     1       0.060  -2.624   4.737  0.00  0.00    +0.101 C 
ATOM      2  C   UNL     1       0.146  -1.966   5.944  0.00  0.00    +0.060 C 
ATOM      3  C   UNL     1       0.116  -0.490   6.010  0.00  0.00    +0.000 A 
ATOM      4  C   UNL     1       0.000   0.291   4.866  0.00  0.00    +0.009 A 
ATOM      5  C   UNL     1      -0.024   1.666   4.979  0.00  0.00    +0.001 A 
ATOM      6  C   UNL     1       0.066   2.272   6.224  0.00  0.00    +0.001 A 
ATOM      7  C   UNL     1       0.181   1.515   7.369  0.00  0.00    +0.014 A 
ATOM      8  C   UNL     1       0.207   0.123   7.277  0.00  0.00    +0.046 A 
ATOM      9  C   UNL     1       0.327  -0.722   8.472  0.00  0.00    +0.258 C 
ATOM     10  O   UNL     1       0.406  -0.199   9.568  0.00  0.00    -0.269 OA
ATOM     11  N   UNL     1       0.351  -2.061   8.376  0.00  0.00    -0.201 N 
ATOM     12  C   UNL     1       0.264  -2.710   7.204  0.00  0.00    +0.259 C 
ATOM     13  O   UNL     1       0.287  -3.927   7.185  0.00  0.00    -0.269 OA
ENDROOT
BRANCH  11  14
ATOM     14  C   UNL     1       0.468  -2.815   9.552  0.00  0.00    +0.063 A 
ATOM     15  C   UNL     1      -0.672  -3.223  10.232  0.00  0.00    +0.025 A 
ATOM     16  C   UNL     1      -0.554  -3.966  11.390  0.00  0.00    +0.002 A 
ATOM     17  C   UNL     1       0.697  -4.304  11.873  0.00  0.00    +0.002 A 
ATOM     18  C   UNL     1       1.834  -3.900  11.199  0.00  0.00    +0.022 A 
ATOM     19  C   UNL     1       1.723  -3.161  10.036  0.00  0.00    +0.063 A 
ATOM     20 CL   UNL     1       3.151  -2.659   9.185  0.00  0.00    -0.082 Cl
ENDBRANCH  11  14
BRANCH   1  21
ATOM     21  N   UNL     1       0.492  -2.018   3.601  0.00  0.00    -0.271 N 
ATOM     22  H   UNL     1       0.954  -1.166   3.651  0.00  0.00    +0.169 HD
BRANCH  21  30
ATOM     23  C   UNL     1       2.484   1.098   0.304  0.00  0.00    +0.066 C 
ATOM     24  C   UNL     1       1.769  -0.224   0.197  0.00  0.00    +0.044 A 
ATOM     25  C   UNL     1       1.557  -0.809  -1.041  0.00  0.00    +0.046 A 
ATOM     26  C   UNL     1       0.896  -2.026  -1.095  0.00  0.00    +0.044 A 
ATOM     27  N   UNL     1       0.489  -2.590   0.030  0.00  0.00    -0.219 NA
ATOM     28  C   UNL     1       0.708  -2.004   1.198  0.00  0.00    +0.232 A 
ATOM     29  N   UNL     1       1.342  -0.844   1.285  0.00  0.00    -0.219 NA
ATOM     30  N   UNL     1       0.269  -2.622   2.356  0.00  0.00    -0.235 N 
ATOM     31  C   UNL     1       0.643  -2.698  -2.420  0.00  0.00    +0.066 C 
ATOM     32  H   UNL     1      -0.193  -3.474   2.307  0.00  0.00    +0.173 HD
ENDBRANCH  21  30
ENDBRANCH   1  21
TORSDOF 3
