REMARK  Name = ZINC67313969
REMARK  8 active torsions:
REMARK  status: ('A' for Active; 'I' for Inactive)
REMARK    1  A    between atoms: C_1  and  C_2
REMARK    2  A    between atoms: C_2  and  C_3
REMARK    3  A    between atoms: C_3  and  C_5
REMARK    4  A    between atoms: C_3  and  N_20
REMARK    5  A    between atoms: C_5  and  N_6
REMARK    6  A    between atoms: N_9  and  C_10
REMARK    7  A    between atoms: C_13  and  C_19
REMARK    8  A    between atoms: C_14  and  C_16
REMARK                            x       y       z     vdW  Elec       q    Type
REMARK                         _______ _______ _______ _____ _____    ______ ____
ROOT
ATOM      1  N   UNL     1      -2.765  -2.579   0.185  0.00  0.00    -0.301 N 
ATOM      2  C   UNL     1      -3.003  -3.884   0.425  0.00  0.00    +0.304 C 
ATOM      3  O   UNL     1      -2.098  -4.611   0.784  0.00  0.00    -0.253 OA
ATOM      4  N   UNL     1      -4.245  -4.382   0.266  0.00  0.00    -0.269 N 
ATOM      5  H   UNL     1      -3.488  -1.999  -0.102  0.00  0.00    +0.150 HD
ATOM      6  H   UNL     1      -4.954  -3.818  -0.081  0.00  0.00    +0.156 HD
ENDROOT
BRANCH   4   7
ATOM      7  C   UNL     1      -4.513  -5.715   0.601  0.00  0.00    +0.035 A 
ATOM      8  C   UNL     1      -3.855  -6.307   1.673  0.00  0.00    +0.023 A 
ATOM      9  C   UNL     1      -4.115  -7.622   2.008  0.00  0.00    +0.006 A 
ATOM     10  C   UNL     1      -5.031  -8.356   1.281  0.00  0.00    -0.038 A 
ATOM     11  C   UNL     1      -5.697  -7.770   0.204  0.00  0.00    +0.041 A 
ATOM     12  C   UNL     1      -5.438  -6.441  -0.131  0.00  0.00    +0.036 A 
ATOM     13  C   UNL     1      -5.311  -9.790   1.651  0.00  0.00    +0.044 C 
BRANCH  11  14
ATOM     14  C   UNL     1      -6.679  -8.554  -0.576  0.00  0.00    +0.242 C 
ATOM     15  O   UNL     1      -6.985  -9.675  -0.218  0.00  0.00    -0.270 OA
ATOM     16  N   UNL     1      -7.234  -8.026  -1.685  0.00  0.00    -0.325 N 
ATOM     17  H   UNL     1      -6.990  -7.132  -1.971  0.00  0.00    +0.145 HD
ATOM     18  H   UNL     1      -7.878  -8.540  -2.197  0.00  0.00    +0.145 HD
ENDBRANCH  11  14
ENDBRANCH   4   7
BRANCH   1  19
ATOM     19  C   UNL     1      -1.415  -2.037   0.358  0.00  0.00    +0.090 C 
BRANCH  19  20
ATOM     20  C   UNL     1      -1.383  -0.586  -0.126  0.00  0.00    -0.051 C 
BRANCH  20  21
ATOM     21  N   UNL     1      -1.517  -0.553  -1.588  0.00  0.00    +0.385 N 
ATOM     22  C   UNL     1      -2.791  -1.176  -1.979  0.00  0.00    -0.073 C 
ATOM     23  C   UNL     1      -3.056  -0.862  -3.452  0.00  0.00    +0.017 C 
ATOM     24  C   UNL     1      -1.842  -1.213  -4.274  0.00  0.00    -0.048 A 
ATOM     25  C   UNL     1      -1.981  -1.334  -5.648  0.00  0.00    +0.004 A 
ATOM     26  C   UNL     1      -0.891  -1.651  -6.433  0.00  0.00    +0.000 A 
ATOM     27  C   UNL     1       0.345  -1.848  -5.847  0.00  0.00    +0.000 A 
ATOM     28  C   UNL     1       0.485  -1.728  -4.479  0.00  0.00    +0.002 A 
ATOM     29  C   UNL     1      -0.610  -1.412  -3.688  0.00  0.00    -0.061 A 
ATOM     30  C   UNL     1      -0.414  -1.300  -2.199  0.00  0.00    -0.042 C 
ATOM     31  H   UNL     1      -1.495   0.403  -1.908  0.00  0.00    -0.081 HD
ENDBRANCH  20  21
BRANCH  20  33
ATOM     32  C   UNL     1      -0.048   1.527  -0.147  0.00  0.00    +0.002 C 
ATOM     33  C   UNL     1      -0.054   0.057   0.278  0.00  0.00    -0.017 C 
ENDBRANCH  20  33
ENDBRANCH  19  20
ENDBRANCH   1  19
TORSDOF 6
