REMARK  Name = ZINC14899067
REMARK  6 active torsions:
REMARK  status: ('A' for Active; 'I' for Inactive)
REMARK    1  A    between atoms: C_1  and  C_2
REMARK    2  A    between atoms: C_4  and  C_17
REMARK    3  A    between atoms: C_6  and  C_12
REMARK    4  A    between atoms: N_9  and  C_11
REMARK    5  A    between atoms: N_19  and  C_20
REMARK    6  A    between atoms: C_27  and  C_29
REMARK                            x       y       z     vdW  Elec       q    Type
REMARK                         _______ _______ _______ _____ _____    ______ ____
ROOT
ATOM      1  C   UNL     1      -6.739  -0.916   0.063  0.00  0.00    +0.068 C 
ATOM      2  C   UNL     1      -7.677   0.259  -0.050  0.00  0.00    +0.070 A 
ATOM      3  C   UNL     1      -7.293   1.603  -0.237  0.00  0.00    +0.054 A 
ATOM      4  C   UNL     1      -6.043   2.254  -0.370  0.00  0.00    +0.052 A 
ATOM      5  C   UNL     1      -6.040   3.632  -0.541  0.00  0.00    +0.045 A 
ATOM      6  C   UNL     1      -7.261   4.319  -0.587  0.00  0.00    +0.109 A 
ATOM      7  N   UNL     1      -8.416   3.681  -0.460  0.00  0.00    -0.224 NA
ATOM      8  C   UNL     1      -8.475   2.369  -0.289  0.00  0.00    +0.160 A 
ATOM      9  N   UNL     1      -9.513   1.487  -0.135  0.00  0.00    -0.249 N 
ATOM     10  N   UNL     1      -8.977   0.202   0.008  0.00  0.00    -0.174 NA
ATOM     11  C   UNL     1     -10.938   1.830  -0.123  0.00  0.00    +0.174 C 
ENDROOT
BRANCH   6  12
ATOM     12  C   UNL     1      -7.261   5.782  -0.775  0.00  0.00    +0.153 A 
ATOM     13  C   UNL     1      -8.362   6.580  -0.840  0.00  0.00    +0.051 A 
ATOM     14  C   UNL     1      -7.898   7.896  -1.023  0.00  0.00    +0.042 A 
ATOM     15  C   UNL     1      -6.552   7.839  -1.069  0.00  0.00    +0.196 A 
ATOM     16  O   UNL     1      -6.170   6.561  -0.919  0.00  0.00    -0.461 OA
ENDBRANCH   6  12
BRANCH   4  17
ATOM     17  C   UNL     1      -4.778   1.490  -0.322  0.00  0.00    +0.249 C 
ATOM     18  O   UNL     1      -4.802   0.275  -0.279  0.00  0.00    -0.270 OA
ATOM     19  N   UNL     1      -3.598   2.140  -0.327  0.00  0.00    -0.281 N 
ATOM     20  H   UNL     1      -3.578   3.110  -0.291  0.00  0.00    +0.155 HD
BRANCH  19  21
ATOM     21  C   UNL     1      -2.401   1.418  -0.384  0.00  0.00    +0.035 A 
ATOM     22  C   UNL     1      -1.305   1.922  -1.084  0.00  0.00    +0.025 A 
ATOM     23  C   UNL     1      -0.132   1.240  -1.155  0.00  0.00    +0.031 A 
ATOM     24  C   UNL     1       0.018  -0.011  -0.517  0.00  0.00    +0.079 A 
ATOM     25  C   UNL     1      -1.107  -0.501   0.186  0.00  0.00    +0.041 A 
ATOM     26  C   UNL     1      -2.292   0.188   0.252  0.00  0.00    +0.040 A 
ATOM     27  S   UNL     1      -0.507  -2.048   0.817  0.00  0.00    -0.072 S 
ATOM     28  C   UNL     1       1.095  -1.961   0.154  0.00  0.00    +0.076 A 
ATOM     29  N   UNL     1       1.097  -0.822  -0.480  0.00  0.00    -0.244 NA
ATOM     30  C   UNL     1       2.215  -2.961   0.281  0.00  0.00    +0.073 C 
ENDBRANCH  19  21
ENDBRANCH   4  17
TORSDOF 3
