REMARK  Name = ZINC14190406
REMARK  10 active torsions:
REMARK  status: ('A' for Active; 'I' for Inactive)
REMARK    1  A    between atoms: C_1  and  C_2
REMARK    2  A    between atoms: C_2  and  C_3
REMARK    3  A    between atoms: C_2  and  N_48
REMARK    4  A    between atoms: C_4  and  C_5
REMARK    5  A    between atoms: C_4  and  N_48
REMARK    6  A    between atoms: C_8  and  C_9
REMARK    7  A    between atoms: C_8  and  N_48
REMARK    8  A    between atoms: N_11  and  C_12
REMARK    9  A    between atoms: C_15  and  S_18
REMARK   10  A    between atoms: S_18  and  C_19
REMARK                            x       y       z     vdW  Elec       q    Type
REMARK                         _______ _______ _______ _____ _____    ______ ____
ROOT
ATOM      1  C   UNL     1       1.941   3.137   1.235  0.00  0.00    +0.201 C 
ATOM      2  O   UNL     1       2.158   4.088   1.956  0.00  0.00    -0.278 OA
ATOM      3  N   UNL     1       0.752   3.020   0.612  0.00  0.00    -0.287 N 
ATOM      4  H   UNL     1       0.610   2.310  -0.033  0.00  0.00    +0.155 HD
ENDROOT
BRANCH   3   5
ATOM      5  C   UNL     1      -0.278   3.928   0.893  0.00  0.00    +0.033 A 
ATOM      6  C   UNL     1      -1.604   3.525   0.799  0.00  0.00    +0.024 A 
ATOM      7  C   UNL     1      -2.619   4.417   1.082  0.00  0.00    +0.017 A 
ATOM      8  C   UNL     1      -2.314   5.722   1.448  0.00  0.00    +0.013 A 
ATOM      9  C   UNL     1      -0.987   6.127   1.536  0.00  0.00    +0.017 A 
ATOM     10  C   UNL     1       0.027   5.232   1.260  0.00  0.00    +0.024 A 
BRANCH   8  11
ATOM     11  S   UNL     1      -3.609   6.863   1.802  0.00  0.00    -0.089 S 
BRANCH  11  12
ATOM     12  C   UNL     1      -4.004   7.559   0.232  0.00  0.00    +0.013 A 
ATOM     13  C   UNL     1      -3.389   7.079  -0.917  0.00  0.00    +0.016 A 
ATOM     14  C   UNL     1      -3.704   7.623  -2.146  0.00  0.00    +0.016 A 
ATOM     15  C   UNL     1      -4.625   8.653  -2.233  0.00  0.00    +0.018 A 
ATOM     16  C   UNL     1      -5.236   9.136  -1.090  0.00  0.00    +0.016 A 
ATOM     17  C   UNL     1      -4.928   8.593   0.142  0.00  0.00    +0.016 A 
ATOM     18 BR   UNL     1      -5.050   9.399  -3.918  0.00  0.00    -0.050 Br
ENDBRANCH  11  12
ENDBRANCH   8  11
ENDBRANCH   3   5
BRANCH   1  19
ATOM     19  C   UNL     1       3.003   2.086   1.035  0.00  0.00    +0.020 C 
BRANCH  19  20
ATOM     20  N   UNL     1       4.128   2.369   1.950  0.00  0.00    +0.393 N 
ATOM     21  H   UNL     1       4.308   3.380   1.954  0.00  0.00    -0.080 HD
BRANCH  20  23
ATOM     22  C   UNL     1       5.170   0.152   1.621  0.00  0.00    -0.013 C 
ATOM     23  C   UNL     1       5.344   1.667   1.489  0.00  0.00    -0.074 C 
ATOM     24  C   UNL     1       5.602   2.025   0.025  0.00  0.00    -0.013 C 
ENDBRANCH  20  23
BRANCH  20  25
ATOM     25  C   UNL     1       3.784   1.938   3.322  0.00  0.00    +0.019 C 
BRANCH  25  26
ATOM     26  C   UNL     1       4.847   2.434   4.268  0.00  0.00    +0.194 C 
ATOM     27  O   UNL     1       5.794   3.062   3.842  0.00  0.00    -0.278 OA
ATOM     28  N   UNL     1       4.747   2.180   5.588  0.00  0.00    -0.331 N 
ATOM     29  H   UNL     1       3.990   1.678   5.929  0.00  0.00    +0.145 HD
ATOM     30  H   UNL     1       5.431   2.499   6.197  0.00  0.00    +0.145 HD
ENDBRANCH  25  26
ENDBRANCH  20  25
ENDBRANCH  19  20
ENDBRANCH   1  19
TORSDOF 8
