REMARK  Name = ZINC48024878
REMARK  10 active torsions:
REMARK  status: ('A' for Active; 'I' for Inactive)
REMARK    1  A    between atoms: C_1  and  C_2
REMARK    2  A    between atoms: C_2  and  C_3
REMARK    3  A    between atoms: C_2  and  C_4
REMARK    4  A    between atoms: C_4  and  N_5
REMARK    5  A    between atoms: C_9  and  C_12
REMARK    6  A    between atoms: C_12  and  N_13
REMARK    7  A    between atoms: C_14  and  C_16
REMARK    8  A    between atoms: C_16  and  N_17
REMARK    9  A    between atoms: C_20  and  C_23
REMARK   10  A    between atoms: C_23  and  C_24
REMARK                            x       y       z     vdW  Elec       q    Type
REMARK                         _______ _______ _______ _____ _____    ______ ____
ROOT
ATOM      1  N   UNL     1       0.062  -0.199   7.241  0.00  0.00    -0.314 N 
ATOM      2  C   UNL     1       0.548  -0.499   8.461  0.00  0.00    +0.197 C 
ATOM      3  O   UNL     1       1.627  -1.042   8.568  0.00  0.00    -0.278 OA
ATOM      4  H   UNL     1      -0.801   0.235   7.156  0.00  0.00    +0.149 HD
ENDROOT
BRANCH   1   5
ATOM      5  C   UNL     1       0.838  -0.527   6.042  0.00  0.00    +0.137 C 
BRANCH   5  10
ATOM      6  N   UNL     1       0.113  -0.036   2.351  0.00  0.00    -0.297 NA
ATOM      7  C   UNL     1       0.009   1.430   2.380  0.00  0.00    +0.112 C 
ATOM      8  C   UNL     1      -0.735   1.859   3.647  0.00  0.00    +0.175 C 
ATOM      9  O   UNL     1      -0.052   1.342   4.793  0.00  0.00    -0.372 OA
ATOM     10  C   UNL     1       0.066  -0.083   4.798  0.00  0.00    +0.149 C 
ATOM     11  C   UNL     1       0.818  -0.531   3.542  0.00  0.00    +0.117 C 
BRANCH   6  12
ATOM     12  C   UNL     1       0.771  -0.493   1.120  0.00  0.00    +0.087 C 
BRANCH  12  14
ATOM     13  C   UNL     1      -1.056  -2.121   0.616  0.00  0.00    +0.008 C 
ATOM     14  C   UNL     1       0.443  -1.969   0.884  0.00  0.00    -0.003 C 
ATOM     15  C   UNL     1       1.231  -2.480  -0.324  0.00  0.00    +0.008 C 
ENDBRANCH  12  14
ENDBRANCH   6  12
ENDBRANCH   5  10
ENDBRANCH   1   5
BRANCH   2  16
ATOM     16  C   UNL     1      -0.250  -0.162   9.694  0.00  0.00    +0.019 C 
BRANCH  16  17
ATOM     17  N   UNL     1       0.490  -0.588  10.889  0.00  0.00    +0.385 N 
ATOM     18  C   UNL     1       0.619  -2.050  10.888  0.00  0.00    -0.078 C 
ATOM     19  C   UNL     1       1.459  -2.494  12.087  0.00  0.00    -0.015 C 
ATOM     20  C   UNL     1       0.773  -2.041  13.379  0.00  0.00    -0.006 C 
ATOM     21  C   UNL     1       0.577  -0.523  13.337  0.00  0.00    -0.015 C 
ATOM     22  C   UNL     1      -0.230  -0.153  12.091  0.00  0.00    -0.078 C 
ATOM     23  H   UNL     1       1.410  -0.172  10.880  0.00  0.00    -0.081 HD
BRANCH  20  24
ATOM     24  C   UNL     1       1.647  -2.411  14.579  0.00  0.00    +0.099 C 
BRANCH  24  25
ATOM     25  C   UNL     1       0.916  -2.077  15.854  0.00  0.00    +0.211 C 
ATOM     26  O   UNL     1      -0.194  -1.591  15.808  0.00  0.00    -0.276 OA
ATOM     27  N   UNL     1       1.497  -2.318  17.047  0.00  0.00    -0.329 N 
ATOM     28  H   UNL     1       2.385  -2.708  17.084  0.00  0.00    +0.145 HD
ATOM     29  H   UNL     1       1.027  -2.103  17.867  0.00  0.00    +0.145 HD
ENDBRANCH  24  25
ENDBRANCH  20  24
ENDBRANCH  16  17
ENDBRANCH   2  16
TORSDOF 8
