REMARK  Name = ZINC63529320
REMARK  5 active torsions:
REMARK  status: ('A' for Active; 'I' for Inactive)
REMARK    1  A    between atoms: C_1  and  O_2
REMARK    2  A    between atoms: O_2  and  C_3
REMARK    3  A    between atoms: C_10  and  C_27
REMARK    4  A    between atoms: N_20  and  C_21
REMARK    5  A    between atoms: C_30  and  N_33
REMARK                            x       y       z     vdW  Elec       q    Type
REMARK                         _______ _______ _______ _____ _____    ______ ____
ROOT
ATOM      1  C   UNL     1       0.217  -2.177  -0.715  0.00  0.00    +0.121 A 
ATOM      2  C   UNL     1      -0.043  -1.242   0.302  0.00  0.00    +0.047 A 
ATOM      3  C   UNL     1       0.150  -1.520   1.609  0.00  0.00    +0.029 A 
ATOM      4  C   UNL     1       0.648  -2.839   2.009  0.00  0.00    +0.043 A 
ATOM      5  N   UNL     1       0.935  -3.348   3.184  0.00  0.00    -0.375 N 
ATOM      6  C   UNL     1       1.327  -4.743   3.003  0.00  0.00    +0.131 C 
ATOM      7  C   UNL     1       2.727  -5.021   3.563  0.00  0.00    +0.134 C 
ATOM      8  N   UNL     1       3.196  -6.294   2.994  0.00  0.00    -0.276 N 
ATOM      9  C   UNL     1       3.333  -6.457   1.542  0.00  0.00    +0.114 C 
ATOM     10  C   UNL     1       1.972  -6.197   0.870  0.00  0.00    +0.052 C 
ATOM     11  C   UNL     1       1.384  -4.954   1.499  0.00  0.00    -0.035 C 
ATOM     12  C   UNL     1       0.930  -3.826   0.936  0.00  0.00    +0.003 A 
ATOM     13  C   UNL     1       0.677  -3.423  -0.453  0.00  0.00    +0.055 A 
ATOM     14  C   UNL     1       3.505  -7.318   3.813  0.00  0.00    +0.307 C 
ATOM     15  O   UNL     1       3.347  -7.206   5.013  0.00  0.00    -0.252 OA
ATOM     16  N   UNL     1       3.988  -8.468   3.302  0.00  0.00    -0.269 N 
ATOM     17  H   UNL     1       4.112  -8.559   2.344  0.00  0.00    +0.156 HD
ATOM     18  H   UNL     1       0.893  -2.876   4.031  0.00  0.00    +0.160 HD
ENDROOT
BRANCH  16  19
ATOM     19  C   UNL     1       4.312  -9.530   4.153  0.00  0.00    +0.035 A 
ATOM     20  C   UNL     1       4.669  -9.281   5.472  0.00  0.00    +0.023 A 
ATOM     21  C   UNL     1       4.988 -10.332   6.309  0.00  0.00    +0.002 A 
ATOM     22  C   UNL     1       4.953 -11.631   5.836  0.00  0.00    +0.000 A 
ATOM     23  C   UNL     1       4.599 -11.882   4.523  0.00  0.00    +0.002 A 
ATOM     24  C   UNL     1       4.273 -10.836   3.682  0.00  0.00    +0.023 A 
ENDBRANCH  16  19
BRANCH   7  25
ATOM     25  C   UNL     1       3.663  -3.908   3.170  0.00  0.00    -0.025 A 
ATOM     26  C   UNL     1       3.778  -3.538   1.843  0.00  0.00    +0.008 A 
ATOM     27  C   UNL     1       4.637  -2.517   1.482  0.00  0.00    +0.033 A 
ATOM     28  C   UNL     1       5.382  -1.866   2.448  0.00  0.00    +0.126 A 
ATOM     29  C   UNL     1       5.267  -2.236   3.775  0.00  0.00    +0.033 A 
ATOM     30  C   UNL     1       4.404  -3.254   4.136  0.00  0.00    +0.008 A 
BRANCH  28  31
ATOM     31  N   UNL     1       6.303  -0.774   2.062  0.00  0.00    +0.056 N 
ATOM     32  O   UNL     1       6.404  -0.450   0.901  0.00  0.00    -0.126 OA
ATOM     33  O   UNL     1       6.954  -0.205   2.906  0.00  0.00    -0.126 OA
ENDBRANCH  28  31
ENDBRANCH   7  25
BRANCH   1  35
ATOM     34  C   UNL     1      -0.492  -0.495  -2.239  0.00  0.00    +0.277 C 
ATOM     35  O   UNL     1      -0.007  -1.819  -2.007  0.00  0.00    -0.495 OA
ENDBRANCH   1  35
TORSDOF 4
