REMARK  Name = ZINC37444265
REMARK  5 active torsions:
REMARK  status: ('A' for Active; 'I' for Inactive)
REMARK    1  A    between atoms: C_1  and  C_2
REMARK    2  A    between atoms: C_2  and  C_3
REMARK    3  A    between atoms: C_2  and  N_4
REMARK    4  A    between atoms: C_13  and  C_14
REMARK    5  A    between atoms: C_19  and  N_20
REMARK                            x       y       z     vdW  Elec       q    Type
REMARK                         _______ _______ _______ _____ _____    ______ ____
ROOT
ATOM      1  N   UNL     1      -1.507  -0.174   0.137  0.00  0.00    -0.320 N 
ATOM      2  C   UNL     1      -2.291   0.296   1.174  0.00  0.00    +0.088 A 
ATOM      3  C   UNL     1      -3.509  -0.401   1.092  0.00  0.00    +0.091 A 
ATOM      4  C   UNL     1      -4.517  -0.136   2.024  0.00  0.00    +0.030 A 
ATOM      5  C   UNL     1      -4.309   0.802   3.009  0.00  0.00    +0.004 A 
ATOM      6  C   UNL     1      -3.105   1.488   3.086  0.00  0.00    +0.022 A 
ATOM      7  C   UNL     1      -2.099   1.240   2.174  0.00  0.00    +0.067 A 
ATOM      8 CL   UNL     1      -0.597   2.104   2.279  0.00  0.00    -0.081 Cl
ATOM      9  N   UNL     1      -3.417  -1.246   0.035  0.00  0.00    -0.227 NA
ATOM     10  C   UNL     1      -2.243  -1.113  -0.534  0.00  0.00    +0.144 A 
ENDROOT
BRANCH  10  11
ATOM     11  C   UNL     1      -1.784  -1.865  -1.719  0.00  0.00    +0.041 A 
ATOM     12  C   UNL     1      -0.536  -2.491  -1.712  0.00  0.00    +0.051 A 
ATOM     13  C   UNL     1      -0.112  -3.193  -2.823  0.00  0.00    +0.124 A 
ATOM     14  C   UNL     1      -0.921  -3.279  -3.946  0.00  0.00    +0.040 A 
ATOM     15  C   UNL     1      -2.157  -2.665  -3.965  0.00  0.00    +0.026 A 
ATOM     16  C   UNL     1      -2.601  -1.961  -2.854  0.00  0.00    +0.035 A 
ATOM     17  F   UNL     1       1.097  -3.797  -2.816  0.00  0.00    -0.205 F 
BRANCH  16  18
ATOM     18  N   UNL     1      -3.851  -1.345  -2.869  0.00  0.00    -0.357 N 
ATOM     19  H   UNL     1      -4.122  -0.780  -2.129  0.00  0.00    +0.142 HD
ATOM     20  H   UNL     1      -4.450  -1.483  -3.620  0.00  0.00    +0.142 HD
ENDBRANCH  16  18
ENDBRANCH  10  11
BRANCH   1  22
ATOM     21  C   UNL     1      -0.139   1.761  -0.468  0.00  0.00    +0.030 C 
ATOM     22  C   UNL     1      -0.145   0.257  -0.187  0.00  0.00    +0.083 C 
ATOM     23  C   UNL     1       0.780  -0.045   0.994  0.00  0.00    +0.030 C 
ENDBRANCH   1  22
TORSDOF 3
