REMARK  Name = ZINC39881623
REMARK  11 active torsions:
REMARK  status: ('A' for Active; 'I' for Inactive)
REMARK    1  A    between atoms: C_1  and  O_2
REMARK    2  A    between atoms: O_2  and  C_3
REMARK    3  A    between atoms: N_13  and  C_16
REMARK    4  A    between atoms: C_19  and  C_22
REMARK    5  A    between atoms: N_24  and  C_25
REMARK    6  A    between atoms: C_25  and  C_26
REMARK    7  A    between atoms: C_26  and  C_27
REMARK    8  A    between atoms: C_30  and  O_35
REMARK    9  A    between atoms: C_31  and  O_33
REMARK   10  A    between atoms: O_33  and  C_34
REMARK   11  A    between atoms: O_35  and  C_36
REMARK                            x       y       z     vdW  Elec       q    Type
REMARK                         _______ _______ _______ _____ _____    ______ ____
ROOT
ATOM      1  C   UNL     1       1.581  -6.909  -2.709  0.00  0.00    +0.035 A 
ATOM      2  C   UNL     1       1.001  -6.571  -1.490  0.00  0.00    +0.024 A 
ATOM      3  C   UNL     1       0.532  -7.557  -0.653  0.00  0.00    +0.015 A 
ATOM      4  C   UNL     1       0.638  -8.899  -1.028  0.00  0.00    +0.037 A 
ATOM      5  C   UNL     1       1.221  -9.236  -2.253  0.00  0.00    +0.015 A 
ATOM      6  C   UNL     1       1.683  -8.245  -3.088  0.00  0.00    +0.024 A 
ENDROOT
BRANCH   1  17
ATOM      7  C   UNL     1       6.779  -3.331  -0.816  0.00  0.00    +0.122 A 
ATOM      8  C   UNL     1       7.041  -2.413  -1.837  0.00  0.00    +0.046 A 
ATOM      9  C   UNL     1       6.272  -2.383  -2.960  0.00  0.00    +0.013 A 
ATOM     10  C   UNL     1       5.205  -3.283  -3.099  0.00  0.00    -0.001 A 
ATOM     11  C   UNL     1       4.389  -3.281  -4.248  0.00  0.00    +0.017 A 
ATOM     12  C   UNL     1       3.369  -4.181  -4.321  0.00  0.00    -0.007 A 
ATOM     13  C   UNL     1       3.139  -5.085  -3.277  0.00  0.00    +0.107 A 
ATOM     14  N   UNL     1       3.915  -5.076  -2.201  0.00  0.00    -0.342 N 
ATOM     15  C   UNL     1       4.931  -4.219  -2.070  0.00  0.00    +0.051 A 
ATOM     16  C   UNL     1       5.743  -4.231  -0.925  0.00  0.00    +0.071 A 
ATOM     17  N   UNL     1       2.055  -5.910  -3.554  0.00  0.00    -0.286 N 
ATOM     18  C   UNL     1       1.482  -5.578  -4.860  0.00  0.00    +0.117 C 
ATOM     19  C   UNL     1       2.340  -4.423  -5.401  0.00  0.00    +0.058 C 
ATOM     20  H   UNL     1       3.740  -5.710  -1.488  0.00  0.00    +0.167 HD
BRANCH   7  22
ATOM     21  C   UNL     1       8.621  -2.383   0.350  0.00  0.00    +0.277 C 
ATOM     22  O   UNL     1       7.561  -3.340   0.295  0.00  0.00    -0.495 OA
ENDBRANCH   7  22
ENDBRANCH   1  17
BRANCH   4  23
ATOM     23  C   UNL     1       0.136  -9.959  -0.132  0.00  0.00    +0.244 C 
ATOM     24  O   UNL     1      -0.371  -9.665   0.934  0.00  0.00    -0.270 OA
ATOM     25  N   UNL     1       0.239 -11.253  -0.495  0.00  0.00    -0.311 N 
ATOM     26  H   UNL     1       0.643 -11.487  -1.345  0.00  0.00    +0.149 HD
BRANCH  25  27
ATOM     27  C   UNL     1      -0.259 -12.305   0.395  0.00  0.00    +0.109 C 
BRANCH  27  28
ATOM     28  C   UNL     1      -0.022 -13.672  -0.250  0.00  0.00    +0.054 C 
BRANCH  28  29
ATOM     29  C   UNL     1      -0.535 -14.754   0.665  0.00  0.00    -0.042 A 
ATOM     30  C   UNL     1       0.303 -15.308   1.615  0.00  0.00    +0.007 A 
ATOM     31  C   UNL     1      -0.162 -16.301   2.457  0.00  0.00    +0.049 A 
ATOM     32  C   UNL     1      -1.471 -16.743   2.350  0.00  0.00    +0.161 A 
ATOM     33  C   UNL     1      -2.314 -16.186   1.393  0.00  0.00    +0.162 A 
ATOM     34  C   UNL     1      -1.843 -15.187   0.556  0.00  0.00    +0.053 A 
BRANCH  33  35
ATOM     35  O   UNL     1      -3.600 -16.616   1.284  0.00  0.00    -0.491 OA
ATOM     36  C   UNL     1      -4.408 -15.998   0.280  0.00  0.00    +0.277 C 
ENDBRANCH  33  35
BRANCH  32  37
ATOM     37  O   UNL     1      -1.931 -17.720   3.176  0.00  0.00    -0.491 OA
ATOM     38  C   UNL     1      -1.009 -18.247   4.133  0.00  0.00    +0.277 C 
ENDBRANCH  32  37
ENDBRANCH  28  29
ENDBRANCH  27  28
ENDBRANCH  25  27
ENDBRANCH   4  23
TORSDOF 8
