REMARK  Name = ZINC19798563
REMARK  16 active torsions:
REMARK  status: ('A' for Active; 'I' for Inactive)
REMARK    1  A    between atoms: C_1  and  C_2
REMARK    2  A    between atoms: C_2  and  C_41
REMARK    3  A    between atoms: C_8  and  C_40
REMARK    4  A    between atoms: C_10  and  O_39
REMARK    5  A    between atoms: C_13  and  C_27
REMARK    6  A    between atoms: C_17  and  C_26
REMARK    7  A    between atoms: C_21  and  O_25
REMARK    8  A    between atoms: C_27  and  C_28
REMARK    9  A    between atoms: C_27  and  C_29
REMARK   10  A    between atoms: C_27  and  C_30
REMARK   11  A    between atoms: C_30  and  C_32
REMARK   12  A    between atoms: C_30  and  O_38
REMARK   13  A    between atoms: C_33  and  C_34
REMARK   14  A    between atoms: C_34  and  C_35
REMARK   15  A    between atoms: C_34  and  C_36
REMARK   16  A    between atoms: C_34  and  C_37
REMARK                            x       y       z     vdW  Elec       q    Type
REMARK                         _______ _______ _______ _____ _____    ______ ____
ROOT
ATOM      1  C   UNL     1      -5.998   4.445  -0.840  0.00  0.00    +0.023 C 
ATOM      2  C   UNL     1      -5.124   3.743  -1.881  0.00  0.00    +0.047 C 
ATOM      3  C   UNL     1      -3.664   4.140  -1.703  0.00  0.00    -0.057 C 
ATOM      4  C   UNL     1      -3.220   5.248  -2.204  0.00  0.00    -0.026 C 
ATOM      5  C   UNL     1      -1.773   5.673  -2.143  0.00  0.00    +0.032 C 
ATOM      6  C   UNL     1      -0.928   4.427  -1.864  0.00  0.00    +0.013 C 
ATOM      7  C   UNL     1       0.546   4.700  -1.829  0.00  0.00    -0.019 C 
ATOM      8  C   UNL     1       1.170   5.057  -3.199  0.00  0.00    +0.039 C 
ATOM      9  C   UNL     1       2.672   4.718  -3.014  0.00  0.00    +0.116 C 
ATOM     10  C   UNL     1       2.773   3.816  -1.758  0.00  0.00    +0.039 C 
ATOM     11  C   UNL     1       1.322   3.401  -1.494  0.00  0.00    -0.007 C 
ATOM     12  C   UNL     1       0.986   2.971  -0.082  0.00  0.00    +0.083 C 
ATOM     13  C   UNL     1      -0.515   2.712  -0.066  0.00  0.00    +0.141 C 
ATOM     14  O   UNL     1      -0.936   1.674   0.384  0.00  0.00    -0.297 OA
ATOM     15  C   UNL     1      -1.459   3.760  -0.591  0.00  0.00    +0.036 C 
ATOM     16  C   UNL     1      -2.814   3.146  -0.946  0.00  0.00    +0.032 C 
ATOM     17  C   UNL     1      -2.684   1.858  -1.741  0.00  0.00    +0.048 C 
ATOM     18  C   UNL     1      -4.045   1.421  -2.288  0.00  0.00    +0.182 C 
ATOM     19  C   UNL     1      -5.151   2.237  -1.662  0.00  0.00    +0.171 C 
ATOM     20  O   UNL     1      -6.026   1.715  -1.013  0.00  0.00    -0.294 OA
ATOM     21  C   UNL     1      -1.713   4.776   0.531  0.00  0.00    +0.020 C 
ATOM     22  C   UNL     1       0.909   5.826  -0.854  0.00  0.00    +0.012 C 
ATOM     23  C   UNL     1      -5.615   4.069  -3.293  0.00  0.00    +0.023 C 
ENDROOT
BRANCH  11  24
ATOM     24  C   UNL     1       0.963   2.272  -2.468  0.00  0.00    +0.001 C 
ATOM     25  C   UNL     1      -0.441   1.752  -2.151  0.00  0.00    +0.014 C 
ATOM     26  C   UNL     1       0.997   2.805  -3.902  0.00  0.00    +0.014 C 
BRANCH  24  27
ATOM     27  C   UNL     1       1.974   1.132  -2.323  0.00  0.00    +0.143 C 
BRANCH  27  28
ATOM     28  C   UNL     1       1.419  -0.115  -2.962  0.00  0.00    +0.001 C 
ATOM     29  C   UNL     1       2.107  -0.739  -3.886  0.00  0.00    -0.023 C 
BRANCH  29  30
ATOM     30  C   UNL     1       1.553  -1.987  -4.524  0.00  0.00    -0.020 C 
ATOM     31  C   UNL     1       0.184  -2.305  -3.918  0.00  0.00    +0.015 C 
ATOM     32  C   UNL     1       1.405  -1.766  -6.031  0.00  0.00    +0.015 C 
ATOM     33  C   UNL     1       2.506  -3.156  -4.271  0.00  0.00    +0.015 C 
ENDBRANCH  29  30
ENDBRANCH  27  28
BRANCH  27  34
ATOM     34  O   UNL     1       3.196   1.495  -2.969  0.00  0.00    -0.387 OA
ATOM     35  H   UNL     1       4.046   0.796  -2.970  0.00  0.00    +0.210 HD
ENDBRANCH  27  34
ENDBRANCH  24  27
ENDBRANCH  11  24
BRANCH  18  36
ATOM     36  O   UNL     1      -4.247   0.040  -1.984  0.00  0.00    -0.384 OA
ATOM     37  H   UNL     1      -5.175  -0.462  -2.298  0.00  0.00    +0.210 HD
ENDBRANCH  18  36
BRANCH   9  38
ATOM     38  O   UNL     1       3.435   5.910  -2.830  0.00  0.00    -0.392 OA
ATOM     39  H   UNL     1       4.524   5.850  -2.685  0.00  0.00    +0.210 HD
ENDBRANCH   9  38
TORSDOF 7
