REMARK  Name = ZINC65297713
REMARK  5 active torsions:
REMARK  status: ('A' for Active; 'I' for Inactive)
REMARK    1  A    between atoms: C_1  and  C_2
REMARK    2  A    between atoms: C_7  and  N_8
REMARK    3  A    between atoms: C_14  and  C_16
REMARK    4  A    between atoms: C_17  and  C_32
REMARK    5  A    between atoms: N_23  and  C_26
REMARK                            x       y       z     vdW  Elec       q    Type
REMARK                         _______ _______ _______ _____ _____    ______ ____
ROOT
ATOM      1  C   UNL     1       1.332   1.211   6.939  0.00  0.00    +0.073 A 
ATOM      2  C   UNL     1       1.921   2.422   6.664  0.00  0.00    +0.002 A 
ATOM      3  S   UNL     1       3.329   2.439   7.577  0.00  0.00    -0.086 S 
ATOM      4  C   UNL     1       3.210   0.858   8.361  0.00  0.00    +0.103 A 
ATOM      5  C   UNL     1       2.011   0.324   7.874  0.00  0.00    +0.097 A 
ATOM      6  N   UNL     1       1.660  -0.910   8.325  0.00  0.00    -0.236 NA
ATOM      7  C   UNL     1       2.396  -1.565   9.169  0.00  0.00    +0.203 A 
ATOM      8  N   UNL     1       3.561  -1.077   9.666  0.00  0.00    -0.295 N 
ATOM      9  C   UNL     1       3.998   0.141   9.267  0.00  0.00    +0.269 A 
ATOM     10  O   UNL     1       5.041   0.606   9.697  0.00  0.00    -0.266 OA
ATOM     11  C   UNL     1       1.413   3.501   5.743  0.00  0.00    +0.052 C 
ENDROOT
BRANCH   1  18
ATOM     12  N   UNL     1       0.026  -0.016   2.415  0.00  0.00    -0.327 N 
ATOM     13  C   UNL     1      -1.238   0.332   3.081  0.00  0.00    +0.124 C 
ATOM     14  C   UNL     1      -1.211  -0.231   4.507  0.00  0.00    +0.127 C 
ATOM     15  N   UNL     1       0.055   0.160   5.143  0.00  0.00    -0.294 N 
ATOM     16  C   UNL     1       1.319  -0.187   4.477  0.00  0.00    +0.127 C 
ATOM     17  C   UNL     1       1.292   0.371   3.053  0.00  0.00    +0.124 C 
ATOM     18  C   UNL     1       0.058   0.826   6.315  0.00  0.00    +0.250 C 
ATOM     19  O   UNL     1      -0.994   1.108   6.856  0.00  0.00    -0.270 OA
BRANCH  12  26
ATOM     20  C   UNL     1      -0.018   1.503   0.010  0.00  0.00    +0.045 C 
ATOM     21  C   UNL     1       0.002  -0.004   0.002  0.00  0.00    -0.029 A 
ATOM     22  C   UNL     1       0.006  -0.689  -1.198  0.00  0.00    +0.006 A 
ATOM     23  C   UNL     1       0.024  -2.071  -1.207  0.00  0.00    +0.020 A 
ATOM     24  C   UNL     1       0.040  -2.774  -0.014  0.00  0.00    +0.043 A 
ATOM     25  C   UNL     1       0.035  -2.095   1.189  0.00  0.00    +0.043 A 
ATOM     26  C   UNL     1       0.023  -0.706   1.201  0.00  0.00    +0.034 A 
ATOM     27 CL   UNL     1       0.063  -4.509  -0.031  0.00  0.00    -0.083 Cl
ENDBRANCH  12  26
ENDBRANCH   1  18
BRANCH   8  28
ATOM     28  C   UNL     1       4.346  -1.868  10.618  0.00  0.00    +0.092 C 
ATOM     29  C   UNL     1       3.505  -2.146  11.865  0.00  0.00    +0.025 C 
ATOM     30  C   UNL     1       4.324  -2.972  12.859  0.00  0.00    +0.002 C 
ATOM     31  C   UNL     1       4.728  -4.297  12.210  0.00  0.00    +0.000 C 
ATOM     32  C   UNL     1       5.570  -4.019  10.963  0.00  0.00    +0.002 C 
ATOM     33  C   UNL     1       4.750  -3.193   9.969  0.00  0.00    +0.025 C 
ENDBRANCH   8  28
TORSDOF 3
