REMARK  Name = ZINC64084409
REMARK  8 active torsions:
REMARK  status: ('A' for Active; 'I' for Inactive)
REMARK    1  A    between atoms: C_1  and  C_2
REMARK    2  A    between atoms: C_2  and  C_3
REMARK    3  A    between atoms: C_3  and  C_5
REMARK    4  A    between atoms: C_3  and  N_8
REMARK    5  A    between atoms: C_5  and  O_6
REMARK    6  A    between atoms: O_6  and  C_7
REMARK    7  A    between atoms: C_11  and  C_34
REMARK    8  A    between atoms: C_12  and  C_18
REMARK                            x       y       z     vdW  Elec       q    Type
REMARK                         _______ _______ _______ _____ _____    ______ ____
ROOT
ATOM      1  N   UNL     1       4.176  -0.930  -3.355  0.00  0.00    -0.323 N 
ATOM      2  C   UNL     1       3.721   0.363  -3.195  0.00  0.00    +0.131 A 
ATOM      3  C   UNL     1       4.340   1.234  -2.248  0.00  0.00    +0.051 A 
ATOM      4  C   UNL     1       5.414   0.985  -1.384  0.00  0.00    -0.019 A 
ATOM      5  C   UNL     1       5.854   1.967  -0.550  0.00  0.00    +0.080 A 
ATOM      6  S   UNL     1       4.768   3.331  -0.933  0.00  0.00    -0.064 S 
ATOM      7  C   UNL     1       3.784   2.535  -2.177  0.00  0.00    +0.114 A 
ATOM      8  N   UNL     1       2.771   2.895  -2.938  0.00  0.00    -0.228 NA
ATOM      9  C   UNL     1       2.244   2.041  -3.795  0.00  0.00    +0.224 A 
ATOM     10  N   UNL     1       2.711   0.812  -3.920  0.00  0.00    -0.220 NA
ATOM     11  C   UNL     1       6.080  -0.367  -1.377  0.00  0.00    +0.046 C 
ATOM     12  H   UNL     1       4.942  -1.241  -2.848  0.00  0.00    +0.148 HD
ENDROOT
BRANCH   5  13
ATOM     13  C   UNL     1       6.952   1.917   0.424  0.00  0.00    +0.254 C 
ATOM     14  O   UNL     1       7.177   0.888   1.033  0.00  0.00    -0.269 OA
ATOM     15  N   UNL     1       7.709   3.010   0.643  0.00  0.00    -0.295 N 
ATOM     16  C   UNL     1       8.703   2.999   1.721  0.00  0.00    +0.112 C 
ATOM     17  C   UNL     1      10.096   3.296   1.137  0.00  0.00    +0.052 C 
ATOM     18  C   UNL     1       9.931   4.466   0.198  0.00  0.00    -0.036 C 
ATOM     19  C   UNL     1      10.577   5.622   0.114  0.00  0.00    -0.001 A 
ATOM     20  C   UNL     1      11.755   6.140   0.829  0.00  0.00    +0.010 A 
ATOM     21  C   UNL     1      12.148   7.400   0.503  0.00  0.00    +0.001 A 
ATOM     22  C   UNL     1      11.495   8.187  -0.451  0.00  0.00    +0.002 A 
ATOM     23  C   UNL     1      10.409   7.788  -1.161  0.00  0.00    +0.026 A 
ATOM     24  C   UNL     1       9.908   6.477  -0.913  0.00  0.00    +0.043 A 
ATOM     25  N   UNL     1       8.914   5.840  -1.457  0.00  0.00    -0.376 N 
ATOM     26  C   UNL     1       8.867   4.490  -0.893  0.00  0.00    +0.124 C 
ATOM     27  C   UNL     1       7.534   4.199  -0.206  0.00  0.00    +0.137 C 
ATOM     28  H   UNL     1       8.306   6.198  -2.123  0.00  0.00    +0.160 HD
ENDBRANCH   5  13
BRANCH   1  29
ATOM     29  C   UNL     1       3.500  -1.834  -4.289  0.00  0.00    +0.097 C 
BRANCH  29  31
ATOM     30  C   UNL     1       1.271  -1.429  -3.235  0.00  0.00    +0.006 C 
ATOM     31  C   UNL     1       2.310  -2.494  -3.590  0.00  0.00    +0.021 C 
ENDBRANCH  29  31
BRANCH  29  32
ATOM     32  C   UNL     1       4.480  -2.912  -4.755  0.00  0.00    +0.181 C 
BRANCH  32  33
ATOM     33  O   UNL     1       4.854  -3.728  -3.644  0.00  0.00    -0.381 OA
ATOM     34  C   UNL     1       5.773  -4.772  -3.973  0.00  0.00    +0.194 C 
ENDBRANCH  32  33
ENDBRANCH  29  32
ENDBRANCH   1  29
TORSDOF 5
