REMARK  Name = ZINC09738274
REMARK  6 active torsions:
REMARK  status: ('A' for Active; 'I' for Inactive)
REMARK    1  A    between atoms: C_3  and  S_6
REMARK    2  A    between atoms: S_6  and  N_9
REMARK    3  A    between atoms: N_9  and  C_10
REMARK    4  A    between atoms: C_13  and  C_16
REMARK    5  A    between atoms: N_18  and  N_19
REMARK    6  A    between atoms: C_28  and  O_29
REMARK                            x       y       z     vdW  Elec       q    Type
REMARK                         _______ _______ _______ _____ _____    ______ ____
ROOT
ATOM      1  C   UNL     1       9.703   3.790   2.772  0.00  0.00    +0.263 C 
ATOM      2  O   UNL     1      10.541   3.847   1.894  0.00  0.00    -0.268 OA
ATOM      3  N   UNL     1      10.029   4.114   4.039  0.00  0.00    -0.202 N 
ATOM      4  H   UNL     1       9.360   4.069   4.739  0.00  0.00    +0.178 HD
ENDROOT
BRANCH   3   5
ATOM      5  N   UNL     1      11.232   4.486   4.319  0.00  0.00    -0.174 NA
ATOM      6  C   UNL     1      11.579   4.699   5.568  0.00  0.00    +0.152 C 
ATOM      7  C   UNL     1      10.795   4.413   6.791  0.00  0.00    +0.035 A 
ATOM      8  C   UNL     1       9.540   3.872   7.026  0.00  0.00    +0.050 A 
ATOM      9  C   UNL     1       9.085   3.734   8.325  0.00  0.00    +0.124 A 
ATOM     10  C   UNL     1       9.880   4.137   9.389  0.00  0.00    +0.040 A 
ATOM     11  C   UNL     1      11.129   4.676   9.171  0.00  0.00    +0.031 A 
ATOM     12  C   UNL     1      11.609   4.824   7.865  0.00  0.00    +0.077 A 
ATOM     13  N   UNL     1      12.779   5.316   7.378  0.00  0.00    -0.211 NA
ATOM     14  C   UNL     1      12.841   5.273   6.073  0.00  0.00    +0.241 C 
ATOM     15  F   UNL     1       7.862   3.208   8.559  0.00  0.00    -0.205 F 
BRANCH  14  16
ATOM     16  O   UNL     1      13.884   5.688   5.314  0.00  0.00    -0.491 OA
ATOM     17  H   UNL     1      14.628   6.036   5.824  0.00  0.00    +0.294 HD
ENDBRANCH  14  16
ENDBRANCH   3   5
BRANCH   1  21
ATOM     18  C   UNL     1       5.748   2.568   1.849  0.00  0.00    +0.074 A 
ATOM     19  C   UNL     1       6.708   2.633   0.842  0.00  0.00    +0.027 A 
ATOM     20  C   UNL     1       7.987   3.028   1.137  0.00  0.00    +0.015 A 
ATOM     21  C   UNL     1       8.328   3.365   2.451  0.00  0.00    +0.038 A 
ATOM     22  C   UNL     1       7.362   3.298   3.460  0.00  0.00    +0.015 A 
ATOM     23  C   UNL     1       6.083   2.908   3.157  0.00  0.00    +0.027 A 
BRANCH  18  24
ATOM     24  N   UNL     1       4.452   2.167   1.546  0.00  0.00    -0.097 NA
BRANCH  24  25
ATOM     25  S   UNL     1       4.052   1.762  -0.009  0.00  0.00    +0.098 S 
ATOM     26  O   UNL     1       4.783   0.584  -0.322  0.00  0.00    -0.148 OA
ATOM     27  O   UNL     1       4.158   2.952  -0.778  0.00  0.00    -0.148 OA
BRANCH  25  30
ATOM     28  C   UNL     1       0.004   1.518  -0.157  0.00  0.00    +0.010 A 
ATOM     29  C   UNL     1       1.259   2.095  -0.201  0.00  0.00    +0.037 A 
ATOM     30  C   UNL     1       2.349   1.312  -0.008  0.00  0.00    +0.148 A 
ATOM     31  S   UNL     1       1.610  -0.294   0.245  0.00  0.00    -0.077 S 
ATOM     32  C   UNL     1      -0.101   0.187   0.077  0.00  0.00    +0.047 A 
ENDBRANCH  25  30
ENDBRANCH  24  25
ENDBRANCH  18  24
ENDBRANCH   1  21
TORSDOF 6
