REMARK  Name = ZINC12654355
REMARK  8 active torsions:
REMARK  status: ('A' for Active; 'I' for Inactive)
REMARK    1  A    between atoms: C_1  and  C_2
REMARK    2  A    between atoms: C_7  and  C_35
REMARK    3  A    between atoms: C_18  and  C_20
REMARK    4  A    between atoms: C_20  and  N_66
REMARK    5  A    between atoms: C_25  and  O_34
REMARK    6  A    between atoms: C_26  and  O_32
REMARK    7  A    between atoms: C_29  and  C_31
REMARK    8  A    between atoms: O_32  and  C_33
REMARK                            x       y       z     vdW  Elec       q    Type
REMARK                         _______ _______ _______ _____ _____    ______ ____
ROOT
ATOM      1  C   UNL     1       1.400   0.679  -0.526  0.00  0.00    -0.063 C 
ENDROOT
BRANCH   1  16
ATOM      2  C   UNL     1       5.004   1.627   1.307  0.00  0.00    +0.012 C 
ATOM      3  C   UNL     1       4.437   0.817   2.474  0.00  0.00    +0.012 C 
ATOM      4  C   UNL     1       5.244   1.127   3.720  0.00  0.00    +0.007 C 
ATOM      5  C   UNL     1       4.849   2.479   4.307  0.00  0.00    +0.001 C 
ATOM      6  C   UNL     1       3.377   2.432   4.717  0.00  0.00    +0.011 C 
ATOM      7  C   UNL     1       2.507   2.296   3.465  0.00  0.00    -0.007 C 
ATOM      8  C   UNL     1       2.975   1.143   2.621  0.00  0.00    -0.064 C 
ATOM      9  C   UNL     1       2.123   0.411   1.958  0.00  0.00    -0.019 C 
ATOM     10  C   UNL     1       0.647   0.603   1.887  0.00  0.00    +0.064 C 
ATOM     11  C   UNL     1       0.179   1.828   2.690  0.00  0.00    +0.185 C 
ATOM     12  C   UNL     1       1.063   2.043   3.909  0.00  0.00    +0.056 C 
ATOM     13  O   UNL     1       0.296   2.943   1.761  0.00  0.00    -0.461 OA
ATOM     14  C   UNL     1       0.051   2.510   0.514  0.00  0.00    +0.309 C 
ATOM     15  O   UNL     1      -0.287   3.209  -0.412  0.00  0.00    -0.251 OA
ATOM     16  C   UNL     1       0.263   1.012   0.443  0.00  0.00    +0.092 C 
ATOM     17  C   UNL     1       2.573   3.591   2.653  0.00  0.00    +0.016 C 
ENDBRANCH   1  16
BRANCH   1  28
ATOM     18  C   UNL     1      -0.098   0.180  -2.365  0.00  0.00    -0.073 C 
ATOM     19  C   UNL     1      -0.712   0.818  -3.611  0.00  0.00    +0.017 C 
ATOM     20  C   UNL     1       0.372   1.163  -4.600  0.00  0.00    -0.044 A 
ATOM     21  C   UNL     1       0.009   1.419  -5.914  0.00  0.00    +0.053 A 
ATOM     22  C   UNL     1       0.969   1.748  -6.854  0.00  0.00    +0.159 A 
ATOM     23  C   UNL     1       2.306   1.822  -6.476  0.00  0.00    +0.161 A 
ATOM     24  C   UNL     1       2.664   1.564  -5.165  0.00  0.00    +0.051 A 
ATOM     25  C   UNL     1       1.697   1.233  -4.226  0.00  0.00    -0.054 A 
ATOM     26  C   UNL     1       2.139   0.958  -2.812  0.00  0.00    -0.040 C 
ATOM     27  C   UNL     1       3.193   1.989  -2.403  0.00  0.00    -0.008 C 
ATOM     28  N   UNL     1       0.991   1.061  -1.896  0.00  0.00    +0.385 N 
ATOM     29  H   UNL     1       0.656   2.032  -1.887  0.00  0.00    -0.081 HD
BRANCH  23  30
ATOM     30  O   UNL     1       3.258   2.147  -7.392  0.00  0.00    -0.491 OA
ATOM     31  C   UNL     1       4.609   2.204  -6.931  0.00  0.00    +0.277 C 
ENDBRANCH  23  30
BRANCH  22  32
ATOM     32  O   UNL     1       0.607   1.998  -8.141  0.00  0.00    -0.503 OA
ATOM     33  H   UNL     1       0.605   1.215  -8.709  0.00  0.00    +0.292 HD
ENDBRANCH  22  32
ENDBRANCH   1  28
TORSDOF 4
