REMARK  Name = ZINC13061240
REMARK  9 active torsions:
REMARK  status: ('A' for Active; 'I' for Inactive)
REMARK    1  A    between atoms: C_1  and  O_2
REMARK    2  A    between atoms: O_2  and  C_3
REMARK    3  A    between atoms: C_5  and  C_14
REMARK    4  A    between atoms: C_8  and  O_9
REMARK    5  A    between atoms: O_9  and  C_10
REMARK    6  A    between atoms: C_10  and  C_11
REMARK    7  A    between atoms: C_19  and  S_23
REMARK    8  A    between atoms: S_23  and  N_26
REMARK    9  A    between atoms: N_26  and  C_27
REMARK                            x       y       z     vdW  Elec       q    Type
REMARK                         _______ _______ _______ _____ _____    ______ ____
ROOT
ATOM      1  C   UNL     1      -4.857   0.229   0.038  0.00  0.00    +0.139 A 
ATOM      2  N   UNL     1      -4.928   1.538   0.035  0.00  0.00    -0.228 NA
ATOM      3  C   UNL     1      -6.228   1.923   0.047  0.00  0.00    +0.090 A 
ATOM      4  C   UNL     1      -6.860   3.171   0.050  0.00  0.00    +0.032 A 
ATOM      5  C   UNL     1      -8.224   3.243   0.064  0.00  0.00    +0.031 A 
ATOM      6  C   UNL     1      -8.994   2.088   0.075  0.00  0.00    +0.112 A 
ATOM      7  C   UNL     1      -8.393   0.847   0.073  0.00  0.00    +0.056 A 
ATOM      8  C   UNL     1      -7.008   0.753   0.058  0.00  0.00    +0.068 A 
ATOM      9  N   UNL     1      -6.119  -0.304   0.047  0.00  0.00    -0.338 N 
ATOM     10  H   UNL     1      -6.346  -1.247   0.048  0.00  0.00    +0.167 HD
ENDROOT
BRANCH   1  13
ATOM     11  C   UNL     1      -1.201  -0.638   0.010  0.00  0.00    +0.162 A 
ATOM     12  C   UNL     1      -2.371   0.099   0.019  0.00  0.00    +0.061 A 
ATOM     13  C   UNL     1      -3.604  -0.555   0.028  0.00  0.00    +0.021 A 
ATOM     14  C   UNL     1      -3.651  -1.950   0.027  0.00  0.00    +0.015 A 
ATOM     15  C   UNL     1      -2.481  -2.680   0.018  0.00  0.00    +0.050 A 
ATOM     16  C   UNL     1      -1.255  -2.030   0.003  0.00  0.00    +0.163 A 
BRANCH  11  18
ATOM     17  C   UNL     1      -0.017   1.425   0.010  0.00  0.00    +0.277 C 
ATOM     18  O   UNL     1       0.002  -0.004   0.002  0.00  0.00    -0.491 OA
ENDBRANCH  11  18
BRANCH  16  19
ATOM     19  O   UNL     1      -0.105  -2.753  -0.012  0.00  0.00    -0.477 OA
BRANCH  19  20
ATOM     20  C   UNL     1      -0.233  -4.176  -0.019  0.00  0.00    +0.354 C 
BRANCH  20  21
ATOM     21  C   UNL     1       1.137  -4.804  -0.036  0.00  0.00    +0.393 C 
ATOM     22  O   UNL     1       2.131  -4.099  -0.042  0.00  0.00    -0.243 OA
ATOM     23  O   UNL     1       1.251  -6.018  -0.043  0.00  0.00    -0.243 OA
ENDBRANCH  20  21
ENDBRANCH  19  20
ENDBRANCH  16  19
ENDBRANCH   1  13
BRANCH   6  24
ATOM     24  S   UNL     1     -10.752   2.209   0.093  0.00  0.00    +0.092 S 
ATOM     25  O   UNL     1     -11.236   0.997   0.653  0.00  0.00    -0.148 OA
ATOM     26  O   UNL     1     -11.066   3.481   0.644  0.00  0.00    -0.148 OA
BRANCH  24  27
ATOM     27  N   UNL     1     -11.257   2.238  -1.483  0.00  0.00    -0.098 NA
BRANCH  27  28
ATOM     28  C   UNL     1     -12.620   2.331  -1.779  0.00  0.00    +0.074 A 
ATOM     29  C   UNL     1     -13.551   2.404  -0.751  0.00  0.00    +0.028 A 
ATOM     30  C   UNL     1     -14.897   2.496  -1.046  0.00  0.00    +0.022 A 
ATOM     31  C   UNL     1     -15.318   2.514  -2.364  0.00  0.00    +0.041 A 
ATOM     32  C   UNL     1     -14.392   2.441  -3.390  0.00  0.00    +0.022 A 
ATOM     33  C   UNL     1     -13.045   2.355  -3.101  0.00  0.00    +0.028 A 
ATOM     34 CL   UNL     1     -17.011   2.629  -2.731  0.00  0.00    -0.084 Cl
ENDBRANCH  27  28
ENDBRANCH  24  27
ENDBRANCH   6  24
TORSDOF 8
