REMARK  Name = ZINC19848239
REMARK  3 active torsions:
REMARK  status: ('A' for Active; 'I' for Inactive)
REMARK    1  A    between atoms: C_3  and  N_8
REMARK    2  A    between atoms: C_12  and  N_16
REMARK    3  A    between atoms: N_19  and  C_22
REMARK                            x       y       z     vdW  Elec       q    Type
REMARK                         _______ _______ _______ _____ _____    ______ ____
ROOT
ATOM      1  N   UNL     1       6.658   2.563   1.259  0.00  0.00    -0.295 NA
ATOM      2  C   UNL     1       7.559   3.721   1.333  0.00  0.00    +0.066 C 
ATOM      3  C   UNL     1       8.321   3.688   2.659  0.00  0.00    -0.062 C 
ATOM      4  N   UNL     1       9.091   2.441   2.751  0.00  0.00    +0.385 N 
ATOM      5  C   UNL     1       8.175   1.293   2.702  0.00  0.00    -0.062 C 
ATOM      6  C   UNL     1       7.412   1.306   1.375  0.00  0.00    +0.066 C 
ATOM      7  H   UNL     1       9.738   2.387   1.980  0.00  0.00    -0.081 HD
ENDROOT
BRANCH   4   8
ATOM      8  C   UNL     1       9.836   2.417   4.017  0.00  0.00    -0.065 C 
ATOM      9  C   UNL     1       8.854   2.499   5.188  0.00  0.00    -0.009 C 
ATOM     10  C   UNL     1       9.630   2.475   6.507  0.00  0.00    -0.012 C 
ATOM     11  C   UNL     1      10.432   1.175   6.603  0.00  0.00    +0.007 C 
ATOM     12  C   UNL     1      11.413   1.094   5.432  0.00  0.00    -0.012 C 
ATOM     13  C   UNL     1      10.637   1.118   4.113  0.00  0.00    -0.009 C 
ATOM     14  C   UNL     1      12.369   2.288   5.483  0.00  0.00    +0.007 C 
ATOM     15  C   UNL     1      11.567   3.587   5.387  0.00  0.00    -0.012 C 
ATOM     16  C   UNL     1      10.585   3.669   6.558  0.00  0.00    +0.007 C 
ATOM     17  C   UNL     1      10.791   3.611   4.069  0.00  0.00    -0.009 C 
ENDBRANCH   4   8
BRANCH   1  22
ATOM     18  N   UNL     1       3.586   2.127  -0.021  0.00  0.00    -0.209 N 
ATOM     19  C   UNL     1       3.634   3.462  -0.107  0.00  0.00    +0.228 C 
ATOM     20  O   UNL     1       2.672   4.196  -0.186  0.00  0.00    -0.275 OA
ATOM     21  C   UNL     1       5.079   3.910  -0.090  0.00  0.00    +0.125 C 
ATOM     22  C   UNL     1       5.866   2.589   0.022  0.00  0.00    +0.153 C 
ATOM     23  C   UNL     1       4.783   1.533   0.062  0.00  0.00    +0.244 C 
ATOM     24  O   UNL     1       4.970   0.339   0.153  0.00  0.00    -0.273 OA
BRANCH  18  27
ATOM     25  C   UNL     1       0.794   0.029   1.138  0.00  0.00    +0.003 A 
ATOM     26  C   UNL     1       1.982   0.734   1.132  0.00  0.00    +0.024 A 
ATOM     27  C   UNL     1       2.381   1.410  -0.013  0.00  0.00    +0.045 A 
ATOM     28  C   UNL     1       1.585   1.375  -1.150  0.00  0.00    +0.044 A 
ATOM     29  C   UNL     1       0.398   0.667  -1.139  0.00  0.00    +0.043 A 
ATOM     30  C   UNL     1       0.003  -0.005   0.005  0.00  0.00    +0.020 A 
ATOM     31 CL   UNL     1      -0.599   0.623  -2.559  0.00  0.00    -0.083 Cl
ENDBRANCH  18  27
ENDBRANCH   1  22
TORSDOF 3
