REMARK  Name = ZINC47845700
REMARK  10 active torsions:
REMARK  status: ('A' for Active; 'I' for Inactive)
REMARK    1  A    between atoms: C_1  and  C_2
REMARK    2  A    between atoms: C_3  and  N_14
REMARK    3  A    between atoms: C_7  and  N_8
REMARK    4  A    between atoms: N_17  and  C_18
REMARK    5  A    between atoms: C_18  and  C_20
REMARK    6  A    between atoms: C_18  and  C_21
REMARK    7  A    between atoms: C_24  and  O_29
REMARK    8  A    between atoms: C_26  and  O_27
REMARK    9  A    between atoms: O_27  and  C_28
REMARK   10  A    between atoms: O_29  and  C_30
REMARK                            x       y       z     vdW  Elec       q    Type
REMARK                         _______ _______ _______ _____ _____    ______ ____
ROOT
ATOM      1  N   UNL     1      -0.010   0.011  -2.412  0.00  0.00    -0.269 N 
ATOM      2  C   UNL     1       0.095  -0.653  -3.580  0.00  0.00    +0.304 C 
ATOM      3  O   UNL     1       0.112  -1.869  -3.588  0.00  0.00    -0.252 OA
ATOM      4  N   UNL     1       0.182   0.030  -4.738  0.00  0.00    -0.292 N 
ATOM      5  H   UNL     1      -0.106   0.977  -2.410  0.00  0.00    +0.156 HD
ATOM      6  H   UNL     1       0.168   1.000  -4.732  0.00  0.00    +0.151 HD
ENDROOT
BRANCH   1   9
ATOM      7  C   UNL     1      -1.262   1.188  -0.145  0.00  0.00    +0.047 C 
ATOM      8  C   UNL     1      -0.580  -0.154  -0.072  0.00  0.00    -0.008 A 
ATOM      9  C   UNL     1       0.019  -0.692  -1.202  0.00  0.00    +0.039 A 
ATOM     10  C   UNL     1       0.647  -1.928  -1.131  0.00  0.00    +0.024 A 
ATOM     11  C   UNL     1       0.675  -2.623   0.062  0.00  0.00    +0.004 A 
ATOM     12  C   UNL     1       0.079  -2.091   1.189  0.00  0.00    +0.024 A 
ATOM     13  C   UNL     1      -0.545  -0.851   1.127  0.00  0.00    +0.041 A 
BRANCH  13  14
ATOM     14  N   UNL     1      -1.143  -0.309   2.270  0.00  0.00    -0.271 N 
ATOM     15  C   UNL     1      -2.538  -0.539   2.663  0.00  0.00    +0.114 C 
ATOM     16  C   UNL     1      -2.619  -0.133   4.151  0.00  0.00    +0.029 C 
ATOM     17  C   UNL     1      -1.456   0.879   4.266  0.00  0.00    +0.098 C 
ATOM     18  C   UNL     1      -0.511   0.484   3.153  0.00  0.00    +0.220 C 
ATOM     19  O   UNL     1       0.647   0.834   3.067  0.00  0.00    -0.275 OA
ENDBRANCH  13  14
ENDBRANCH   1   9
BRANCH   4  20
ATOM     20  C   UNL     1       0.296  -0.692  -6.008  0.00  0.00    +0.105 C 
ATOM     21  C   UNL     1       1.764  -1.033  -6.270  0.00  0.00    +0.033 C 
BRANCH  20  22
ATOM     22  C   UNL     1      -0.226   0.173  -7.127  0.00  0.00    +0.014 A 
ATOM     23  C   UNL     1      -0.219   1.549  -6.996  0.00  0.00    +0.012 A 
ATOM     24  C   UNL     1      -0.697   2.344  -8.020  0.00  0.00    +0.046 A 
ATOM     25  C   UNL     1      -1.185   1.763  -9.182  0.00  0.00    +0.124 A 
ATOM     26  C   UNL     1      -1.192   0.383  -9.315  0.00  0.00    +0.091 A 
ATOM     27  C   UNL     1      -0.707  -0.413  -8.289  0.00  0.00    +0.128 A 
BRANCH  27  28
ATOM     28  O   UNL     1      -0.708  -1.766  -8.418  0.00  0.00    -0.495 OA
ATOM     29  C   UNL     1      -1.218  -2.300  -9.642  0.00  0.00    +0.277 C 
ENDBRANCH  27  28
BRANCH  25  30
ATOM     30  O   UNL     1      -1.655   2.546 -10.188  0.00  0.00    -0.495 OA
ATOM     31  C   UNL     1      -1.617   3.959  -9.982  0.00  0.00    +0.277 C 
ENDBRANCH  25  30
ENDBRANCH  20  22
ENDBRANCH   4  20
TORSDOF 6
