REMARK  Name = ZINC00748089
REMARK  11 active torsions:
REMARK  status: ('A' for Active; 'I' for Inactive)
REMARK    1  A    between atoms: C_1  and  C_2
REMARK    2  A    between atoms: C_2  and  C_3
REMARK    3  A    between atoms: C_2  and  C_4
REMARK    4  A    between atoms: C_4  and  N_5
REMARK    5  A    between atoms: C_6  and  C_8
REMARK    6  A    between atoms: C_10  and  N_28
REMARK    7  A    between atoms: C_13  and  N_14
REMARK    8  A    between atoms: N_17  and  C_20
REMARK    9  A    between atoms: C_25  and  O_26
REMARK   10  A    between atoms: O_26  and  C_27
REMARK   11  A    between atoms: N_31  and  C_32
REMARK                            x       y       z     vdW  Elec       q    Type
REMARK                         _______ _______ _______ _____ _____    ______ ____
ROOT
ATOM      1  C   UNL     1      -5.003   4.918  -1.009  0.00  0.00    +0.059 A 
ATOM      2  C   UNL     1      -6.239   5.568  -0.975  0.00  0.00    +0.038 A 
ATOM      3  C   UNL     1      -6.506   6.489   0.022  0.00  0.00    +0.036 A 
ATOM      4  C   UNL     1      -5.550   6.764   0.995  0.00  0.00    +0.025 A 
ATOM      5  C   UNL     1      -4.329   6.123   0.973  0.00  0.00    +0.026 A 
ATOM      6  C   UNL     1      -4.046   5.196  -0.022  0.00  0.00    +0.042 A 
ENDROOT
BRANCH   6   7
ATOM      7  N   UNL     1      -2.814   4.550  -0.043  0.00  0.00    -0.326 N 
ATOM      8  C   UNL     1      -1.720   5.508  -0.253  0.00  0.00    +0.124 C 
ATOM      9  C   UNL     1      -0.394   4.751  -0.349  0.00  0.00    +0.124 C 
ATOM     10  N   UNL     1      -0.183   3.977   0.882  0.00  0.00    -0.324 N 
ATOM     11  C   UNL     1      -1.278   3.019   1.092  0.00  0.00    +0.124 C 
ATOM     12  C   UNL     1      -2.604   3.776   1.189  0.00  0.00    +0.124 C 
BRANCH  10  13
ATOM     13  C   UNL     1       1.056   3.327   0.861  0.00  0.00    +0.072 A 
ATOM     14  C   UNL     1       1.339   2.402  -0.133  0.00  0.00    +0.027 A 
ATOM     15  C   UNL     1       2.561   1.757  -0.149  0.00  0.00    +0.002 A 
ATOM     16  C   UNL     1       3.504   2.031   0.825  0.00  0.00    +0.004 A 
ATOM     17  C   UNL     1       3.229   2.952   1.819  0.00  0.00    +0.047 A 
ATOM     18  C   UNL     1       2.006   3.602   1.842  0.00  0.00    +0.141 A 
BRANCH  18  19
ATOM     19  O   UNL     1       1.734   4.508   2.820  0.00  0.00    -0.493 OA
ATOM     20  C   UNL     1       2.755   4.740   3.792  0.00  0.00    +0.277 C 
ENDBRANCH  18  19
ENDBRANCH  10  13
ENDBRANCH   6   7
BRANCH   3  21
ATOM     21  N   UNL     1      -7.744   7.146   0.054  0.00  0.00    -0.269 N 
ATOM     22  C   UNL     1      -8.271   7.535   1.232  0.00  0.00    +0.308 C 
ATOM     23  O   UNL     1      -7.719   7.235   2.273  0.00  0.00    -0.252 OA
ATOM     24  N   UNL     1      -9.409   8.256   1.256  0.00  0.00    -0.267 N 
ATOM     25  H   UNL     1      -8.222   7.321  -0.772  0.00  0.00    +0.156 HD
ATOM     26  H   UNL     1      -9.887   8.435   0.432  0.00  0.00    +0.156 HD
BRANCH  24  27
ATOM     27  C   UNL     1      -9.902   8.746   2.472  0.00  0.00    +0.070 A 
ATOM     28  C   UNL     1      -9.604   8.091   3.659  0.00  0.00    +0.026 A 
ATOM     29  C   UNL     1     -10.087   8.579   4.857  0.00  0.00    +0.002 A 
ATOM     30  C   UNL     1     -10.876   9.715   4.876  0.00  0.00    +0.003 A 
ATOM     31  C   UNL     1     -11.180  10.369   3.696  0.00  0.00    +0.040 A 
ATOM     32  C   UNL     1     -10.696   9.888   2.493  0.00  0.00    +0.145 A 
ATOM     33  F   UNL     1     -10.993  10.526   1.340  0.00  0.00    -0.204 F 
ENDBRANCH  24  27
ENDBRANCH   3  21
BRANCH   1  35
ATOM     34  N   UNL     1      -5.588   3.752  -3.077  0.00  0.00    -0.311 N 
ATOM     35  C   UNL     1      -4.709   3.940  -2.073  0.00  0.00    +0.246 C 
ATOM     36  O   UNL     1      -3.673   3.304  -2.044  0.00  0.00    -0.270 OA
ATOM     37  H   UNL     1      -6.414   4.260  -3.100  0.00  0.00    +0.149 HD
BRANCH  34  38
ATOM     38  C   UNL     1      -5.296   2.780  -4.134  0.00  0.00    +0.107 C 
BRANCH  38  40
ATOM     39  C   UNL     1      -6.087   1.841  -6.309  0.00  0.00    +0.009 C 
ATOM     40  C   UNL     1      -6.447   2.762  -5.142  0.00  0.00    -0.000 C 
ATOM     41  C   UNL     1      -7.715   2.247  -4.458  0.00  0.00    +0.009 C 
ENDBRANCH  38  40
ENDBRANCH  34  38
ENDBRANCH   1  35
TORSDOF 8
