REMARK  Name = ZINC21581705
REMARK  7 active torsions:
REMARK  status: ('A' for Active; 'I' for Inactive)
REMARK    1  A    between atoms: C_1  and  N_2
REMARK    2  A    between atoms: N_2  and  C_3
REMARK    3  A    between atoms: N_2  and  C_14
REMARK    4  A    between atoms: C_3  and  C_4
REMARK    5  A    between atoms: C_14  and  C_15
REMARK    6  A    between atoms: N_17  and  C_18
REMARK    7  A    between atoms: C_21  and  N_24
REMARK                            x       y       z     vdW  Elec       q    Type
REMARK                         _______ _______ _______ _____ _____    ______ ____
ROOT
ATOM      1  C   UNL     1       5.799  -1.997  -3.000  0.00  0.00    +0.201 C 
ATOM      2  O   UNL     1       5.382  -1.332  -3.925  0.00  0.00    -0.278 OA
ATOM      3  N   UNL     1       6.502  -3.121  -3.242  0.00  0.00    -0.287 N 
ATOM      4  H   UNL     1       6.954  -3.677  -2.408  0.00  0.00    +0.155 HD
ENDROOT
BRANCH   3   5
ATOM      5  C   UNL     1       6.656  -3.582  -4.556  0.00  0.00    +0.033 A 
ATOM      6  C   UNL     1       5.639  -3.393  -5.482  0.00  0.00    +0.025 A 
ATOM      7  C   UNL     1       5.793  -3.842  -6.779  0.00  0.00    +0.025 A 
ATOM      8  C   UNL     1       6.961  -4.493  -7.154  0.00  0.00    +0.030 A 
ATOM      9  C   UNL     1       7.976  -4.687  -6.226  0.00  0.00    +0.025 A 
ATOM     10  C   UNL     1       7.824  -4.233  -4.931  0.00  0.00    +0.025 A 
BRANCH   8  11
ATOM     11  N   UNL     1       7.115  -4.952  -8.466  0.00  0.00    -0.330 N 
ATOM     12  C   UNL     1       5.933  -4.613  -9.289  0.00  0.00    +0.105 C 
ATOM     13  C   UNL     1       5.928  -5.314 -10.620  0.00  0.00    +0.019 C 
ATOM     14  C   UNL     1       5.112  -6.617 -10.485  0.00  0.00    +0.002 C 
ATOM     15  C   UNL     1       5.875  -7.680  -9.838  0.00  0.00    +0.002 C 
ATOM     16  C   UNL     1       6.301  -7.301  -8.404  0.00  0.00    +0.019 C 
ATOM     17  C   UNL     1       7.491  -6.384  -8.486  0.00  0.00    +0.105 C 
ENDBRANCH   8  11
ENDBRANCH   3   5
BRANCH   1  18
ATOM     18  C   UNL     1       5.532  -1.566  -1.581  0.00  0.00    +0.019 C 
BRANCH  18  20
ATOM     19  C   UNL     1       5.537   0.788  -2.147  0.00  0.00    -0.095 C 
ATOM     20  N   UNL     1       4.753  -0.320  -1.586  0.00  0.00    +0.386 N 
ATOM     21  H   UNL     1       3.875  -0.473  -2.230  0.00  0.00    -0.081 HD
BRANCH  20  22
ATOM     22  C   UNL     1       4.272   0.005  -0.237  0.00  0.00    -0.043 C 
BRANCH  22  23
ATOM     23  C   UNL     1       3.283   1.139  -0.316  0.00  0.00    -0.060 A 
ATOM     24  C   UNL     1       1.937   0.870  -0.481  0.00  0.00    +0.005 A 
ATOM     25  C   UNL     1       1.027   1.908  -0.556  0.00  0.00    +0.049 A 
ATOM     26  C   UNL     1       1.462   3.221  -0.465  0.00  0.00    +0.162 A 
ATOM     27  C   UNL     1       2.814   3.491  -0.296  0.00  0.00    +0.162 A 
ATOM     28  C   UNL     1       3.723   2.446  -0.223  0.00  0.00    +0.051 A 
ATOM     29  O   UNL     1       3.262   4.773  -0.196  0.00  0.00    -0.485 OA
ATOM     30  C   UNL     1       2.374   5.802  -0.647  0.00  0.00    +0.270 C 
ATOM     31  C   UNL     1       0.978   5.517  -0.075  0.00  0.00    +0.270 C 
ATOM     32  O   UNL     1       0.555   4.233  -0.549  0.00  0.00    -0.485 OA
ENDBRANCH  22  23
ENDBRANCH  20  22
ENDBRANCH  18  20
ENDBRANCH   1  18
TORSDOF 6
