REMARK  Name = ZINC09328074
REMARK  3 active torsions:
REMARK  status: ('A' for Active; 'I' for Inactive)
REMARK    1  A    between atoms: C_1  and  C_2
REMARK    2  A    between atoms: N_23  and  C_26
REMARK    3  A    between atoms: C_30  and  N_32
REMARK                            x       y       z     vdW  Elec       q    Type
REMARK                         _______ _______ _______ _____ _____    ______ ____
ROOT
ATOM      1  C   UNL     1       0.601  -1.556  -0.990  0.00  0.00    +0.047 C 
ATOM      2  C   UNL     1       0.772  -0.080  -0.738  0.00  0.00    -0.011 A 
ATOM      3  C   UNL     1      -0.338   0.735  -0.641  0.00  0.00    +0.046 A 
ATOM      4  C   UNL     1      -0.190   2.091  -0.409  0.00  0.00    +0.020 A 
ATOM      5  C   UNL     1       1.077   2.632  -0.274  0.00  0.00    +0.006 A 
ATOM      6  C   UNL     1       2.186   1.823  -0.371  0.00  0.00    -0.027 A 
ATOM      7  C   UNL     1       2.050   0.457  -0.604  0.00  0.00    +0.040 A 
ATOM      8  N   UNL     1       3.306  -0.150  -0.662  0.00  0.00    -0.286 N 
ATOM      9  C   UNL     1       4.306   0.733  -0.479  0.00  0.00    +0.212 C 
ATOM     10  O   UNL     1       5.495   0.490  -0.479  0.00  0.00    -0.277 OA
ATOM     11  C   UNL     1       3.664   2.078  -0.275  0.00  0.00    +0.053 C 
ATOM     12  C   UNL     1       4.042   2.675   1.086  0.00  0.00    +0.089 C 
ATOM     13  C   UNL     1       4.163   4.201   0.826  0.00  0.00    +0.074 C 
ATOM     14  C   UNL     1       3.849   4.382  -0.671  0.00  0.00    -0.054 C 
ATOM     15  C   UNL     1       5.586   2.983  -1.431  0.00  0.00    -0.076 C 
ATOM     16  C   UNL     1       6.018   4.413  -1.813  0.00  0.00    -0.020 C 
ATOM     17  C   UNL     1       4.889   5.327  -1.299  0.00  0.00    -0.016 C 
ATOM     18  C   UNL     1       3.038   4.786   1.650  0.00  0.00    +0.228 C 
ATOM     19  O   UNL     1       2.768   5.965   1.730  0.00  0.00    -0.275 OA
ATOM     20  N   UNL     1       2.387   3.799   2.276  0.00  0.00    -0.210 N 
ATOM     21  C   UNL     1       2.867   2.574   2.032  0.00  0.00    +0.229 C 
ATOM     22  O   UNL     1       2.428   1.544   2.497  0.00  0.00    -0.275 OA
ATOM     23 CL   UNL     1      -1.927   0.056  -0.810  0.00  0.00    -0.083 Cl
ATOM     24  H   UNL     1       3.442  -1.098  -0.816  0.00  0.00    +0.155 HD
ATOM     25  N   UNL     1       4.128   3.084  -1.242  0.00  0.00    +0.395 N 
ATOM     26  H   UNL     1       3.645   2.966  -2.140  0.00  0.00    -0.079 HD
ENDROOT
BRANCH  20  27
ATOM     27  C   UNL     1       1.291   4.029   3.120  0.00  0.00    +0.046 A 
ATOM     28  C   UNL     1       0.101   4.517   2.598  0.00  0.00    +0.025 A 
ATOM     29  C   UNL     1      -0.979   4.738   3.430  0.00  0.00    +0.024 A 
ATOM     30  C   UNL     1      -0.872   4.484   4.786  0.00  0.00    +0.071 A 
ATOM     31  C   UNL     1       0.315   4.003   5.311  0.00  0.00    +0.146 A 
ATOM     32  C   UNL     1       1.396   3.775   4.481  0.00  0.00    +0.058 A 
ATOM     33 CL   UNL     1      -2.228   4.770   5.831  0.00  0.00    -0.081 Cl
BRANCH  31  34
ATOM     34  N   UNL     1       0.426   3.732   6.761  0.00  0.00    +0.058 N 
ATOM     35  O   UNL     1       1.471   3.308   7.223  0.00  0.00    -0.126 OA
ATOM     36  O   UNL     1      -0.526   3.933   7.493  0.00  0.00    -0.126 OA
ENDBRANCH  31  34
ENDBRANCH  20  27
TORSDOF 2
