REMARK  Name = ZINC63730271
REMARK  8 active torsions:
REMARK  status: ('A' for Active; 'I' for Inactive)
REMARK    1  A    between atoms: C_2  and  C_3
REMARK    2  A    between atoms: C_3  and  N_4
REMARK    3  A    between atoms: C_5  and  C_23
REMARK    4  A    between atoms: C_9  and  S_11
REMARK    5  A    between atoms: S_11  and  C_12
REMARK    6  A    between atoms: C_12  and  C_13
REMARK    7  A    between atoms: N_15  and  C_16
REMARK    8  A    between atoms: C_23  and  C_24
REMARK                            x       y       z     vdW  Elec       q    Type
REMARK                         _______ _______ _______ _____ _____    ______ ____
ROOT
ATOM      1  N   UNL     1       1.353  -1.673   1.100  0.00  0.00    -0.257 NA
ATOM      2  C   UNL     1       2.540  -2.547   1.000  0.00  0.00    +0.145 C 
ATOM      3  N   UNL     1       3.333  -2.324   2.231  0.00  0.00    -0.237 NA
ATOM      4  N   UNL     1       2.356  -1.823   3.211  0.00  0.00    -0.229 NA
ATOM      5  C   UNL     1       1.472  -0.954   2.390  0.00  0.00    +0.200 C 
ATOM      6  H   UNL     1       3.756  -3.182   2.550  0.00  0.00    +0.142 HD
ATOM      7  H   UNL     1       2.812  -1.290   3.937  0.00  0.00    +0.143 HD
ENDROOT
BRANCH   1   8
ATOM      8  C   UNL     1       1.298  -0.729  -0.025  0.00  0.00    +0.115 C 
BRANCH   8  10
ATOM      9  C   UNL     1      -0.030   1.319   0.015  0.00  0.00    +0.005 C 
ATOM     10  C   UNL     1      -0.015   0.009   0.003  0.00  0.00    -0.019 C 
ENDBRANCH   8  10
ENDBRANCH   1   8
BRANCH   5  11
ATOM     11  S   UNL     1      -0.155  -0.783   3.174  0.00  0.00    -0.116 S 
BRANCH  11  12
ATOM     12  C   UNL     1      -0.712  -2.494   3.407  0.00  0.00    +0.168 C 
BRANCH  12  13
ATOM     13  C   UNL     1      -2.071  -2.496   4.059  0.00  0.00    +0.227 C 
ATOM     14  O   UNL     1      -2.610  -1.446   4.338  0.00  0.00    -0.275 OA
ATOM     15  N   UNL     1      -2.686  -3.664   4.331  0.00  0.00    -0.285 N 
ATOM     16  H   UNL     1      -2.285  -4.500   4.047  0.00  0.00    +0.155 HD
BRANCH  15  17
ATOM     17  C   UNL     1      -3.903  -3.669   5.022  0.00  0.00    +0.033 A 
ATOM     18  C   UNL     1      -4.189  -4.690   5.919  0.00  0.00    +0.024 A 
ATOM     19  C   UNL     1      -5.390  -4.693   6.600  0.00  0.00    +0.017 A 
ATOM     20  C   UNL     1      -6.308  -3.679   6.391  0.00  0.00    +0.018 A 
ATOM     21  C   UNL     1      -6.025  -2.660   5.498  0.00  0.00    +0.017 A 
ATOM     22  C   UNL     1      -4.823  -2.650   4.818  0.00  0.00    +0.024 A 
ATOM     23 BR   UNL     1      -7.952  -3.686   7.325  0.00  0.00    -0.050 Br
ENDBRANCH  15  17
ENDBRANCH  12  13
ENDBRANCH  11  12
ENDBRANCH   5  11
BRANCH   2  24
ATOM     24  C   UNL     1       2.107  -4.012   0.913  0.00  0.00    +0.069 C 
BRANCH  24  25
ATOM     25  C   UNL     1       3.327  -4.891   0.812  0.00  0.00    -0.039 C 
ATOM     26  C   UNL     1       3.961  -5.521   1.827  0.00  0.00    -0.001 A 
ATOM     27  C   UNL     1       3.716  -5.573   3.273  0.00  0.00    +0.010 A 
ATOM     28  C   UNL     1       4.544  -6.305   4.053  0.00  0.00    +0.001 A 
ATOM     29  C   UNL     1       5.627  -7.014   3.516  0.00  0.00    +0.002 A 
ATOM     30  C   UNL     1       5.916  -7.015   2.197  0.00  0.00    +0.026 A 
ATOM     31  C   UNL     1       5.111  -6.279   1.284  0.00  0.00    +0.043 A 
ATOM     32  N   UNL     1       5.185  -6.124  -0.015  0.00  0.00    -0.380 N 
ATOM     33  C   UNL     1       4.085  -5.254  -0.445  0.00  0.00    +0.144 C 
ATOM     34  H   UNL     1       5.853  -6.521  -0.596  0.00  0.00    +0.160 HD
ENDBRANCH  24  25
ENDBRANCH   2  24
TORSDOF 8
