REMARK  Name = ZINC06271533
REMARK  7 active torsions:
REMARK  status: ('A' for Active; 'I' for Inactive)
REMARK    1  A    between atoms: C_1  and  C_2
REMARK    2  A    between atoms: C_2  and  C_3
REMARK    3  A    between atoms: N_10  and  N_11
REMARK    4  A    between atoms: C_12  and  C_13
REMARK    5  A    between atoms: C_17  and  O_19
REMARK    6  A    between atoms: O_19  and  S_20
REMARK    7  A    between atoms: S_20  and  C_23
REMARK                            x       y       z     vdW  Elec       q    Type
REMARK                         _______ _______ _______ _____ _____    ______ ____
ROOT
ATOM      1  C   UNL     1       3.918  -1.372  -3.418  0.00  0.00    -0.002 A 
ATOM      2  C   UNL     1       4.855  -2.409  -3.400  0.00  0.00    +0.010 A 
ATOM      3  C   UNL     1       4.566  -3.587  -2.743  0.00  0.00    +0.004 A 
ATOM      4  C   UNL     1       3.353  -3.746  -2.099  0.00  0.00    +0.048 A 
ATOM      5  C   UNL     1       2.415  -2.721  -2.111  0.00  0.00    +0.157 A 
ATOM      6  C   UNL     1       2.691  -1.537  -2.773  0.00  0.00    +0.058 A 
ENDROOT
BRANCH   1   8
ATOM      7  N   UNL     1       5.362   0.037  -4.722  0.00  0.00    -0.188 NA
ATOM      8  C   UNL     1       4.222  -0.111  -4.119  0.00  0.00    +0.138 C 
BRANCH   7  15
ATOM      9  C   UNL     1       9.080   2.123  -7.398  0.00  0.00    +0.141 C 
ATOM     10  C   UNL     1       8.970   0.753  -6.740  0.00  0.00    +0.252 C 
ATOM     11  O   UNL     1       9.863  -0.070  -6.796  0.00  0.00    -0.272 OA
ATOM     12  N   UNL     1       7.850   0.524  -6.110  0.00  0.00    -0.157 NA
ATOM     13  C   UNL     1       6.850   1.392  -6.022  0.00  0.00    +0.166 C 
ATOM     14  S   UNL     1       7.439   2.810  -6.937  0.00  0.00    -0.079 S 
ATOM     15  N   UNL     1       5.651   1.235  -5.388  0.00  0.00    -0.217 N 
ATOM     16  H   UNL     1       4.999   1.954  -5.399  0.00  0.00    +0.176 HD
BRANCH   9  18
ATOM     17  C   UNL     1       9.455   3.390  -9.518  0.00  0.00    +0.005 C 
ATOM     18  C   UNL     1       9.223   2.003  -8.916  0.00  0.00    +0.020 C 
ENDBRANCH   9  18
ENDBRANCH   7  15
ENDBRANCH   1   8
BRANCH   5  19
ATOM     19  O   UNL     1       1.224  -2.884  -1.477  0.00  0.00    -0.342 OA
BRANCH  19  20
ATOM     20  S   UNL     1       1.232  -2.441  -0.021  0.00  0.00    +0.151 S 
ATOM     21  O   UNL     1       2.488  -2.833   0.516  0.00  0.00    -0.131 OA
ATOM     22  O   UNL     1      -0.003  -2.866   0.539  0.00  0.00    -0.131 OA
BRANCH  20  23
ATOM     23  C   UNL     1       1.208  -0.679  -0.013  0.00  0.00    +0.128 A 
ATOM     24  C   UNL     1       0.002  -0.004   0.002  0.00  0.00    +0.031 A 
ATOM     25  C   UNL     1      -0.017   1.378   0.010  0.00  0.00    +0.016 A 
ATOM     26  C   UNL     1       1.171   2.086   0.002  0.00  0.00    +0.013 A 
ATOM     27  C   UNL     1       2.378   1.410  -0.013  0.00  0.00    +0.016 A 
ATOM     28  C   UNL     1       2.396   0.028  -0.020  0.00  0.00    +0.031 A 
ATOM     29  I   UNL     1       1.144   4.180   0.014  0.00  0.00    -0.044 I 
ENDBRANCH  20  23
ENDBRANCH  19  20
ENDBRANCH   5  19
TORSDOF 6
