REMARK  Name = ZINC58854412
REMARK  9 active torsions:
REMARK  status: ('A' for Active; 'I' for Inactive)
REMARK    1  A    between atoms: C_1  and  C_2
REMARK    2  A    between atoms: C_6  and  C_8
REMARK    3  A    between atoms: N_10  and  C_11
REMARK    4  A    between atoms: C_14  and  C_17
REMARK    5  A    between atoms: N_19  and  C_20
REMARK    6  A    between atoms: C_20  and  C_21
REMARK    7  A    between atoms: C_21  and  C_23
REMARK    8  A    between atoms: C_21  and  C_27
REMARK    9  A    between atoms: C_23  and  C_24
REMARK                            x       y       z     vdW  Elec       q    Type
REMARK                         _______ _______ _______ _____ _____    ______ ____
ROOT
ATOM      1  C   UNL     1       0.172  -4.945   3.613  0.00  0.00    +0.034 A 
ATOM      2  C   UNL     1       0.158  -4.309   4.851  0.00  0.00    +0.024 A 
ATOM      3  C   UNL     1       0.261  -5.049   6.007  0.00  0.00    +0.015 A 
ATOM      4  C   UNL     1       0.380  -6.440   5.937  0.00  0.00    +0.037 A 
ATOM      5  C   UNL     1       0.394  -7.075   4.692  0.00  0.00    +0.015 A 
ATOM      6  C   UNL     1       0.285  -6.330   3.540  0.00  0.00    +0.024 A 
ENDROOT
BRANCH   1   9
ATOM      7  C   UNL     1       0.638  -2.974   2.374  0.00  0.00    +0.248 C 
ATOM      8  O   UNL     1       1.171  -2.495   3.356  0.00  0.00    -0.270 OA
ATOM      9  N   UNL     1       0.068  -4.193   2.445  0.00  0.00    -0.282 N 
ATOM     10  H   UNL     1      -0.415  -4.547   1.682  0.00  0.00    +0.155 HD
BRANCH   7  16
ATOM     11  C   UNL     1       1.813   1.107  -0.245  0.00  0.00    +0.044 C 
ATOM     12  C   UNL     1       1.178  -0.257  -0.162  0.00  0.00    -0.050 A 
ATOM     13  C   UNL     1       0.571  -0.806  -1.278  0.00  0.00    +0.003 A 
ATOM     14  C   UNL     1      -0.014  -2.057  -1.209  0.00  0.00    +0.001 A 
ATOM     15  C   UNL     1       0.004  -2.767  -0.026  0.00  0.00    +0.013 A 
ATOM     16  C   UNL     1       0.615  -2.220   1.103  0.00  0.00    +0.037 A 
ATOM     17  C   UNL     1       1.209  -0.958   1.026  0.00  0.00    +0.016 A 
ENDBRANCH   7  16
ENDBRANCH   1   9
BRANCH   4  18
ATOM     18  C   UNL     1       0.491  -7.236   7.175  0.00  0.00    +0.244 C 
ATOM     19  O   UNL     1       0.480  -6.682   8.257  0.00  0.00    -0.270 OA
ATOM     20  N   UNL     1       0.606  -8.577   7.106  0.00  0.00    -0.311 N 
ATOM     21  H   UNL     1       0.615  -9.019   6.242  0.00  0.00    +0.149 HD
BRANCH  20  22
ATOM     22  C   UNL     1       0.717  -9.367   8.334  0.00  0.00    +0.113 C 
BRANCH  22  23
ATOM     23  C   UNL     1       0.834 -10.851   7.978  0.00  0.00    +0.047 C 
BRANCH  23  24
ATOM     24  C   UNL     1       0.824 -11.673   9.240  0.00  0.00    -0.042 A 
ATOM     25  C   UNL     1       1.799 -11.477  10.200  0.00  0.00    +0.005 A 
ATOM     26  C   UNL     1       1.791 -12.231  11.358  0.00  0.00    +0.020 A 
ATOM     27  C   UNL     1       0.806 -13.182  11.557  0.00  0.00    +0.041 A 
ATOM     28  C   UNL     1      -0.170 -13.378  10.597  0.00  0.00    +0.020 A 
ATOM     29  C   UNL     1      -0.164 -12.619   9.441  0.00  0.00    +0.005 A 
ATOM     30 CL   UNL     1       0.795 -14.130  13.012  0.00  0.00    -0.084 Cl
ENDBRANCH  23  24
BRANCH  23  31
ATOM     31  C   UNL     1       2.142 -11.092   7.222  0.00  0.00    +0.134 C 
BRANCH  31  32
ATOM     32  C   UNL     1       2.201 -12.526   6.764  0.00  0.00    +0.357 C 
ATOM     33  O   UNL     1       1.281 -13.285   7.018  0.00  0.00    -0.246 OA
ATOM     34  O   UNL     1       3.168 -12.928   6.139  0.00  0.00    -0.246 OA
ENDBRANCH  31  32
ENDBRANCH  23  31
ENDBRANCH  22  23
ENDBRANCH  20  22
ENDBRANCH   4  18
TORSDOF 8
