REMARK  Name = ZINC13775307
REMARK  5 active torsions:
REMARK  status: ('A' for Active; 'I' for Inactive)
REMARK    1  A    between atoms: C_13  and  C_21
REMARK    2  A    between atoms: C_14  and  C_17
REMARK    3  A    between atoms: N_22  and  C_23
REMARK    4  A    between atoms: C_26  and  S_29
REMARK    5  A    between atoms: S_29  and  N_32
REMARK                            x       y       z     vdW  Elec       q    Type
REMARK                         _______ _______ _______ _____ _____    ______ ____
ROOT
ATOM      1  C   UNL     1      -0.017   1.366   0.010  0.00  0.00    +0.002 A 
ATOM      2  C   UNL     1       1.156   2.107   0.002  0.00  0.00    +0.001 A 
ATOM      3  C   UNL     1       2.373   1.450  -0.013  0.00  0.00    +0.017 A 
ATOM      4  C   UNL     1       2.401   0.077  -0.021  0.00  0.00    +0.041 A 
ATOM      5  C   UNL     1       1.227  -0.710  -0.013  0.00  0.00    +0.081 A 
ATOM      6  C   UNL     1       0.002  -0.004   0.002  0.00  0.00    +0.029 A 
ATOM      7  N   UNL     1       1.420  -2.047  -0.023  0.00  0.00    -0.221 NA
ATOM      8  C   UNL     1       2.616  -2.588  -0.037  0.00  0.00    +0.196 A 
ATOM      9  S   UNL     1       3.682  -1.153  -0.039  0.00  0.00    -0.048 S 
ATOM     10  N   UNL     1       2.963  -3.928  -0.047  0.00  0.00    -0.194 N 
ATOM     11  C   UNL     1       2.100  -4.964  -0.049  0.00  0.00    +0.283 A 
ATOM     12  O   UNL     1       0.885  -4.900  -0.042  0.00  0.00    -0.265 OA
ATOM     13  C   UNL     1       2.916  -6.189  -0.061  0.00  0.00    +0.089 A 
ATOM     14  C   UNL     1       4.236  -5.781  -0.065  0.00  0.00    +0.150 A 
ATOM     15  N   UNL     1       4.266  -4.433  -0.062  0.00  0.00    -0.284 N 
ATOM     16  H   UNL     1       5.073  -3.893  -0.067  0.00  0.00    +0.187 HD
ENDROOT
BRANCH  14  17
ATOM     17  C   UNL     1       5.439  -6.689  -0.077  0.00  0.00    +0.434 C 
ATOM     18  F   UNL     1       5.017  -8.023  -0.083  0.00  0.00    -0.164 F 
ATOM     19  F   UNL     1       6.203  -6.436  -1.221  0.00  0.00    -0.164 F 
ATOM     20  F   UNL     1       6.214  -6.450   1.063  0.00  0.00    -0.164 F 
ENDBRANCH  14  17
BRANCH  13  21
ATOM     21  C   UNL     1       2.425  -7.569  -0.067  0.00  0.00    +0.126 C 
ATOM     22  N   UNL     1       1.140  -7.806  -0.063  0.00  0.00    -0.255 NA
BRANCH  22  23
ATOM     23  C   UNL     1       0.682  -9.096  -0.069  0.00  0.00    +0.064 A 
ATOM     24  C   UNL     1       1.251 -10.039  -0.927  0.00  0.00    +0.029 A 
ATOM     25  C   UNL     1       0.784 -11.337  -0.928  0.00  0.00    +0.030 A 
ATOM     26  C   UNL     1      -0.246 -11.705  -0.081  0.00  0.00    +0.105 A 
ATOM     27  C   UNL     1      -0.815 -10.776   0.772  0.00  0.00    +0.030 A 
ATOM     28  C   UNL     1      -0.354  -9.476   0.788  0.00  0.00    +0.029 A 
BRANCH  26  29
ATOM     29  S   UNL     1      -0.836 -13.366  -0.088  0.00  0.00    +0.056 S 
ATOM     30  O   UNL     1      -2.168 -13.325   0.403  0.00  0.00    -0.153 OA
ATOM     31  O   UNL     1      -0.509 -13.907  -1.361  0.00  0.00    -0.153 OA
BRANCH  29  32
ATOM     32  N   UNL     1       0.054 -14.207   1.026  0.00  0.00    -0.204 NA
ATOM     33  H   UNL     1      -0.341 -14.958   1.495  0.00  0.00    +0.144 HD
ATOM     34  H   UNL     1       0.971 -13.948   1.210  0.00  0.00    +0.144 HD
ENDBRANCH  29  32
ENDBRANCH  26  29
ENDBRANCH  22  23
ENDBRANCH  13  21
TORSDOF 5
