REMARK  Name = ZINC09191933
REMARK  7 active torsions:
REMARK  status: ('A' for Active; 'I' for Inactive)
REMARK    1  A    between atoms: C_1  and  O_2
REMARK    2  A    between atoms: O_2  and  C_3
REMARK    3  A    between atoms: C_6  and  C_11
REMARK    4  A    between atoms: C_8  and  O_9
REMARK    5  A    between atoms: O_9  and  C_10
REMARK    6  A    between atoms: C_11  and  C_13
REMARK    7  A    between atoms: N_31  and  C_34
REMARK                            x       y       z     vdW  Elec       q    Type
REMARK                         _______ _______ _______ _____ _____    ______ ____
ROOT
ATOM      1  C   UNL     1       2.895  -4.279  -0.064  0.00  0.00    +0.141 C 
ATOM      2  C   UNL     1       2.244  -4.769   1.245  0.00  0.00    +0.116 C 
ATOM      3  C   UNL     1       3.457  -5.222   2.113  0.00  0.00    +0.113 C 
ATOM      4  C   UNL     1       4.529  -5.599   1.093  0.00  0.00    +0.100 C 
ATOM      5  C   UNL     1       5.112  -4.820  -1.220  0.00  0.00    +0.054 C 
ATOM      6  C   UNL     1       6.416  -4.740  -0.887  0.00  0.00    +0.022 C 
ATOM      7  C   UNL     1       6.801  -4.715   0.539  0.00  0.00    -0.019 A 
ATOM      8  C   UNL     1       5.899  -5.152   1.532  0.00  0.00    -0.021 A 
ATOM      9  C   UNL     1       6.260  -5.122   2.849  0.00  0.00    +0.006 A 
ATOM     10  C   UNL     1       7.522  -4.684   3.215  0.00  0.00    +0.000 A 
ATOM     11  C   UNL     1       8.420  -4.261   2.252  0.00  0.00    +0.001 A 
ATOM     12  C   UNL     1       8.069  -4.273   0.918  0.00  0.00    +0.008 A 
ATOM     13  C   UNL     1       3.825  -3.940   2.830  0.00  0.00    +0.232 C 
ATOM     14  O   UNL     1       4.894  -3.698   3.349  0.00  0.00    -0.274 OA
ATOM     15  N   UNL     1       2.764  -3.118   2.794  0.00  0.00    -0.210 N 
ATOM     16  C   UNL     1       1.761  -3.551   2.016  0.00  0.00    +0.232 C 
ATOM     17  O   UNL     1       0.657  -3.055   1.940  0.00  0.00    -0.274 OA
ATOM     18  N   UNL     1       4.053  -5.209  -0.213  0.00  0.00    -0.384 NA
ATOM     19  H   UNL     1       3.651  -6.068  -0.607  0.00  0.00    +0.127 HD
ENDROOT
BRANCH  15  20
ATOM     20  C   UNL     1       2.710  -1.912   3.508  0.00  0.00    +0.044 A 
ATOM     21  C   UNL     1       3.562  -0.867   3.174  0.00  0.00    +0.025 A 
ATOM     22  C   UNL     1       3.502   0.322   3.874  0.00  0.00    +0.022 A 
ATOM     23  C   UNL     1       2.602   0.468   4.915  0.00  0.00    +0.041 A 
ATOM     24  C   UNL     1       1.757  -0.574   5.254  0.00  0.00    +0.022 A 
ATOM     25  C   UNL     1       1.808  -1.762   4.553  0.00  0.00    +0.025 A 
ATOM     26 CL   UNL     1       2.535   1.961   5.799  0.00  0.00    -0.084 Cl
ENDBRANCH  15  20
BRANCH   1  27
ATOM     27  C   UNL     1       3.035  -2.779  -0.033  0.00  0.00    +0.183 C 
ATOM     28  O   UNL     1       4.123  -2.275   0.154  0.00  0.00    -0.290 OA
BRANCH  27  32
ATOM     29  C   UNL     1      -0.379  -0.321  -0.592  0.00  0.00    +0.162 A 
ATOM     30  C   UNL     1      -0.506  -1.704  -0.626  0.00  0.00    +0.050 A 
ATOM     31  C   UNL     1       0.599  -2.505  -0.443  0.00  0.00    +0.015 A 
ATOM     32  C   UNL     1       1.855  -1.926  -0.228  0.00  0.00    +0.023 A 
ATOM     33  C   UNL     1       1.983  -0.532  -0.200  0.00  0.00    +0.060 A 
ATOM     34  C   UNL     1       0.871   0.264  -0.384  0.00  0.00    +0.162 A 
BRANCH  29  36
ATOM     35  C   UNL     1      -2.720  -0.200  -0.976  0.00  0.00    +0.277 C 
ATOM     36  O   UNL     1      -1.472   0.464  -0.768  0.00  0.00    -0.491 OA
ENDBRANCH  29  36
BRANCH  34  37
ATOM     37  O   UNL     1       0.991   1.618  -0.357  0.00  0.00    -0.491 OA
ATOM     38  C   UNL     1       2.299   2.148  -0.133  0.00  0.00    +0.277 C 
ENDBRANCH  34  37
ENDBRANCH  27  32
ENDBRANCH   1  27
TORSDOF 5
