REMARK  Name = ZINC13255948
REMARK  9 active torsions:
REMARK  status: ('A' for Active; 'I' for Inactive)
REMARK    1  A    between atoms: C_1  and  C_2
REMARK    2  A    between atoms: C_4  and  N_9
REMARK    3  A    between atoms: C_6  and  C_8
REMARK    4  A    between atoms: N_9  and  S_10
REMARK    5  A    between atoms: S_10  and  C_13
REMARK    6  A    between atoms: C_16  and  N_19
REMARK    7  A    between atoms: C_20  and  C_22
REMARK    8  A    between atoms: C_22  and  C_23
REMARK    9  A    between atoms: C_23  and  C_30
REMARK                            x       y       z     vdW  Elec       q    Type
REMARK                         _______ _______ _______ _____ _____    ______ ____
ROOT
ATOM      1  C   UNL     1      -4.339   5.379  -2.336  0.00  0.00    +0.109 A 
ATOM      2  C   UNL     1      -4.904   4.494  -3.237  0.00  0.00    +0.030 A 
ATOM      3  C   UNL     1      -4.543   3.161  -3.216  0.00  0.00    +0.025 A 
ATOM      4  C   UNL     1      -3.613   2.709  -2.288  0.00  0.00    +0.033 A 
ATOM      5  C   UNL     1      -3.053   3.599  -1.381  0.00  0.00    +0.025 A 
ATOM      6  C   UNL     1      -3.413   4.932  -1.411  0.00  0.00    +0.030 A 
ENDROOT
BRANCH   4   7
ATOM      7  N   UNL     1      -3.246   1.359  -2.265  0.00  0.00    -0.285 N 
ATOM      8  C   UNL     1      -2.019   1.002  -1.838  0.00  0.00    +0.218 C 
ATOM      9  O   UNL     1      -1.194   1.854  -1.580  0.00  0.00    -0.275 OA
ATOM     10  H   UNL     1      -3.875   0.680  -2.556  0.00  0.00    +0.155 HD
BRANCH   8  11
ATOM     11  C   UNL     1      -1.670  -0.456  -1.679  0.00  0.00    +0.114 C 
BRANCH  11  12
ATOM     12  C   UNL     1      -0.282  -0.583  -1.049  0.00  0.00    +0.080 C 
ATOM     13  C   UNL     1      -0.057  -2.050  -0.636  0.00  0.00    +0.019 C 
ATOM     14  C   UNL     1       0.330  -2.952  -1.824  0.00  0.00    +0.001 C 
ATOM     15  C   UNL     1      -0.475  -2.653  -3.060  0.00  0.00    +0.000 C 
ATOM     16  C   UNL     1       0.316  -1.655  -3.930  0.00  0.00    +0.000 C 
ATOM     17  C   UNL     1       0.186  -0.284  -3.459  0.00  0.00    +0.001 C 
ATOM     18  C   UNL     1       0.747  -0.097  -2.034  0.00  0.00    +0.019 C 
BRANCH  12  19
ATOM     19  C   UNL     1      -0.225   0.284   0.182  0.00  0.00    +0.362 C 
ATOM     20  O   UNL     1       0.634   1.127   0.289  0.00  0.00    -0.246 OA
ATOM     21  O   UNL     1      -1.129   0.120   1.161  0.00  0.00    -0.246 OA
ENDBRANCH  12  19
ENDBRANCH  11  12
ENDBRANCH   8  11
ENDBRANCH   4   7
BRANCH   1  22
ATOM     22  S   UNL     1      -4.802   7.079  -2.366  0.00  0.00    +0.073 S 
ATOM     23  O   UNL     1      -3.727   7.802  -1.781  0.00  0.00    -0.150 OA
ATOM     24  O   UNL     1      -5.276   7.347  -3.678  0.00  0.00    -0.150 OA
BRANCH  22  25
ATOM     25  N   UNL     1      -6.097   7.252  -1.349  0.00  0.00    -0.199 N 
ATOM     26  H   UNL     1      -6.962   7.511  -1.705  0.00  0.00    +0.175 HD
BRANCH  25  30
ATOM     27  C   UNL     1      -7.969   7.076   3.200  0.00  0.00    +0.066 C 
ATOM     28  C   UNL     1      -6.830   6.935   2.223  0.00  0.00    +0.044 A 
ATOM     29  C   UNL     1      -7.030   7.175   0.877  0.00  0.00    +0.068 A 
ATOM     30  C   UNL     1      -5.947   7.027   0.010  0.00  0.00    +0.141 A 
ATOM     31  N   UNL     1      -4.766   6.672   0.509  0.00  0.00    -0.216 NA
ATOM     32  C   UNL     1      -4.619   6.458   1.800  0.00  0.00    +0.128 A 
ATOM     33  N   UNL     1      -5.624   6.584   2.645  0.00  0.00    -0.237 NA
ATOM     34  C   UNL     1      -3.266   6.057   2.327  0.00  0.00    +0.088 C 
ENDBRANCH  25  30
ENDBRANCH  22  25
ENDBRANCH   1  22
TORSDOF 7
