REMARK  Name = ZINC62123891
REMARK  4 active torsions:
REMARK  status: ('A' for Active; 'I' for Inactive)
REMARK    1  A    between atoms: C_1  and  C_2
REMARK    2  A    between atoms: C_5  and  S_8
REMARK    3  A    between atoms: S_8  and  N_11
REMARK    4  A    between atoms: C_17  and  C_19
REMARK                            x       y       z     vdW  Elec       q    Type
REMARK                         _______ _______ _______ _____ _____    ______ ____
ROOT
ATOM      1  N   UNL     1       1.336  -5.962   0.398  0.00  0.00    -0.159 NA
ATOM      2  C   UNL     1       1.894  -6.279  -0.927  0.00  0.00    +0.129 C 
ATOM      3  C   UNL     1       2.379  -4.976  -1.565  0.00  0.00    +0.121 C 
ATOM      4  N   UNL     1       3.161  -4.196  -0.617  0.00  0.00    -0.312 N 
ATOM      5  C   UNL     1       3.090  -4.323   0.709  0.00  0.00    +0.236 C 
ATOM      6  O   UNL     1       3.733  -3.561   1.399  0.00  0.00    -0.274 OA
ATOM      7  C   UNL     1       2.245  -5.362   1.386  0.00  0.00    +0.195 C 
ATOM      8  H   UNL     1       3.778  -3.538  -0.974  0.00  0.00    +0.149 HD
ENDROOT
BRANCH   7   9
ATOM      9  C   UNL     1       1.441  -4.718   2.487  0.00  0.00    -0.020 A 
ATOM     10  C   UNL     1       0.827  -3.499   2.272  0.00  0.00    +0.007 A 
ATOM     11  C   UNL     1       0.089  -2.908   3.280  0.00  0.00    +0.020 A 
ATOM     12  C   UNL     1      -0.035  -3.538   4.506  0.00  0.00    +0.041 A 
ATOM     13  C   UNL     1       0.580  -4.759   4.721  0.00  0.00    +0.020 A 
ATOM     14  C   UNL     1       1.312  -5.351   3.709  0.00  0.00    +0.007 A 
ATOM     15 CL   UNL     1      -0.961  -2.797   5.774  0.00  0.00    -0.084 Cl
ENDBRANCH   7   9
BRANCH   1  16
ATOM     16  S   UNL     1      -0.252  -6.262   0.759  0.00  0.00    +0.062 S 
ATOM     17  O   UNL     1      -0.972  -6.166  -0.462  0.00  0.00    -0.153 OA
ATOM     18  O   UNL     1      -0.568  -5.468   1.895  0.00  0.00    -0.153 OA
BRANCH  16  23
ATOM     19  C   UNL     1      -0.624 -12.020   2.526  0.00  0.00    +0.044 C 
ATOM     20  C   UNL     1      -0.530 -10.582   2.085  0.00  0.00    -0.050 A 
ATOM     21  C   UNL     1      -0.407  -9.576   3.026  0.00  0.00    +0.005 A 
ATOM     22  C   UNL     1      -0.322  -8.258   2.621  0.00  0.00    +0.029 A 
ATOM     23  C   UNL     1      -0.359  -7.944   1.275  0.00  0.00    +0.106 A 
ATOM     24  C   UNL     1      -0.482  -8.949   0.335  0.00  0.00    +0.029 A 
ATOM     25  C   UNL     1      -0.563 -10.268   0.739  0.00  0.00    +0.005 A 
ENDBRANCH  16  23
ENDBRANCH   1  16
TORSDOF 3
