REMARK  Name = ZINC08829905
REMARK  8 active torsions:
REMARK  status: ('A' for Active; 'I' for Inactive)
REMARK    1  A    between atoms: C_1  and  C_2
REMARK    2  A    between atoms: C_5  and  S_8
REMARK    3  A    between atoms: S_8  and  C_9
REMARK    4  A    between atoms: C_9  and  C_10
REMARK    5  A    between atoms: C_10  and  N_11
REMARK    6  A    between atoms: N_13  and  C_14
REMARK    7  A    between atoms: C_19  and  O_20
REMARK    8  A    between atoms: O_20  and  C_21
REMARK                            x       y       z     vdW  Elec       q    Type
REMARK                         _______ _______ _______ _____ _____    ______ ____
ROOT
ATOM      1  N   UNL     1       1.570  -7.155   3.685  0.00  0.00    -0.366 N 
ATOM      2  C   UNL     1       0.677  -8.186   3.775  0.00  0.00    +0.143 C 
ATOM      3  N   UNL     1       0.139  -8.521   4.986  0.00  0.00    -0.292 N 
ATOM      4  S   UNL     1       0.246  -9.031   2.413  0.00  0.00    -0.016 SA
ATOM      5  H   UNL     1       1.822  -6.661   4.481  0.00  0.00    +0.161 HD
ATOM      6  H   UNL     1      -0.183  -7.826   5.582  0.00  0.00    +0.154 HD
ENDROOT
BRANCH   3   7
ATOM      7  C   UNL     1       0.053  -9.866   5.367  0.00  0.00    +0.076 A 
ATOM      8  C   UNL     1       0.652 -10.848   4.591  0.00  0.00    +0.047 A 
ATOM      9  C   UNL     1       0.566 -12.175   4.969  0.00  0.00    +0.043 A 
ATOM     10  C   UNL     1      -0.118 -12.527   6.120  0.00  0.00    +0.024 A 
ATOM     11  C   UNL     1      -0.718 -11.553   6.897  0.00  0.00    +0.049 A 
ATOM     12  C   UNL     1      -0.630 -10.221   6.528  0.00  0.00    +0.141 A 
ATOM     13 CL   UNL     1       1.315 -13.403   3.998  0.00  0.00    -0.083 Cl
BRANCH  12  14
ATOM     14  O   UNL     1      -1.215  -9.262   7.295  0.00  0.00    -0.493 OA
ATOM     15  C   UNL     1      -1.899  -9.699   8.471  0.00  0.00    +0.277 C 
ENDBRANCH  12  14
ENDBRANCH   3   7
BRANCH   1  16
ATOM     16  C   UNL     1       2.147  -6.796   2.387  0.00  0.00    +0.125 C 
BRANCH  16  17
ATOM     17  C   UNL     1       3.108  -5.619   2.564  0.00  0.00    +0.095 C 
BRANCH  17  18
ATOM     18  S   UNL     1       3.823  -5.175   0.956  0.00  0.00    -0.123 S 
BRANCH  18  23
ATOM     19  C   UNL     1       7.483  -0.544   2.215  0.00  0.00    +0.044 C 
ATOM     20  C   UNL     1       6.570  -1.700   1.901  0.00  0.00    -0.050 A 
ATOM     21  C   UNL     1       6.457  -2.157   0.600  0.00  0.00    +0.004 A 
ATOM     22  C   UNL     1       5.620  -3.216   0.308  0.00  0.00    +0.015 A 
ATOM     23  C   UNL     1       4.892  -3.824   1.324  0.00  0.00    +0.008 A 
ATOM     24  C   UNL     1       5.008  -3.362   2.630  0.00  0.00    +0.015 A 
ATOM     25  C   UNL     1       5.850  -2.306   2.915  0.00  0.00    +0.004 A 
ENDBRANCH  18  23
ENDBRANCH  17  18
ENDBRANCH  16  17
ENDBRANCH   1  16
TORSDOF 6
