REMARK  Name = ZINC63140812
REMARK  5 active torsions:
REMARK  status: ('A' for Active; 'I' for Inactive)
REMARK    1  A    between atoms: C_1  and  O_2
REMARK    2  A    between atoms: O_2  and  C_3
REMARK    3  A    between atoms: C_6  and  C_9
REMARK    4  A    between atoms: C_9  and  N_10
REMARK    5  A    between atoms: C_30  and  C_32
REMARK                            x       y       z     vdW  Elec       q    Type
REMARK                         _______ _______ _______ _____ _____    ______ ____
ROOT
ATOM      1  N   UNL     1       3.838  -2.942  -3.742  0.00  0.00    -0.287 N 
ATOM      2  C   UNL     1       4.692  -1.860  -4.204  0.00  0.00    +0.204 C 
ATOM      3  C   UNL     1       6.138  -2.138  -3.961  0.00  0.00    +0.234 C 
ATOM      4  O   UNL     1       6.940  -1.298  -4.310  0.00  0.00    -0.274 OA
ATOM      5  N   UNL     1       6.613  -3.249  -3.384  0.00  0.00    -0.279 N 
ATOM      6  C   UNL     1       5.746  -4.321  -2.905  0.00  0.00    +0.167 C 
ATOM      7  C   UNL     1       4.300  -4.045  -3.155  0.00  0.00    +0.237 C 
ATOM      8  O   UNL     1       3.494  -4.880  -2.804  0.00  0.00    -0.274 OA
ATOM      9  C   UNL     1       5.974  -4.547  -1.400  0.00  0.00    +0.065 C 
ATOM     10  C   UNL     1       7.468  -4.579  -1.191  0.00  0.00    -0.034 C 
ATOM     11  C   UNL     1       8.252  -5.455  -0.577  0.00  0.00    -0.001 A 
ATOM     12  C   UNL     1       7.947  -6.655   0.219  0.00  0.00    +0.010 A 
ATOM     13  C   UNL     1       9.016  -7.348   0.693  0.00  0.00    +0.001 A 
ATOM     14  C   UNL     1      10.342  -6.973   0.457  0.00  0.00    +0.002 A 
ATOM     15  C   UNL     1      10.715  -5.879  -0.255  0.00  0.00    +0.026 A 
ATOM     16  C   UNL     1       9.678  -5.066  -0.798  0.00  0.00    +0.043 A 
ATOM     17  N   UNL     1       9.747  -3.966  -1.489  0.00  0.00    -0.375 N 
ATOM     18  C   UNL     1       8.386  -3.492  -1.739  0.00  0.00    +0.131 C 
ATOM     19  C   UNL     1       8.080  -3.376  -3.235  0.00  0.00    +0.133 C 
ATOM     20  H   UNL     1      10.562  -3.534  -1.788  0.00  0.00    +0.160 HD
ENDROOT
BRANCH  19  21
ATOM     21  C   UNL     1       8.561  -4.611  -3.952  0.00  0.00    -0.023 A 
ATOM     22  C   UNL     1       8.065  -5.853  -3.599  0.00  0.00    +0.005 A 
ATOM     23  C   UNL     1       8.506  -6.986  -4.257  0.00  0.00    +0.002 A 
ATOM     24  C   UNL     1       9.444  -6.878  -5.267  0.00  0.00    +0.020 A 
ATOM     25  C   UNL     1       9.940  -5.636  -5.620  0.00  0.00    +0.041 A 
ATOM     26  C   UNL     1       9.494  -4.502  -4.966  0.00  0.00    +0.025 A 
ATOM     27 CL   UNL     1      11.117  -5.501  -6.889  0.00  0.00    -0.084 Cl
ENDBRANCH  19  21
BRANCH   1  28
ATOM     28  C   UNL     1       2.391  -2.811  -3.928  0.00  0.00    +0.143 C 
BRANCH  28  32
ATOM     29  C   UNL     1       0.684  -0.892  -0.513  0.00  0.00    +0.120 A 
ATOM     30  C   UNL     1       1.126  -0.134  -1.587  0.00  0.00    +0.046 A 
ATOM     31  C   UNL     1       1.677  -0.756  -2.690  0.00  0.00    +0.009 A 
ATOM     32  C   UNL     1       1.789  -2.134  -2.724  0.00  0.00    -0.030 A 
ATOM     33  C   UNL     1       1.350  -2.892  -1.654  0.00  0.00    +0.009 A 
ATOM     34  C   UNL     1       0.803  -2.274  -0.547  0.00  0.00    +0.046 A 
BRANCH  29  36
ATOM     35  C   UNL     1       0.051   1.144   0.539  0.00  0.00    +0.277 C 
ATOM     36  O   UNL     1       0.141  -0.282   0.573  0.00  0.00    -0.495 OA
ENDBRANCH  29  36
ENDBRANCH  28  32
ENDBRANCH   1  28
TORSDOF 4
