REMARK  Name = ZINC00678891
REMARK  9 active torsions:
REMARK  status: ('A' for Active; 'I' for Inactive)
REMARK    1  A    between atoms: C_1  and  C_2
REMARK    2  A    between atoms: C_5  and  C_9
REMARK    3  A    between atoms: C_13  and  N_18
REMARK    4  A    between atoms: N_18  and  C_19
REMARK    5  A    between atoms: C_19  and  N_21
REMARK    6  A    between atoms: C_22  and  C_24
REMARK    7  A    between atoms: C_24  and  C_25
REMARK    8  A    between atoms: C_25  and  C_26
REMARK    9  A    between atoms: C_25  and  C_27
REMARK                            x       y       z     vdW  Elec       q    Type
REMARK                         _______ _______ _______ _____ _____    ______ ____
ROOT
ATOM      1  C   UNL     1       3.832  -4.413   0.091  0.00  0.00    +0.228 A 
ATOM      2  N   UNL     1       2.537  -4.233   0.032  0.00  0.00    -0.209 NA
ATOM      3  C   UNL     1       2.280  -2.900   0.049  0.00  0.00    +0.112 A 
ATOM      4  C   UNL     1       1.105  -2.146   0.014  0.00  0.00    +0.054 A 
ATOM      5  C   UNL     1       1.177  -0.765   0.042  0.00  0.00    +0.035 A 
ATOM      6  C   UNL     1       2.414  -0.128   0.115  0.00  0.00    +0.027 A 
ATOM      7  C   UNL     1       3.578  -0.865   0.154  0.00  0.00    +0.050 A 
ATOM      8  C   UNL     1       3.522  -2.251   0.122  0.00  0.00    +0.156 A 
ATOM      9  O   UNL     1       4.461  -3.224   0.146  0.00  0.00    -0.435 OA
ENDROOT
BRANCH   1  14
ATOM     10  C   UNL     1       6.452  -9.537   0.106  0.00  0.00    +0.045 C 
ATOM     11  C   UNL     1       5.766  -8.195   0.101  0.00  0.00    -0.032 A 
ATOM     12  C   UNL     1       4.386  -8.127   0.037  0.00  0.00    +0.005 A 
ATOM     13  C   UNL     1       3.752  -6.902   0.038  0.00  0.00    +0.013 A 
ATOM     14  C   UNL     1       4.505  -5.729   0.094  0.00  0.00    +0.038 A 
ATOM     15  C   UNL     1       5.897  -5.803   0.159  0.00  0.00    +0.033 A 
ATOM     16  C   UNL     1       6.520  -7.036   0.162  0.00  0.00    +0.045 A 
ATOM     17 CL   UNL     1       8.252  -7.131   0.243  0.00  0.00    -0.083 Cl
ENDBRANCH   1  14
BRANCH   5  18
ATOM     18  N   UNL     1       0.002  -0.004   0.002  0.00  0.00    -0.297 N 
ATOM     19  H   UNL     1      -0.092   0.773   0.575  0.00  0.00    +0.154 HD
BRANCH  18  20
ATOM     20  C   UNL     1      -0.998  -0.351  -0.833  0.00  0.00    +0.141 C 
ATOM     21  S   UNL     1      -0.778  -1.634  -1.945  0.00  0.00    -0.018 S 
BRANCH  20  22
ATOM     22  N   UNL     1      -2.172   0.309  -0.788  0.00  0.00    -0.268 N 
ATOM     23  C   UNL     1      -3.172  -0.038  -1.623  0.00  0.00    +0.219 C 
ATOM     24  O   UNL     1      -3.014  -0.944  -2.414  0.00  0.00    -0.275 OA
ATOM     25  H   UNL     1      -2.298   1.033  -0.156  0.00  0.00    +0.156 HD
BRANCH  23  26
ATOM     26  C   UNL     1      -4.485   0.699  -1.574  0.00  0.00    +0.099 C 
BRANCH  26  27
ATOM     27  C   UNL     1      -5.439   0.113  -2.616  0.00  0.00    -0.008 C 
ATOM     28  C   UNL     1      -6.811   0.776  -2.482  0.00  0.00    +0.008 C 
ATOM     29  C   UNL     1      -4.883   0.370  -4.018  0.00  0.00    +0.008 C 
ENDBRANCH  26  27
ENDBRANCH  23  26
ENDBRANCH  20  22
ENDBRANCH  18  20
ENDBRANCH   5  18
TORSDOF 6
