REMARK  Name = ZINC08918113
REMARK  5 active torsions:
REMARK  status: ('A' for Active; 'I' for Inactive)
REMARK    1  A    between atoms: C_1  and  C_2
REMARK    2  A    between atoms: C_4  and  C_34
REMARK    3  A    between atoms: N_20  and  C_23
REMARK    4  A    between atoms: C_26  and  O_29
REMARK    5  A    between atoms: O_29  and  C_30
REMARK                            x       y       z     vdW  Elec       q    Type
REMARK                         _______ _______ _______ _____ _____    ______ ____
ROOT
ATOM      1  C   UNL     1      -0.053   1.314  -0.078  0.00  0.00    +0.044 C 
ATOM      2  C   UNL     1      -0.751   1.780   1.174  0.00  0.00    -0.050 A 
ATOM      3  C   UNL     1      -2.109   2.041   1.155  0.00  0.00    +0.008 A 
ATOM      4  C   UNL     1      -2.754   2.463   2.298  0.00  0.00    -0.029 A 
ATOM      5  C   UNL     1      -2.039   2.640   3.481  0.00  0.00    +0.039 A 
ATOM      6  C   UNL     1      -0.672   2.378   3.488  0.00  0.00    -0.027 A 
ATOM      7  C   UNL     1      -0.034   1.953   2.345  0.00  0.00    +0.008 A 
ATOM      8  C   UNL     1      -0.207   2.655   4.890  0.00  0.00    +0.053 C 
ATOM      9  C   UNL     1       0.874   3.741   4.919  0.00  0.00    +0.089 C 
ATOM     10  C   UNL     1       1.840   3.305   6.054  0.00  0.00    +0.074 C 
ATOM     11  C   UNL     1       1.252   1.992   6.603  0.00  0.00    -0.054 C 
ATOM     12  C   UNL     1       1.343   0.829   4.555  0.00  0.00    -0.076 C 
ATOM     13  C   UNL     1       2.428   0.182   5.438  0.00  0.00    -0.020 C 
ATOM     14  C   UNL     1       2.380   0.958   6.769  0.00  0.00    -0.016 C 
ATOM     15  C   UNL     1       3.133   3.009   5.298  0.00  0.00    +0.228 C 
ATOM     16  O   UNL     1       4.167   2.628   5.805  0.00  0.00    -0.275 OA
ATOM     17  N   UNL     1       2.951   3.240   3.993  0.00  0.00    -0.210 N 
ATOM     18  C   UNL     1       1.720   3.654   3.669  0.00  0.00    +0.229 C 
ATOM     19  O   UNL     1       1.343   3.918   2.547  0.00  0.00    -0.275 OA
ATOM     20  C   UNL     1      -1.442   3.091   5.631  0.00  0.00    +0.212 C 
ATOM     21  O   UNL     1      -1.510   3.412   6.799  0.00  0.00    -0.277 OA
ATOM     22  N   UNL     1      -2.457   3.056   4.747  0.00  0.00    -0.286 N 
ATOM     23  C   UNL     1      -4.235   2.740   2.267  0.00  0.00    +0.045 C 
ATOM     24  H   UNL     1      -3.372   3.293   4.963  0.00  0.00    +0.155 HD
ATOM     25  N   UNL     1       0.439   1.497   5.515  0.00  0.00    +0.395 N 
ATOM     26  H   UNL     1      -0.268   0.835   5.856  0.00  0.00    -0.079 HD
ENDROOT
BRANCH  17  27
ATOM     27  C   UNL     1       3.967   3.063   3.042  0.00  0.00    +0.044 A 
ATOM     28  C   UNL     1       3.868   2.046   2.101  0.00  0.00    +0.027 A 
ATOM     29  C   UNL     1       4.867   1.875   1.163  0.00  0.00    +0.047 A 
ATOM     30  C   UNL     1       5.973   2.712   1.166  0.00  0.00    +0.120 A 
ATOM     31  C   UNL     1       6.075   3.725   2.109  0.00  0.00    +0.047 A 
ATOM     32  C   UNL     1       5.075   3.900   3.045  0.00  0.00    +0.027 A 
BRANCH  30  33
ATOM     33  O   UNL     1       6.958   2.540   0.245  0.00  0.00    -0.495 OA
ATOM     34  C   UNL     1       6.788   1.478  -0.696  0.00  0.00    +0.277 C 
ENDBRANCH  30  33
ENDBRANCH  17  27
TORSDOF 2
