REMARK  Name = ZINC02743731
REMARK  7 active torsions:
REMARK  status: ('A' for Active; 'I' for Inactive)
REMARK    1  A    between atoms: C_1  and  C_2
REMARK    2  A    between atoms: C_9  and  N_31
REMARK    3  A    between atoms: C_10  and  C_29
REMARK    4  A    between atoms: C_11  and  C_13
REMARK    5  A    between atoms: C_18  and  O_19
REMARK    6  A    between atoms: O_19  and  C_20
REMARK    7  A    between atoms: C_20  and  C_21
REMARK                            x       y       z     vdW  Elec       q    Type
REMARK                         _______ _______ _______ _____ _____    ______ ____
ROOT
ATOM      1  C   UNL     1      -0.482   3.418   3.100  0.00  0.00    +0.068 C 
ATOM      2  C   UNL     1      -0.252   4.806   2.561  0.00  0.00    +0.068 A 
ATOM      3  C   UNL     1      -0.062   5.142   1.227  0.00  0.00    +0.049 A 
ATOM      4  C   UNL     1       0.112   6.496   1.151  0.00  0.00    +0.222 A 
ATOM      5  N   UNL     1       0.033   6.986   2.399  0.00  0.00    -0.246 N 
ATOM      6  H   UNL     1       0.146   8.066   2.574  0.00  0.00    +0.192 HD
ATOM      7  N   UNL     1      -0.196   5.909   3.270  0.00  0.00    -0.176 NA
ATOM      8  O   UNL     1       0.320   7.143  -0.023  0.00  0.00    -0.423 OA
ATOM      9  C   UNL     1       0.082   6.462  -1.162  0.00  0.00    +0.200 C 
ATOM     10  C   UNL     1      -0.094   5.123  -1.215  0.00  0.00    +0.098 C 
ATOM     11  C   UNL     1      -0.034   4.249   0.013  0.00  0.00    +0.105 C 
ENDROOT
BRANCH  11  12
ATOM     12  C   UNL     1       1.240   3.444   0.003  0.00  0.00    +0.008 A 
ATOM     13  C   UNL     1       2.463   4.086  -0.001  0.00  0.00    +0.023 A 
ATOM     14  C   UNL     1       3.633   3.348  -0.015  0.00  0.00    +0.018 A 
ATOM     15  C   UNL     1       3.580   1.965  -0.022  0.00  0.00    +0.019 A 
ATOM     16  C   UNL     1       2.360   1.319  -0.013  0.00  0.00    +0.047 A 
ATOM     17  C   UNL     1       1.185   2.058   0.002  0.00  0.00    +0.125 A 
ATOM     18 BR   UNL     1       5.306   4.229  -0.026  0.00  0.00    -0.050 Br
BRANCH  17  19
ATOM     19  O   UNL     1      -0.017   1.425   0.010  0.00  0.00    -0.487 OA
BRANCH  19  20
ATOM     20  C   UNL     1       0.002  -0.004   0.002  0.00  0.00    +0.264 C 
BRANCH  20  21
ATOM     21  C   UNL     1      -1.412  -0.526   0.013  0.00  0.00    -0.010 A 
ATOM     22  C   UNL     1      -2.046  -0.777   1.215  0.00  0.00    +0.008 A 
ATOM     23  C   UNL     1      -3.345  -1.250   1.225  0.00  0.00    +0.020 A 
ATOM     24  C   UNL     1      -4.006  -1.483   0.032  0.00  0.00    +0.041 A 
ATOM     25  C   UNL     1      -3.368  -1.237  -1.171  0.00  0.00    +0.020 A 
ATOM     26  C   UNL     1      -2.071  -0.758  -1.180  0.00  0.00    +0.008 A 
ATOM     27 CL   UNL     1      -5.635  -2.083   0.045  0.00  0.00    -0.084 Cl
ENDBRANCH  20  21
ENDBRANCH  19  20
ENDBRANCH  17  19
ENDBRANCH  11  12
BRANCH   9  28
ATOM     28  N   UNL     1       0.013   7.170  -2.336  0.00  0.00    -0.328 N 
ATOM     29  H   UNL     1      -0.180   6.646  -3.284  0.00  0.00    +0.145 HD
ATOM     30  H   UNL     1       0.150   8.261  -2.329  0.00  0.00    +0.145 HD
ENDBRANCH   9  28
BRANCH  10  31
ATOM     31  C   UNL     1      -0.345   4.510  -2.485  0.00  0.00    +0.101 C 
ATOM     32  N   UNL     1      -0.545   4.024  -3.492  0.00  0.00    -0.191 NA
ENDBRANCH  10  31
TORSDOF 6
