REMARK  Name = ZINC40213062
REMARK  13 active torsions:
REMARK  status: ('A' for Active; 'I' for Inactive)
REMARK    1  A    between atoms: C_2  and  C_3
REMARK    2  A    between atoms: C_3  and  C_4
REMARK    3  A    between atoms: C_9  and  O_10
REMARK    4  A    between atoms: O_10  and  C_11
REMARK    5  A    between atoms: C_11  and  C_12
REMARK    6  A    between atoms: C_12  and  N_13
REMARK    7  A    between atoms: C_21  and  C_22
REMARK    8  A    between atoms: C_22  and  C_23
REMARK    9  A    between atoms: C_23  and  C_24
REMARK   10  A    between atoms: C_24  and  C_25
REMARK   11  A    between atoms: C_25  and  C_26
REMARK   12  A    between atoms: C_26  and  N_27
REMARK   13  A    between atoms: C_28  and  C_30
REMARK                            x       y       z     vdW  Elec       q    Type
REMARK                         _______ _______ _______ _____ _____    ______ ____
ROOT
ATOM      1  N   UNL     1       1.692  -6.216   1.570  0.00  0.00    -0.324 N 
ATOM      2  C   UNL     1       1.065  -7.385   1.953  0.00  0.00    +0.069 A 
ATOM      3  C   UNL     1      -0.215  -7.698   2.389  0.00  0.00    +0.028 A 
ATOM      4  C   UNL     1      -0.531  -9.003   2.701  0.00  0.00    +0.002 A 
ATOM      5  C   UNL     1       0.422 -10.004   2.583  0.00  0.00    +0.002 A 
ATOM      6  C   UNL     1       1.687  -9.715   2.155  0.00  0.00    +0.030 A 
ATOM      7  C   UNL     1       2.030  -8.400   1.832  0.00  0.00    +0.089 A 
ATOM      8  N   UNL     1       3.171  -7.810   1.392  0.00  0.00    -0.232 NA
ATOM      9  C   UNL     1       2.971  -6.534   1.233  0.00  0.00    +0.111 A 
ENDROOT
BRANCH   1  10
ATOM     10  C   UNL     1       1.089  -4.881   1.528  0.00  0.00    +0.164 C 
BRANCH  10  11
ATOM     11  C   UNL     1       0.463  -4.647   0.152  0.00  0.00    +0.250 C 
BRANCH  11  12
ATOM     12  O   UNL     1      -0.124  -3.345   0.111  0.00  0.00    -0.490 OA
BRANCH  12  18
ATOM     13  C   UNL     1      -1.318  -1.726  -1.159  0.00  0.00    -0.002 A 
ATOM     14  C   UNL     1      -1.925  -1.351  -2.342  0.00  0.00    +0.007 A 
ATOM     15  C   UNL     1      -1.950  -2.223  -3.414  0.00  0.00    +0.001 A 
ATOM     16  C   UNL     1      -1.367  -3.473  -3.306  0.00  0.00    +0.004 A 
ATOM     17  C   UNL     1      -0.758  -3.852  -2.125  0.00  0.00    +0.046 A 
ATOM     18  C   UNL     1      -0.727  -2.976  -1.049  0.00  0.00    +0.124 A 
BRANCH  13  19
ATOM     19  C   UNL     1      -1.293  -0.775   0.010  0.00  0.00    +0.065 C 
BRANCH  19  21
ATOM     20  C   UNL     1      -0.016   1.306   0.009  0.00  0.00    +0.004 C 
ATOM     21  C   UNL     1       0.002  -0.004   0.002  0.00  0.00    -0.030 C 
ENDBRANCH  19  21
ENDBRANCH  13  19
ENDBRANCH  12  18
ENDBRANCH  11  12
ENDBRANCH  10  11
ENDBRANCH   1  10
BRANCH   9  22
ATOM     22  C   UNL     1       4.006  -5.552   0.749  0.00  0.00    +0.074 C 
BRANCH  22  23
ATOM     23  C   UNL     1       4.773  -4.988   1.947  0.00  0.00    +0.008 C 
BRANCH  23  24
ATOM     24  C   UNL     1       5.824  -3.991   1.456  0.00  0.00    +0.002 C 
BRANCH  24  25
ATOM     25  C   UNL     1       6.591  -3.427   2.654  0.00  0.00    +0.019 C 
BRANCH  25  26
ATOM     26  C   UNL     1       7.642  -2.429   2.163  0.00  0.00    +0.104 C 
BRANCH  26  27
ATOM     27  N   UNL     1       8.376  -1.889   3.310  0.00  0.00    -0.311 N 
ATOM     28  C   UNL     1       9.358  -0.986   3.117  0.00  0.00    +0.247 C 
ATOM     29  O   UNL     1       9.634  -0.619   1.991  0.00  0.00    -0.270 OA
ATOM     30  H   UNL     1       8.156  -2.182   4.208  0.00  0.00    +0.149 HD
BRANCH  28  31
ATOM     31  C   UNL     1      10.098  -0.442   4.273  0.00  0.00    +0.072 A 
ATOM     32  C   UNL     1       9.788  -0.865   5.568  0.00  0.00    +0.016 A 
ATOM     33  C   UNL     1      10.483  -0.354   6.643  0.00  0.00    +0.001 A 
ATOM     34  C   UNL     1      11.487   0.579   6.443  0.00  0.00    +0.003 A 
ATOM     35  C   UNL     1      11.801   1.004   5.167  0.00  0.00    +0.039 A 
ATOM     36  C   UNL     1      11.117   0.496   4.077  0.00  0.00    +0.135 A 
ATOM     37  F   UNL     1      11.428   0.907   2.829  0.00  0.00    -0.205 F 
ENDBRANCH  28  31
ENDBRANCH  26  27
ENDBRANCH  25  26
ENDBRANCH  24  25
ENDBRANCH  23  24
ENDBRANCH  22  23
ENDBRANCH   9  22
TORSDOF 13
