REMARK  Name = ZINC01040350
REMARK  4 active torsions:
REMARK  status: ('A' for Active; 'I' for Inactive)
REMARK    1  A    between atoms: C_1  and  C_2
REMARK    2  A    between atoms: C_4  and  C_23
REMARK    3  A    between atoms: C_7  and  C_12
REMARK    4  A    between atoms: C_19  and  C_21
REMARK                            x       y       z     vdW  Elec       q    Type
REMARK                         _______ _______ _______ _____ _____    ______ ____
ROOT
ATOM      1  C   UNL     1       0.663  13.926  -0.510  0.00  0.00    +0.044 C 
ATOM      2  C   UNL     1      -0.140  12.652  -0.445  0.00  0.00    -0.048 A 
ATOM      3  C   UNL     1      -1.528  12.711  -0.494  0.00  0.00    +0.007 A 
ATOM      4  C   UNL     1      -2.273  11.570  -0.436  0.00  0.00    -0.041 A 
ATOM      5  C   UNL     1      -1.637  10.326  -0.328  0.00  0.00    +0.003 A 
ATOM      6  C   UNL     1      -2.112   8.995  -0.248  0.00  0.00    +0.041 A 
ATOM      7  C   UNL     1      -1.032   8.175  -0.155  0.00  0.00    +0.103 A 
ATOM      8  N   UNL     1       0.118   8.939  -0.167  0.00  0.00    -0.351 N 
ATOM      9  H   UNL     1       1.024   8.597  -0.108  0.00  0.00    +0.166 HD
ATOM     10  C   UNL     1      -0.231  10.264  -0.278  0.00  0.00    +0.048 A 
ATOM     11  C   UNL     1       0.508  11.443  -0.338  0.00  0.00    +0.029 A 
ATOM     12  C   UNL     1      -3.777  11.647  -0.489  0.00  0.00    +0.044 C 
ENDROOT
BRANCH   7  13
ATOM     13  C   UNL     1      -1.081   6.709  -0.052  0.00  0.00    +0.266 C 
ATOM     14  O   UNL     1      -2.154   6.136  -0.046  0.00  0.00    -0.268 OA
ATOM     15  N   UNL     1       0.062   6.002   0.035  0.00  0.00    -0.265 N 
ATOM     16  C   UNL     1       0.022   4.609   0.025  0.00  0.00    +0.125 A 
ATOM     17  C   UNL     1       1.210   3.886   0.008  0.00  0.00    +0.045 A 
ATOM     18  C   UNL     1       1.156   2.503   0.004  0.00  0.00    +0.020 A 
ATOM     19  C   UNL     1      -0.090   1.889   0.007  0.00  0.00    +0.039 A 
ATOM     20  C   UNL     1      -1.229   2.670   0.025  0.00  0.00    +0.054 A 
ATOM     21  N   UNL     1      -1.146   3.987   0.033  0.00  0.00    -0.236 NA
ATOM     22  C   UNL     1      -2.584   2.010   0.034  0.00  0.00    +0.067 C 
ATOM     23 BR   UNL     1      -0.225   0.003  -0.006  0.00  0.00    -0.048 Br
ATOM     24  H   UNL     1       0.914   6.462   0.104  0.00  0.00    +0.157 HD
ENDBRANCH   7  13
TORSDOF 1
