REMARK  Name = ZINC09049724
REMARK  5 active torsions:
REMARK  status: ('A' for Active; 'I' for Inactive)
REMARK    1  A    between atoms: C_5  and  C_7
REMARK    2  A    between atoms: C_11  and  S_13
REMARK    3  A    between atoms: S_13  and  C_14
REMARK    4  A    between atoms: C_14  and  C_15
REMARK    5  A    between atoms: C_18  and  C_20
REMARK                            x       y       z     vdW  Elec       q    Type
REMARK                         _______ _______ _______ _____ _____    ______ ____
ROOT
ATOM      1  S   UNL     1      -0.511  -5.628  -0.034  0.00  0.00    -0.077 S 
ENDROOT
BRANCH   1   6
ATOM      2  C   UNL     1       1.246  -2.165  -0.022  0.00  0.00    +0.183 A 
ATOM      3  N   UNL     1       2.328  -2.910  -0.032  0.00  0.00    -0.152 NA
ATOM      4  H   UNL     1       2.468  -5.037  -0.045  0.00  0.00    +0.191 HD
ATOM      5  N   UNL     1       1.903  -4.249  -0.038  0.00  0.00    -0.253 N 
ATOM      6  C   UNL     1       0.552  -4.222  -0.031  0.00  0.00    +0.185 A 
ATOM      7  N   UNL     1       0.169  -2.965  -0.016  0.00  0.00    -0.201 NA
BRANCH   2  12
ATOM      8  C   UNL     1      -0.017   1.376   0.010  0.00  0.00    +0.001 A 
ATOM      9  C   UNL     1       1.170   2.087   0.002  0.00  0.00    +0.001 A 
ATOM     10  C   UNL     1       2.382   1.420  -0.013  0.00  0.00    +0.016 A 
ATOM     11  C   UNL     1       2.413   0.039  -0.022  0.00  0.00    +0.029 A 
ATOM     12  C   UNL     1       1.220  -0.682  -0.014  0.00  0.00    +0.035 A 
ATOM     13  C   UNL     1       0.002  -0.004   0.002  0.00  0.00    +0.013 A 
ATOM     14 BR   UNL     1       4.070  -0.871  -0.044  0.00  0.00    -0.050 Br
ENDBRANCH   2  12
ENDBRANCH   1   6
BRANCH   1  15
ATOM     15  C   UNL     1      -2.179  -4.917  -0.022  0.00  0.00    +0.175 C 
BRANCH  15  16
ATOM     16  C   UNL     1      -3.199  -6.027  -0.024  0.00  0.00    +0.228 A 
ATOM     17  N   UNL     1      -3.719  -6.596   1.028  0.00  0.00    -0.111 NA
ATOM     18  N   UNL     1      -4.553  -7.503   0.658  0.00  0.00    -0.107 NA
ATOM     19  C   UNL     1      -4.594  -7.544  -0.653  0.00  0.00    +0.249 A 
ATOM     20  O   UNL     1      -3.741  -6.605  -1.109  0.00  0.00    -0.419 OA
BRANCH  19  21
ATOM     21  C   UNL     1      -5.425  -8.447  -1.477  0.00  0.00    +0.052 A 
ATOM     22  C   UNL     1      -5.362  -8.383  -2.870  0.00  0.00    +0.014 A 
ATOM     23  C   UNL     1      -6.140  -9.229  -3.632  0.00  0.00    +0.001 A 
ATOM     24  C   UNL     1      -6.983 -10.140  -3.020  0.00  0.00    +0.001 A 
ATOM     25  C   UNL     1      -7.051 -10.209  -1.640  0.00  0.00    +0.016 A 
ATOM     26  C   UNL     1      -6.274  -9.372  -0.865  0.00  0.00    +0.030 A 
ATOM     27 BR   UNL     1      -6.363  -9.473   1.022  0.00  0.00    -0.050 Br
ENDBRANCH  19  21
ENDBRANCH  15  16
ENDBRANCH   1  15
TORSDOF 5
