REMARK  Name = ZINC57547930
REMARK  7 active torsions:
REMARK  status: ('A' for Active; 'I' for Inactive)
REMARK    1  A    between atoms: C_1  and  C_2
REMARK    2  A    between atoms: C_3  and  C_24
REMARK    3  A    between atoms: C_10  and  C_12
REMARK    4  A    between atoms: C_12  and  C_22
REMARK    5  A    between atoms: C_13  and  C_14
REMARK    6  A    between atoms: C_17  and  S_20
REMARK    7  A    between atoms: S_20  and  C_21
REMARK                            x       y       z     vdW  Elec       q    Type
REMARK                         _______ _______ _______ _____ _____    ______ ____
ROOT
ATOM      1  C   UNL     1       0.524   1.028  -0.407  0.00  0.00    +0.045 C 
ATOM      2  C   UNL     1      -0.512   0.051   0.087  0.00  0.00    -0.026 A 
ATOM      3  C   UNL     1      -1.685  -0.073  -0.551  0.00  0.00    -0.008 A 
ATOM      4  S   UNL     1      -2.543  -1.320   0.392  0.00  0.00    -0.073 S 
ATOM      5  C   UNL     1      -1.302  -1.641   1.618  0.00  0.00    +0.116 A 
ATOM      6  C   UNL     1      -0.248  -0.770   1.255  0.00  0.00    +0.077 A 
ATOM      7  C   UNL     1       0.904  -0.823   2.086  0.00  0.00    +0.282 A 
ATOM      8  O   UNL     1       1.969  -0.026   1.830  0.00  0.00    -0.265 OA
ATOM      9  N   UNL     1       0.926  -1.656   3.109  0.00  0.00    -0.188 NA
ATOM     10  C   UNL     1      -0.100  -2.454   3.393  0.00  0.00    +0.175 A 
ATOM     11  N   UNL     1      -1.206  -2.441   2.658  0.00  0.00    -0.219 NA
ATOM     12  C   UNL     1      -2.165   0.665  -1.774  0.00  0.00    +0.052 C 
ENDROOT
BRANCH  10  13
ATOM     13  C   UNL     1      -0.010  -3.365   4.555  0.00  0.00    +0.096 C 
ATOM     14  C   UNL     1       0.198  -2.859   5.804  0.00  0.00    +0.030 C 
BRANCH  14  15
ATOM     15  C   UNL     1       0.180  -1.410   6.020  0.00  0.00    -0.024 A 
ATOM     16  C   UNL     1      -0.623  -0.589   5.215  0.00  0.00    +0.009 A 
ATOM     17  C   UNL     1      -0.637   0.761   5.420  0.00  0.00    +0.015 A 
ATOM     18  C   UNL     1       0.146   1.323   6.426  0.00  0.00    +0.008 A 
ATOM     19  C   UNL     1       0.946   0.512   7.229  0.00  0.00    +0.015 A 
ATOM     20  C   UNL     1       0.961  -0.840   7.035  0.00  0.00    +0.009 A 
BRANCH  18  21
ATOM     21  S   UNL     1       0.125   3.066   6.685  0.00  0.00    -0.129 S 
ATOM     22  C   UNL     1       1.273   3.318   8.067  0.00  0.00    +0.090 C 
ENDBRANCH  18  21
ENDBRANCH  14  15
BRANCH  13  23
ATOM     23  C   UNL     1      -0.142  -4.779   4.367  0.00  0.00    +0.103 C 
ATOM     24  N   UNL     1      -0.246  -5.900   4.219  0.00  0.00    -0.191 NA
ENDBRANCH  13  23
ENDBRANCH  10  13
TORSDOF 4
