REMARK  Name = ZINC12554356
REMARK  5 active torsions:
REMARK  status: ('A' for Active; 'I' for Inactive)
REMARK    1  A    between atoms: C_1  and  C_2
REMARK    2  A    between atoms: C_4  and  C_30
REMARK    3  A    between atoms: C_8  and  N_19
REMARK    4  A    between atoms: C_9  and  C_11
REMARK    5  A    between atoms: C_20  and  C_22
REMARK                            x       y       z     vdW  Elec       q    Type
REMARK                         _______ _______ _______ _____ _____    ______ ____
ROOT
ATOM      1  C   UNL     1      -2.667   4.657   0.822  0.00  0.00    +0.044 C 
ATOM      2  C   UNL     1      -1.309   4.185   1.272  0.00  0.00    -0.037 A 
ATOM      3  C   UNL     1      -1.188   3.323   2.336  0.00  0.00    +0.027 A 
ATOM      4  C   UNL     1       0.064   2.893   2.752  0.00  0.00    +0.040 A 
ATOM      5  N   UNL     1       1.151   3.298   2.125  0.00  0.00    -0.245 NA
ATOM      6  C   UNL     1       1.087   4.118   1.099  0.00  0.00    +0.111 A 
ATOM      7  C   UNL     1      -0.138   4.617   0.601  0.00  0.00    +0.033 A 
ATOM      8  C   UNL     1      -0.023   5.513  -0.540  0.00  0.00    +0.063 A 
ATOM      9  C   UNL     1       1.234   5.792  -1.027  0.00  0.00    +0.098 A 
ATOM     10  S   UNL     1       2.309   4.854   0.041  0.00  0.00    -0.062 S 
ATOM     11  C   UNL     1       0.181   1.953   3.924  0.00  0.00    +0.065 C 
ENDROOT
BRANCH   9  12
ATOM     12  C   UNL     1       1.599   6.653  -2.151  0.00  0.00    +0.255 C 
ATOM     13  O   UNL     1       1.207   6.389  -3.273  0.00  0.00    -0.269 OA
ATOM     14  N   UNL     1       2.370   7.739  -1.945  0.00  0.00    -0.293 N 
ATOM     15  C   UNL     1       2.938   8.025  -0.618  0.00  0.00    +0.136 C 
ATOM     16  C   UNL     1       4.444   8.281  -0.786  0.00  0.00    +0.179 C 
ATOM     17  O   UNL     1       4.641   9.280  -1.788  0.00  0.00    -0.377 OA
ATOM     18  C   UNL     1       4.179   8.905  -3.088  0.00  0.00    +0.179 C 
ATOM     19  C   UNL     1       2.664   8.678  -3.040  0.00  0.00    +0.136 C 
ENDBRANCH   9  12
BRANCH   8  20
ATOM     20  N   UNL     1      -1.154   6.073  -1.123  0.00  0.00    -0.280 N 
ATOM     21  C   UNL     1      -1.351   7.405  -1.069  0.00  0.00    +0.248 C 
ATOM     22  O   UNL     1      -0.497   8.127  -0.592  0.00  0.00    -0.270 OA
ATOM     23  H   UNL     1      -1.802   5.505  -1.569  0.00  0.00    +0.155 HD
BRANCH  21  24
ATOM     24  C   UNL     1      -2.605   7.988  -1.590  0.00  0.00    +0.040 A 
ATOM     25  C   UNL     1      -3.585   7.163  -2.144  0.00  0.00    +0.033 A 
ATOM     26  C   UNL     1      -4.757   7.713  -2.625  0.00  0.00    +0.043 A 
ATOM     27  C   UNL     1      -4.956   9.082  -2.568  0.00  0.00    +0.040 A 
ATOM     28  C   UNL     1      -3.986   9.907  -2.024  0.00  0.00    +0.043 A 
ATOM     29  C   UNL     1      -2.812   9.368  -1.536  0.00  0.00    +0.033 A 
ATOM     30 CL   UNL     1      -4.245  11.622  -1.957  0.00  0.00    -0.083 Cl
ATOM     31 CL   UNL     1      -5.979   6.688  -3.309  0.00  0.00    -0.083 Cl
ENDBRANCH  21  24
ENDBRANCH   8  20
TORSDOF 3
