REMARK  Name = ZINC12367818
REMARK  3 active torsions:
REMARK  status: ('A' for Active; 'I' for Inactive)
REMARK    1  A    between atoms: C_5  and  C_7
REMARK    2  A    between atoms: C_7  and  C_18
REMARK    3  A    between atoms: C_8  and  C_9
REMARK                            x       y       z     vdW  Elec       q    Type
REMARK                         _______ _______ _______ _____ _____    ______ ____
ROOT
ATOM      1  C   UNL     1       0.124   5.361  -0.341  0.00  0.00    +0.078 C 
ATOM      2  C   UNL     1       1.274   5.925   0.124  0.00  0.00    +0.029 C 
ENDROOT
BRANCH   2   3
ATOM      3  C   UNL     1       2.525   5.158   0.108  0.00  0.00    -0.020 A 
ATOM      4  C   UNL     1       2.534   3.820   0.521  0.00  0.00    +0.012 A 
ATOM      5  C   UNL     1       3.709   3.102   0.501  0.00  0.00    +0.050 A 
ATOM      6  C   UNL     1       4.889   3.703   0.082  0.00  0.00    +0.166 A 
ATOM      7  C   UNL     1       4.889   5.038  -0.327  0.00  0.00    +0.167 A 
ATOM      8  C   UNL     1       3.715   5.764  -0.314  0.00  0.00    +0.057 A 
ATOM      9  O   UNL     1       6.160   5.384  -0.686  0.00  0.00    -0.453 OA
ATOM     10  C   UNL     1       6.855   4.139  -0.883  0.00  0.00    +0.466 C 
ATOM     11  O   UNL     1       6.160   3.217  -0.023  0.00  0.00    -0.453 OA
ENDBRANCH   2   3
BRANCH   1  16
ATOM     12  C   UNL     1      -0.946   2.169  -1.994  0.00  0.00    +0.004 A 
ATOM     13  C   UNL     1       0.295   1.710  -2.417  0.00  0.00    +0.020 A 
ATOM     14  C   UNL     1       1.424   2.461  -2.150  0.00  0.00    +0.111 A 
ATOM     15  N   UNL     1       1.338   3.603  -1.496  0.00  0.00    -0.254 NA
ATOM     16  C   UNL     1       0.172   4.075  -1.071  0.00  0.00    +0.081 A 
ATOM     17  C   UNL     1      -1.007   3.367  -1.306  0.00  0.00    +0.029 A 
ENDBRANCH   1  16
BRANCH   1  18
ATOM     18  C   UNL     1      -1.132   6.013  -0.123  0.00  0.00    +0.101 C 
ATOM     19  N   UNL     1      -2.129   6.531   0.050  0.00  0.00    -0.191 NA
ENDBRANCH   1  18
TORSDOF 3
