REMARK  Name = ZINC12907307
REMARK  6 active torsions:
REMARK  status: ('A' for Active; 'I' for Inactive)
REMARK    1  A    between atoms: C_1  and  C_2
REMARK    2  A    between atoms: N_4  and  C_5
REMARK    3  A    between atoms: C_9  and  C_11
REMARK    4  A    between atoms: N_13  and  C_14
REMARK    5  A    between atoms: C_17  and  S_20
REMARK    6  A    between atoms: S_20  and  N_23
REMARK                            x       y       z     vdW  Elec       q    Type
REMARK                         _______ _______ _______ _____ _____    ______ ____
ROOT
ATOM      1  C   UNL     1      -4.759  -6.698  -0.006  0.00  0.00    +0.034 A 
ATOM      2  C   UNL     1      -5.975  -6.027   0.025  0.00  0.00    +0.025 A 
ATOM      3  C   UNL     1      -7.152  -6.738   0.154  0.00  0.00    +0.031 A 
ATOM      4  C   UNL     1      -7.120  -8.117   0.253  0.00  0.00    +0.113 A 
ATOM      5  C   UNL     1      -5.912  -8.788   0.224  0.00  0.00    +0.031 A 
ATOM      6  C   UNL     1      -4.732  -8.083   0.088  0.00  0.00    +0.025 A 
ENDROOT
BRANCH   1   9
ATOM      7  C   UNL     1      -2.531  -6.513  -0.816  0.00  0.00    +0.248 C 
ATOM      8  O   UNL     1      -2.664  -7.574  -1.394  0.00  0.00    -0.270 OA
ATOM      9  N   UNL     1      -3.566  -5.981  -0.136  0.00  0.00    -0.282 N 
ATOM     10  H   UNL     1      -3.483  -5.100   0.263  0.00  0.00    +0.155 HD
BRANCH   7  15
ATOM     11  C   UNL     1       1.053  -5.686  -1.596  0.00  0.00    +0.034 A 
ATOM     12  C   UNL     1       1.198  -4.473  -0.933  0.00  0.00    +0.023 A 
ATOM     13  C   UNL     1       0.135  -3.929  -0.237  0.00  0.00    +0.003 A 
ATOM     14  C   UNL     1      -1.078  -4.587  -0.196  0.00  0.00    +0.013 A 
ATOM     15  C   UNL     1      -1.233  -5.805  -0.859  0.00  0.00    +0.039 A 
ATOM     16  C   UNL     1      -0.162  -6.351  -1.566  0.00  0.00    +0.036 A 
BRANCH  11  20
ATOM     17  C   UNL     1       3.087  -7.403  -4.258  0.00  0.00    +0.109 C 
ATOM     18  C   UNL     1       1.919  -6.904  -3.448  0.00  0.00    +0.214 C 
ATOM     19  O   UNL     1       0.785  -7.108  -3.829  0.00  0.00    -0.276 OA
ATOM     20  N   UNL     1       2.133  -6.232  -2.299  0.00  0.00    -0.286 N 
ATOM     21  H   UNL     1       3.036  -6.127  -1.960  0.00  0.00    +0.155 HD
ENDBRANCH  11  20
ENDBRANCH   7  15
ENDBRANCH   1   9
BRANCH   4  22
ATOM     22  S   UNL     1      -8.624  -9.021   0.417  0.00  0.00    +0.100 S 
ATOM     23  O   UNL     1      -8.290 -10.254   1.039  0.00  0.00    -0.146 OA
ATOM     24  O   UNL     1      -9.579  -8.124   0.967  0.00  0.00    -0.146 OA
BRANCH  22  25
ATOM     25  N   UNL     1      -9.145  -9.388  -1.111  0.00  0.00    -0.118 NA
ATOM     26  C   UNL     1     -10.239 -10.056  -1.279  0.00  0.00    +0.117 C 
ATOM     27  N   UNL     1     -11.008 -10.476  -0.183  0.00  0.00    -0.331 N 
ATOM     28  C   UNL     1     -12.289  -9.858  -0.005  0.00  0.00    +0.102 C 
ATOM     29  C   UNL     1     -13.464 -10.530  -0.734  0.00  0.00    +0.019 C 
ATOM     30  C   UNL     1     -13.040 -10.964  -2.160  0.00  0.00    +0.002 C 
ATOM     31  C   UNL     1     -12.165  -9.952  -2.845  0.00  0.00    +0.008 C 
ATOM     32  C   UNL     1     -10.717 -10.390  -2.604  0.00  0.00    +0.073 C 
ATOM     33  H   UNL     1     -10.686 -11.157   0.429  0.00  0.00    +0.147 HD
ENDBRANCH  22  25
ENDBRANCH   4  22
TORSDOF 5
