REMARK  Name = ZINC16000464
REMARK  4 active torsions:
REMARK  status: ('A' for Active; 'I' for Inactive)
REMARK    1  A    between atoms: C_1  and  C_2
REMARK    2  A    between atoms: C_4  and  C_37
REMARK    3  A    between atoms: N_21  and  C_24
REMARK    4  A    between atoms: C_27  and  N_31
REMARK                            x       y       z     vdW  Elec       q    Type
REMARK                         _______ _______ _______ _____ _____    ______ ____
ROOT
ATOM      1  C   UNL     1      -1.896   7.201  -1.877  0.00  0.00    +0.044 C 
ATOM      2  C   UNL     1      -1.111   6.070  -2.490  0.00  0.00    -0.050 A 
ATOM      3  C   UNL     1      -0.730   6.131  -3.818  0.00  0.00    +0.008 A 
ATOM      4  C   UNL     1      -0.012   5.099  -4.386  0.00  0.00    -0.029 A 
ATOM      5  C   UNL     1       0.336   3.986  -3.624  0.00  0.00    +0.039 A 
ATOM      6  C   UNL     1      -0.052   3.936  -2.289  0.00  0.00    -0.027 A 
ATOM      7  C   UNL     1      -0.769   4.968  -1.726  0.00  0.00    +0.008 A 
ATOM      8  C   UNL     1       0.469   2.630  -1.757  0.00  0.00    +0.053 C 
ATOM      9  C   UNL     1      -0.669   1.747  -1.232  0.00  0.00    +0.089 C 
ATOM     10  C   UNL     1      -0.066   1.021   0.002  0.00  0.00    +0.074 C 
ATOM     11  C   UNL     1       1.383   1.534   0.104  0.00  0.00    -0.054 C 
ATOM     12  N   UNL     1       1.388   2.838  -0.626  0.00  0.00    +0.395 N 
ATOM     13  C   UNL     1       0.797   3.805   0.330  0.00  0.00    -0.076 C 
ATOM     14  C   UNL     1       1.329   3.384   1.714  0.00  0.00    -0.020 C 
ATOM     15  C   UNL     1       1.702   1.869   1.573  0.00  0.00    -0.016 C 
ATOM     16  C   UNL     1      -0.871   1.553   1.166  0.00  0.00    +0.228 C 
ATOM     17  O   UNL     1      -0.712   1.244   2.327  0.00  0.00    -0.275 OA
ATOM     18  N   UNL     1      -1.793   2.421   0.692  0.00  0.00    -0.209 N 
ATOM     19  C   UNL     1      -1.762   2.602  -0.633  0.00  0.00    +0.229 C 
ATOM     20  O   UNL     1      -2.497   3.338  -1.257  0.00  0.00    -0.275 OA
ATOM     21  C   UNL     1       1.169   1.986  -2.923  0.00  0.00    +0.212 C 
ATOM     22  O   UNL     1       1.734   0.913  -2.926  0.00  0.00    -0.277 OA
ATOM     23  N   UNL     1       1.047   2.832  -3.964  0.00  0.00    -0.286 N 
ATOM     24  C   UNL     1       0.397   5.175  -5.834  0.00  0.00    +0.045 C 
ATOM     25  H   UNL     1       1.431   2.704  -4.987  0.00  0.00    +0.155 HD
ATOM     26  H   UNL     1       2.367   3.190  -0.983  0.00  0.00    -0.079 HD
ENDROOT
BRANCH  18  27
ATOM     27  C   UNL     1      -2.703   3.085   1.528  0.00  0.00    +0.062 A 
ATOM     28  C   UNL     1      -2.379   4.324   2.063  0.00  0.00    +0.027 A 
ATOM     29  C   UNL     1      -3.277   4.976   2.886  0.00  0.00    +0.034 A 
ATOM     30  C   UNL     1      -4.498   4.396   3.177  0.00  0.00    +0.128 A 
ATOM     31  C   UNL     1      -4.825   3.162   2.645  0.00  0.00    +0.054 A 
ATOM     32  C   UNL     1      -3.932   2.507   1.817  0.00  0.00    +0.065 A 
ATOM     33 CL   UNL     1      -4.345   0.961   1.144  0.00  0.00    -0.082 Cl
BRANCH  30  34
ATOM     34  N   UNL     1      -5.458   5.097   4.059  0.00  0.00    +0.056 N 
ATOM     35  O   UNL     1      -5.171   6.184   4.527  0.00  0.00    -0.126 OA
ATOM     36  O   UNL     1      -6.534   4.588   4.316  0.00  0.00    -0.126 OA
ENDBRANCH  30  34
ENDBRANCH  18  27
TORSDOF 2
