REMARK  Name = ZINC40722993
REMARK  9 active torsions:
REMARK  status: ('A' for Active; 'I' for Inactive)
REMARK    1  A    between atoms: C_1  and  C_2
REMARK    2  A    between atoms: C_2  and  C_3
REMARK    3  A    between atoms: C_3  and  C_4
REMARK    4  A    between atoms: C_4  and  O_5
REMARK    5  A    between atoms: O_5  and  C_6
REMARK    6  A    between atoms: C_9  and  N_12
REMARK    7  A    between atoms: C_14  and  N_27
REMARK    8  A    between atoms: C_15  and  S_19
REMARK    9  A    between atoms: S_19  and  C_20
REMARK                            x       y       z     vdW  Elec       q    Type
REMARK                         _______ _______ _______ _____ _____    ______ ____
ROOT
ATOM      1  N   UNL     1      -3.405  -8.044   0.018  0.00  0.00    -0.298 N 
ATOM      2  C   UNL     1      -4.677  -8.595   0.127  0.00  0.00    +0.148 A 
ATOM      3  C   UNL     1      -4.845  -9.978   0.220  0.00  0.00    +0.098 A 
ATOM      4  C   UNL     1      -6.144 -10.479   0.328  0.00  0.00    +0.127 A 
ATOM      5  N   UNL     1      -7.165  -9.624   0.339  0.00  0.00    -0.227 NA
ATOM      6  C   UNL     1      -6.962  -8.325   0.249  0.00  0.00    +0.224 A 
ATOM      7  N   UNL     1      -5.753  -7.812   0.151  0.00  0.00    -0.219 NA
ATOM      8  H   UNL     1      -2.632  -8.623  -0.074  0.00  0.00    +0.154 HD
ENDROOT
BRANCH   1  12
ATOM      9  C   UNL     1      -2.913  -3.905   0.085  0.00  0.00    +0.121 A 
ATOM     10  C   UNL     1      -3.933  -4.494   0.818  0.00  0.00    +0.047 A 
ATOM     11  C   UNL     1      -4.097  -5.865   0.796  0.00  0.00    +0.027 A 
ATOM     12  C   UNL     1      -3.240  -6.654   0.040  0.00  0.00    +0.033 A 
ATOM     13  C   UNL     1      -2.219  -6.064  -0.694  0.00  0.00    +0.027 A 
ATOM     14  C   UNL     1      -2.060  -4.692  -0.675  0.00  0.00    +0.047 A 
BRANCH   9  15
ATOM     15  O   UNL     1      -2.752  -2.555   0.107  0.00  0.00    -0.492 OA
BRANCH  15  16
ATOM     16  C   UNL     1      -3.666  -1.806   0.910  0.00  0.00    +0.229 C 
BRANCH  16  17
ATOM     17  C   UNL     1      -3.331  -0.317   0.810  0.00  0.00    +0.041 C 
BRANCH  17  19
ATOM     18  C   UNL     1      -3.974   1.975   1.570  0.00  0.00    +0.004 C 
ATOM     19  C   UNL     1      -4.309   0.485   1.671  0.00  0.00    -0.000 C 
ENDBRANCH  17  19
ENDBRANCH  16  17
ENDBRANCH  15  16
ENDBRANCH   9  15
ENDBRANCH   1  12
BRANCH   3  20
ATOM     20  N   UNL     1      -3.738 -10.842   0.204  0.00  0.00    -0.353 N 
ATOM     21  H   UNL     1      -2.841 -10.480   0.128  0.00  0.00    +0.142 HD
ATOM     22  H   UNL     1      -3.870 -11.800   0.269  0.00  0.00    +0.142 HD
ENDBRANCH   3  20
BRANCH   4  23
ATOM     23  S   UNL     1      -6.427 -12.213   0.448  0.00  0.00    -0.068 S 
BRANCH  23  24
ATOM     24  C   UNL     1      -8.182 -12.362   0.406  0.00  0.00    +0.014 A 
ATOM     25  C   UNL     1      -8.847 -12.422  -0.813  0.00  0.00    +0.016 A 
ATOM     26  C   UNL     1     -10.223 -12.539  -0.842  0.00  0.00    +0.021 A 
ATOM     27  C   UNL     1     -10.939 -12.597   0.341  0.00  0.00    +0.041 A 
ATOM     28  C   UNL     1     -10.280 -12.538   1.556  0.00  0.00    +0.021 A 
ATOM     29  C   UNL     1      -8.904 -12.426   1.592  0.00  0.00    +0.016 A 
ATOM     30 CL   UNL     1     -12.669 -12.744   0.299  0.00  0.00    -0.084 Cl
ENDBRANCH  23  24
ENDBRANCH   4  23
TORSDOF 8
