REMARK  Name = ZINC09138503
REMARK  7 active torsions:
REMARK  status: ('A' for Active; 'I' for Inactive)
REMARK    1  A    between atoms: C_3  and  N_14
REMARK    2  A    between atoms: C_4  and  N_11
REMARK    3  A    between atoms: C_6  and  S_7
REMARK    4  A    between atoms: S_7  and  N_10
REMARK    5  A    between atoms: N_14  and  N_15
REMARK    6  A    between atoms: C_16  and  C_17
REMARK    7  A    between atoms: C_21  and  N_23
REMARK                            x       y       z     vdW  Elec       q    Type
REMARK                         _______ _______ _______ _____ _____    ______ ____
ROOT
ATOM      1  C   UNL     1      -0.737   3.233   2.125  0.00  0.00    +0.030 A 
ATOM      2  C   UNL     1      -1.533   3.491   3.223  0.00  0.00    +0.029 A 
ATOM      3  C   UNL     1      -2.436   2.532   3.666  0.00  0.00    +0.079 A 
ATOM      4  C   UNL     1      -2.539   1.318   2.997  0.00  0.00    +0.150 A 
ATOM      5  C   UNL     1      -1.744   1.069   1.896  0.00  0.00    +0.063 A 
ATOM      6  C   UNL     1      -0.846   2.026   1.458  0.00  0.00    +0.107 A 
ENDROOT
BRANCH   6   7
ATOM      7  S   UNL     1       0.167   1.704   0.053  0.00  0.00    +0.056 S 
ATOM      8  O   UNL     1       0.266   0.291  -0.060  0.00  0.00    -0.153 OA
ATOM      9  O   UNL     1       1.308   2.541   0.174  0.00  0.00    -0.153 OA
BRANCH   7  10
ATOM     10  N   UNL     1      -0.665   2.228  -1.280  0.00  0.00    -0.204 NA
ATOM     11  H   UNL     1      -0.895   1.603  -1.985  0.00  0.00    +0.144 HD
ATOM     12  H   UNL     1      -0.922   3.160  -1.356  0.00  0.00    +0.144 HD
ENDBRANCH   7  10
ENDBRANCH   6   7
BRANCH   4  13
ATOM     13  N   UNL     1      -3.500   0.293   3.464  0.00  0.00    +0.058 N 
ATOM     14  O   UNL     1      -3.666  -0.725   2.817  0.00  0.00    -0.126 OA
ATOM     15  O   UNL     1      -4.124   0.469   4.495  0.00  0.00    -0.126 OA
ENDBRANCH   4  13
BRANCH   3  16
ATOM     16  N   UNL     1      -3.238   2.788   4.779  0.00  0.00    -0.236 N 
ATOM     17  H   UNL     1      -3.809   2.089   5.135  0.00  0.00    +0.174 HD
BRANCH  16  18
ATOM     18  N   UNL     1      -3.218   4.052   5.381  0.00  0.00    -0.190 NA
ATOM     19  C   UNL     1      -3.964   4.290   6.417  0.00  0.00    +0.142 C 
BRANCH  19  20
ATOM     20  C   UNL     1      -3.943   5.620   7.051  0.00  0.00    +0.045 A 
ATOM     21  C   UNL     1      -4.744   5.880   8.165  0.00  0.00    +0.033 A 
ATOM     22  C   UNL     1      -4.719   7.128   8.755  0.00  0.00    +0.044 A 
ATOM     23  C   UNL     1      -3.902   8.124   8.245  0.00  0.00    +0.056 A 
ATOM     24  C   UNL     1      -3.105   7.878   7.142  0.00  0.00    +0.175 A 
ATOM     25  C   UNL     1      -3.115   6.630   6.543  0.00  0.00    +0.218 A 
ATOM     26 CL   UNL     1      -5.715   7.450  10.139  0.00  0.00    -0.083 Cl
ATOM     27  O   UNL     1      -2.327   6.386   5.463  0.00  0.00    -0.285 OA
BRANCH  24  28
ATOM     28  N   UNL     1      -2.236   8.949   6.606  0.00  0.00    +0.060 N 
ATOM     29  O   UNL     1      -2.223  10.046   7.135  0.00  0.00    -0.126 OA
ATOM     30  O   UNL     1      -1.533   8.733   5.634  0.00  0.00    -0.126 OA
ENDBRANCH  24  28
ENDBRANCH  19  20
ENDBRANCH  16  18
ENDBRANCH   3  16
TORSDOF 7
