REMARK  Name = ZINC64155825
REMARK  4 active torsions:
REMARK  status: ('A' for Active; 'I' for Inactive)
REMARK    1  A    between atoms: C_1  and  C_2
REMARK    2  A    between atoms: C_7  and  N_12
REMARK    3  A    between atoms: C_13  and  C_15
REMARK    4  A    between atoms: C_18  and  C_20
REMARK                            x       y       z     vdW  Elec       q    Type
REMARK                         _______ _______ _______ _____ _____    ______ ____
ROOT
ATOM      1  N   UNL     1      -3.453  -3.407   3.479  0.00  0.00    -0.280 N 
ATOM      2  C   UNL     1      -3.276  -4.149   4.590  0.00  0.00    +0.265 C 
ATOM      3  O   UNL     1      -2.211  -4.119   5.178  0.00  0.00    -0.268 OA
ATOM      4  H   UNL     1      -4.324  -3.371   3.054  0.00  0.00    +0.155 HD
ENDROOT
BRANCH   1  10
ATOM      5  C   UNL     1       2.676  -2.134   0.483  0.00  0.00    +0.074 C 
ATOM      6  C   UNL     1       1.978  -1.640   1.752  0.00  0.00    +0.257 C 
ATOM      7  N   UNL     1       1.344  -2.765   2.451  0.00  0.00    -0.307 N 
ATOM      8  C   UNL     1      -0.028  -2.480   2.491  0.00  0.00    +0.074 A 
ATOM      9  C   UNL     1      -1.091  -3.193   3.028  0.00  0.00    +0.050 A 
ATOM     10  C   UNL     1      -2.381  -2.689   2.938  0.00  0.00    +0.036 A 
ATOM     11  C   UNL     1      -2.605  -1.471   2.310  0.00  0.00    +0.027 A 
ATOM     12  C   UNL     1      -1.548  -0.761   1.776  0.00  0.00    +0.049 A 
ATOM     13  C   UNL     1      -0.254  -1.260   1.863  0.00  0.00    +0.144 A 
ATOM     14  O   UNL     1       0.922  -0.738   1.414  0.00  0.00    -0.469 OA
ATOM     15  H   UNL     1       1.786  -3.550   2.813  0.00  0.00    +0.150 HD
ENDBRANCH   1  10
BRANCH   2  16
ATOM     16  C   UNL     1      -4.366  -4.992   5.090  0.00  0.00    +0.131 C 
ATOM     17  N   UNL     1      -5.559  -5.139   4.576  0.00  0.00    -0.148 NA
ATOM     18  N   UNL     1      -6.315  -5.941   5.218  0.00  0.00    -0.153 NA
ATOM     19  C   UNL     1      -5.757  -6.473   6.281  0.00  0.00    +0.077 C 
ATOM     20  C   UNL     1      -4.354  -5.890   6.316  0.00  0.00    +0.120 C 
BRANCH  19  21
ATOM     21  C   UNL     1      -6.356  -7.424   7.224  0.00  0.00    -0.002 A 
ATOM     22  C   UNL     1      -5.616  -7.891   8.318  0.00  0.00    +0.011 A 
ATOM     23  C   UNL     1      -6.185  -8.784   9.200  0.00  0.00    +0.016 A 
ATOM     24  C   UNL     1      -7.486  -9.220   9.006  0.00  0.00    +0.018 A 
ATOM     25  C   UNL     1      -8.225  -8.763   7.926  0.00  0.00    +0.016 A 
ATOM     26  C   UNL     1      -7.672  -7.866   7.039  0.00  0.00    +0.011 A 
ATOM     27 BR   UNL     1      -8.257 -10.447  10.222  0.00  0.00    -0.050 Br
ENDBRANCH  19  21
ENDBRANCH   2  16
TORSDOF 3
