REMARK  Name = ZINC12546879
REMARK  6 active torsions:
REMARK  status: ('A' for Active; 'I' for Inactive)
REMARK    1  A    between atoms: C_1  and  C_2
REMARK    2  A    between atoms: C_5  and  C_35
REMARK    3  A    between atoms: C_6  and  N_8
REMARK    4  A    between atoms: C_11  and  C_14
REMARK    5  A    between atoms: C_11  and  C_15
REMARK    6  A    between atoms: C_16  and  C_18
REMARK                            x       y       z     vdW  Elec       q    Type
REMARK                         _______ _______ _______ _____ _____    ______ ____
ROOT
ATOM      1  N   UNL     1       0.913   1.012   0.900  0.00  0.00    -0.226 NA
ATOM      2  C   UNL     1       0.047   1.204  -0.067  0.00  0.00    +0.164 C 
ATOM      3  N   UNL     1      -1.181   0.607  -0.213  0.00  0.00    -0.240 N 
ATOM      4  C   UNL     1      -2.017   0.939  -1.342  0.00  0.00    +0.048 C 
ATOM      5  C   UNL     1      -1.386   1.974  -2.294  0.00  0.00    +0.103 C 
ATOM      6  S   UNL     1       0.218   2.291  -1.467  0.00  0.00    -0.088 S 
ATOM      7  C   UNL     1      -2.305  -0.339  -2.131  0.00  0.00    +0.033 C 
ATOM      8  C   UNL     1      -3.341   1.501  -0.822  0.00  0.00    +0.033 C 
ATOM      9  C   UNL     1      -1.608  -0.286   0.702  0.00  0.00    +0.253 C 
ATOM     10  O   UNL     1      -1.173  -0.250   1.837  0.00  0.00    -0.270 OA
ENDROOT
BRANCH   9  11
ATOM     11  C   UNL     1      -2.608  -1.304   0.328  0.00  0.00    +0.039 A 
ATOM     12  C   UNL     1      -3.594  -1.004  -0.617  0.00  0.00    +0.015 A 
ATOM     13  C   UNL     1      -4.533  -1.950  -0.966  0.00  0.00    +0.026 A 
ATOM     14  C   UNL     1      -4.504  -3.204  -0.365  0.00  0.00    +0.062 A 
ATOM     15  C   UNL     1      -3.515  -3.503   0.562  0.00  0.00    +0.134 A 
ATOM     16  C   UNL     1      -2.576  -2.572   0.922  0.00  0.00    +0.044 A 
ATOM     17  S   UNL     1      -3.501  -5.137   1.230  0.00  0.00    +0.102 S 
ATOM     18  O   UNL     1      -2.164  -5.609   1.143  0.00  0.00    -0.146 OA
ATOM     19  O   UNL     1      -4.223  -5.091   2.453  0.00  0.00    -0.146 OA
ATOM     20  N   UNL     1      -4.400  -6.032   0.171  0.00  0.00    -0.118 NA
ATOM     21  C   UNL     1      -5.248  -5.480  -0.661  0.00  0.00    +0.124 C 
ATOM     22  N   UNL     1      -5.493  -4.155  -0.686  0.00  0.00    -0.286 N 
ATOM     23  C   UNL     1      -6.782  -3.556  -0.980  0.00  0.00    +0.112 C 
ATOM     24  C   UNL     1      -8.035  -4.263  -0.708  0.00  0.00    +0.019 C 
ATOM     25  C   UNL     1      -8.280  -5.697  -1.002  0.00  0.00    +0.002 C 
ATOM     26  C   UNL     1      -7.346  -6.455  -1.900  0.00  0.00    +0.008 C 
ATOM     27  C   UNL     1      -5.920  -6.415  -1.567  0.00  0.00    +0.073 C 
ENDBRANCH   9  11
BRANCH   1  33
ATOM     28  C   UNL     1       2.962   5.458   1.013  0.00  0.00    +0.044 C 
ATOM     29  C   UNL     1       3.073   3.955   1.032  0.00  0.00    -0.048 A 
ATOM     30  C   UNL     1       4.317   3.356   1.124  0.00  0.00    +0.004 A 
ATOM     31  C   UNL     1       4.428   1.977   1.142  0.00  0.00    +0.006 A 
ATOM     32  C   UNL     1       3.297   1.190   1.068  0.00  0.00    -0.025 A 
ATOM     33  C   UNL     1       2.039   1.788   0.975  0.00  0.00    +0.070 A 
ATOM     34  C   UNL     1       1.935   3.180   0.951  0.00  0.00    +0.031 A 
ATOM     35  C   UNL     1       3.420  -0.312   1.088  0.00  0.00    +0.046 C 
ENDBRANCH   1  33
TORSDOF 2
