REMARK  Name = ZINC13005204
REMARK  10 active torsions:
REMARK  status: ('A' for Active; 'I' for Inactive)
REMARK    1  A    between atoms: C_1  and  C_2
REMARK    2  A    between atoms: C_2  and  C_3
REMARK    3  A    between atoms: C_2  and  C_4
REMARK    4  A    between atoms: C_2  and  C_26
REMARK    5  A    between atoms: C_4  and  C_5
REMARK    6  A    between atoms: N_7  and  C_8
REMARK    7  A    between atoms: C_12  and  S_14
REMARK    8  A    between atoms: S_14  and  N_17
REMARK    9  A    between atoms: N_17  and  C_18
REMARK   10  A    between atoms: C_26  and  C_27
REMARK                            x       y       z     vdW  Elec       q    Type
REMARK                         _______ _______ _______ _____ _____    ______ ____
ROOT
ATOM      1  C   UNL     1      -2.316   0.926  -0.263  0.00  0.00    +0.035 A 
ATOM      2  C   UNL     1      -2.256  -0.460  -0.202  0.00  0.00    +0.025 A 
ATOM      3  C   UNL     1      -3.410  -1.192  -0.010  0.00  0.00    +0.024 A 
ATOM      4  C   UNL     1      -4.629  -0.546   0.110  0.00  0.00    +0.068 A 
ATOM      5  C   UNL     1      -4.692   0.834   0.045  0.00  0.00    +0.130 A 
ATOM      6  C   UNL     1      -3.539   1.571  -0.142  0.00  0.00    +0.053 A 
ATOM      7 CL   UNL     1      -6.080  -1.470   0.345  0.00  0.00    -0.082 Cl
ENDROOT
BRANCH   1  10
ATOM      8  C   UNL     1      -1.007   2.871   0.145  0.00  0.00    +0.218 C 
ATOM      9  O   UNL     1      -1.928   3.345   0.775  0.00  0.00    -0.275 OA
ATOM     10  N   UNL     1      -1.146   1.671  -0.453  0.00  0.00    -0.285 N 
ATOM     11  H   UNL     1      -0.340   1.277  -1.090  0.00  0.00    +0.155 HD
BRANCH   8  12
ATOM     12  C   UNL     1       0.296   3.621   0.036  0.00  0.00    +0.103 C 
BRANCH  12  14
ATOM     13  C   UNL     1      -0.936   5.787   0.210  0.00  0.00    +0.012 C 
ATOM     14  C   UNL     1       0.191   4.940   0.804  0.00  0.00    -0.016 C 
ATOM     15  C   UNL     1      -0.109   4.651   2.276  0.00  0.00    +0.012 C 
BRANCH  14  16
ATOM     16  C   UNL     1       1.514   5.701   0.693  0.00  0.00    +0.132 C 
BRANCH  16  17
ATOM     17  C   UNL     1       1.411   7.000   1.450  0.00  0.00    +0.357 C 
ATOM     18  O   UNL     1       0.384   7.288   2.019  0.00  0.00    -0.246 OA
ATOM     19  O   UNL     1       2.459   7.838   1.491  0.00  0.00    -0.246 OA
ENDBRANCH  16  17
ENDBRANCH  14  16
ENDBRANCH  12  14
ENDBRANCH   8  12
ENDBRANCH   1  10
BRANCH   5  20
ATOM     20  S   UNL     1      -6.245   1.652   0.200  0.00  0.00    +0.093 S 
ATOM     21  O   UNL     1      -6.875   1.113   1.354  0.00  0.00    -0.148 OA
ATOM     22  O   UNL     1      -5.988   3.042   0.051  0.00  0.00    -0.148 OA
BRANCH  20  23
ATOM     23  N   UNL     1      -7.168   1.200  -1.099  0.00  0.00    -0.098 NA
BRANCH  23  24
ATOM     24  C   UNL     1      -6.779   1.559  -2.391  0.00  0.00    +0.076 A 
ATOM     25  C   UNL     1      -6.808   0.618  -3.413  0.00  0.00    +0.027 A 
ATOM     26  C   UNL     1      -6.424   0.976  -4.690  0.00  0.00    +0.003 A 
ATOM     27  C   UNL     1      -6.011   2.269  -4.953  0.00  0.00    +0.020 A 
ATOM     28  C   UNL     1      -5.981   3.209  -3.938  0.00  0.00    +0.043 A 
ATOM     29  C   UNL     1      -6.369   2.858  -2.659  0.00  0.00    +0.046 A 
ATOM     30 CL   UNL     1      -5.463   4.832  -4.273  0.00  0.00    -0.083 Cl
ENDBRANCH  23  24
ENDBRANCH  20  23
ENDBRANCH   5  20
TORSDOF 8
