REMARK  Name = ZINC01293755
REMARK  12 active torsions:
REMARK  status: ('A' for Active; 'I' for Inactive)
REMARK    1  A    between atoms: C_1  and  C_2
REMARK    2  A    between atoms: C_5  and  C_7
REMARK    3  A    between atoms: C_9  and  C_38
REMARK    4  A    between atoms: C_10  and  S_26
REMARK    5  A    between atoms: C_12  and  C_25
REMARK    6  A    between atoms: C_13  and  C_14
REMARK    7  A    between atoms: N_16  and  C_17
REMARK    8  A    between atoms: C_22  and  O_23
REMARK    9  A    between atoms: O_23  and  C_24
REMARK   10  A    between atoms: S_26  and  C_27
REMARK   11  A    between atoms: C_27  and  C_28
REMARK   12  A    between atoms: N_30  and  C_31
REMARK                            x       y       z     vdW  Elec       q    Type
REMARK                         _______ _______ _______ _____ _____    ______ ____
ROOT
ATOM      1  C   UNL     1       1.474  -2.443   0.844  0.00  0.00    +0.134 C 
ATOM      2  C   UNL     1       2.784  -2.329   1.572  0.00  0.00    +0.072 C 
ATOM      3  C   UNL     1       3.892  -2.989   1.139  0.00  0.00    +0.080 C 
ATOM      4  N   UNL     1       3.839  -3.775   0.010  0.00  0.00    -0.312 N 
ATOM      5  C   UNL     1       2.811  -3.630  -0.882  0.00  0.00    +0.015 C 
ATOM      6  C   UNL     1       1.677  -3.004  -0.534  0.00  0.00    +0.047 C 
ATOM      7  C   UNL     1       2.956  -4.183  -2.277  0.00  0.00    +0.061 C 
ATOM      8  H   UNL     1       4.533  -4.433  -0.154  0.00  0.00    +0.152 HD
ENDROOT
BRANCH   1  13
ATOM      9  C   UNL     1       0.836   2.441  -0.243  0.00  0.00    +0.086 C 
ATOM     10  C   UNL     1       0.570   1.047   0.264  0.00  0.00    +0.102 A 
ATOM     11  C   UNL     1      -0.556   0.633   0.873  0.00  0.00    +0.044 A 
ATOM     12  C   UNL     1      -0.377  -0.736   1.178  0.00  0.00    +0.046 A 
ATOM     13  C   UNL     1       0.847  -1.077   0.736  0.00  0.00    +0.118 A 
ATOM     14  O   UNL     1       1.413   0.006   0.178  0.00  0.00    -0.464 OA
ENDBRANCH   1  13
BRANCH   6  15
ATOM     15  C   UNL     1       0.643  -2.869  -1.492  0.00  0.00    +0.247 C 
ATOM     16  O   UNL     1      -0.305  -3.632  -1.476  0.00  0.00    -0.270 OA
ATOM     17  N   UNL     1       0.709  -1.895  -2.421  0.00  0.00    -0.279 N 
ATOM     18  H   UNL     1       1.489  -1.320  -2.466  0.00  0.00    +0.155 HD
BRANCH  17  19
ATOM     19  C   UNL     1      -0.349  -1.713  -3.321  0.00  0.00    +0.076 A 
ATOM     20  C   UNL     1      -1.168  -2.782  -3.657  0.00  0.00    +0.027 A 
ATOM     21  C   UNL     1      -2.211  -2.600  -4.545  0.00  0.00    +0.002 A 
ATOM     22  C   UNL     1      -2.442  -1.355  -5.100  0.00  0.00    +0.004 A 
ATOM     23  C   UNL     1      -1.630  -0.286  -4.771  0.00  0.00    +0.047 A 
ATOM     24  C   UNL     1      -0.585  -0.458  -3.877  0.00  0.00    +0.141 A 
BRANCH  24  25
ATOM     25  O   UNL     1       0.211   0.594  -3.548  0.00  0.00    -0.493 OA
ATOM     26  C   UNL     1      -0.090   1.851  -4.157  0.00  0.00    +0.277 C 
ENDBRANCH  24  25
ENDBRANCH  17  19
ENDBRANCH   6  15
BRANCH   2  27
ATOM     27  C   UNL     1       2.868  -1.510   2.744  0.00  0.00    +0.098 C 
ATOM     28  N   UNL     1       2.934  -0.861   3.674  0.00  0.00    -0.191 NA
ENDBRANCH   2  27
BRANCH   3  29
ATOM     29  S   UNL     1       5.404  -2.837   2.029  0.00  0.00    -0.100 S 
BRANCH  29  30
ATOM     30  C   UNL     1       6.568  -3.870   1.097  0.00  0.00    +0.171 C 
BRANCH  30  31
ATOM     31  C   UNL     1       7.920  -3.827   1.760  0.00  0.00    +0.227 C 
ATOM     32  O   UNL     1       8.083  -3.165   2.763  0.00  0.00    -0.275 OA
ATOM     33  N   UNL     1       8.949  -4.525   1.239  0.00  0.00    -0.285 N 
ATOM     34  H   UNL     1       8.840  -4.993   0.397  0.00  0.00    +0.155 HD
BRANCH  33  35
ATOM     35  C   UNL     1      10.175  -4.574   1.913  0.00  0.00    +0.033 A 
ATOM     36  C   UNL     1      11.359  -4.680   1.196  0.00  0.00    +0.024 A 
ATOM     37  C   UNL     1      12.567  -4.727   1.864  0.00  0.00    +0.017 A 
ATOM     38  C   UNL     1      12.598  -4.669   3.246  0.00  0.00    +0.018 A 
ATOM     39  C   UNL     1      11.419  -4.564   3.963  0.00  0.00    +0.017 A 
ATOM     40  C   UNL     1      10.209  -4.510   3.300  0.00  0.00    +0.024 A 
ATOM     41 BR   UNL     1      14.254  -4.735   4.157  0.00  0.00    -0.050 Br
ENDBRANCH  33  35
ENDBRANCH  30  31
ENDBRANCH  29  30
ENDBRANCH   3  29
TORSDOF 9
