REMARK  Name = ZINC63137682
REMARK  7 active torsions:
REMARK  status: ('A' for Active; 'I' for Inactive)
REMARK    1  A    between atoms: C_1  and  C_2
REMARK    2  A    between atoms: C_5  and  N_8
REMARK    3  A    between atoms: C_28  and  C_30
REMARK    4  A    between atoms: C_32  and  O_38
REMARK    5  A    between atoms: C_35  and  O_36
REMARK    6  A    between atoms: O_36  and  C_37
REMARK    7  A    between atoms: O_38  and  C_39
REMARK                            x       y       z     vdW  Elec       q    Type
REMARK                         _______ _______ _______ _____ _____    ______ ____
ROOT
ATOM      1  N   UNL     1      -1.358  -2.098   2.449  0.00  0.00    -0.288 N 
ATOM      2  C   UNL     1      -1.442  -0.663   2.780  0.00  0.00    +0.204 C 
ATOM      3  C   UNL     1      -2.865  -0.346   3.188  0.00  0.00    +0.234 C 
ATOM      4  O   UNL     1      -3.434   0.646   2.785  0.00  0.00    -0.274 OA
ATOM      5  N   UNL     1      -3.481  -1.235   4.035  0.00  0.00    -0.279 N 
ATOM      6  C   UNL     1      -2.654  -2.330   4.496  0.00  0.00    +0.167 C 
ATOM      7  C   UNL     1      -1.957  -2.964   3.320  0.00  0.00    +0.237 C 
ATOM      8  O   UNL     1      -1.927  -4.166   3.158  0.00  0.00    -0.274 OA
ATOM      9  C   UNL     1      -3.270  -3.352   5.416  0.00  0.00    +0.065 C 
ATOM     10  C   UNL     1      -4.756  -3.136   5.500  0.00  0.00    -0.034 C 
ATOM     11  C   UNL     1      -5.778  -3.981   5.519  0.00  0.00    -0.001 A 
ATOM     12  C   UNL     1      -5.834  -5.452   5.510  0.00  0.00    +0.010 A 
ATOM     13  C   UNL     1      -7.075  -6.005   5.526  0.00  0.00    +0.001 A 
ATOM     14  C   UNL     1      -8.253  -5.252   5.551  0.00  0.00    +0.002 A 
ATOM     15  C   UNL     1      -8.295  -3.896   5.566  0.00  0.00    +0.026 A 
ATOM     16  C   UNL     1      -7.051  -3.200   5.554  0.00  0.00    +0.043 A 
ATOM     17  N   UNL     1      -6.802  -1.925   5.574  0.00  0.00    -0.375 N 
ATOM     18  C   UNL     1      -5.346  -1.730   5.580  0.00  0.00    +0.131 C 
ATOM     19  C   UNL     1      -4.889  -1.003   4.326  0.00  0.00    +0.137 C 
ATOM     20  H   UNL     1      -7.467  -1.219   5.582  0.00  0.00    +0.160 HD
ENDROOT
BRANCH   1  25
ATOM     21  C   UNL     1       3.106  -1.218   2.864  0.00  0.00    +0.007 C 
ATOM     22  C   UNL     1       2.085  -1.834   1.904  0.00  0.00    -0.014 C 
ATOM     23  C   UNL     1       1.046  -0.778   1.519  0.00  0.00    +0.005 C 
ATOM     24  C   UNL     1       0.026  -1.393   0.560  0.00  0.00    +0.023 C 
ATOM     25  C   UNL     1      -0.673  -2.570   1.244  0.00  0.00    +0.077 C 
ATOM     26  C   UNL     1       0.366  -3.626   1.629  0.00  0.00    +0.023 C 
ATOM     27  C   UNL     1       1.387  -3.011   2.588  0.00  0.00    +0.005 C 
ENDBRANCH   1  25
BRANCH  19  28
ATOM     28  C   UNL     1      -5.718  -1.517   3.177  0.00  0.00    +0.020 A 
ATOM     29  C   UNL     1      -5.226  -2.519   2.364  0.00  0.00    +0.054 A 
ATOM     30  C   UNL     1      -5.990  -2.993   1.308  0.00  0.00    +0.121 A 
ATOM     31  C   UNL     1      -7.248  -2.460   1.068  0.00  0.00    +0.049 A 
ATOM     32  C   UNL     1      -7.740  -1.457   1.881  0.00  0.00    +0.049 A 
ATOM     33  C   UNL     1      -6.978  -0.987   2.940  0.00  0.00    +0.125 A 
BRANCH  33  34
ATOM     34  O   UNL     1      -7.465  -0.004   3.744  0.00  0.00    -0.495 OA
ATOM     35  C   UNL     1      -8.769   0.495   3.442  0.00  0.00    +0.277 C 
ENDBRANCH  33  34
BRANCH  30  36
ATOM     36  O   UNL     1      -5.505  -3.980   0.507  0.00  0.00    -0.495 OA
ATOM     37  C   UNL     1      -6.346  -4.419  -0.562  0.00  0.00    +0.277 C 
ENDBRANCH  30  36
ENDBRANCH  19  28
TORSDOF 4
