REMARK  Name = ZINC08734749
REMARK  9 active torsions:
REMARK  status: ('A' for Active; 'I' for Inactive)
REMARK    1  A    between atoms: C_1  and  C_2
REMARK    2  A    between atoms: C_2  and  C_4
REMARK    3  A    between atoms: C_2  and  N_56
REMARK    4  A    between atoms: C_14  and  C_15
REMARK    5  A    between atoms: C_14  and  N_56
REMARK    6  A    between atoms: N_17  and  C_18
REMARK    7  A    between atoms: C_23  and  C_24
REMARK    8  A    between atoms: N_26  and  C_27
REMARK    9  A    between atoms: C_27  and  C_28
REMARK                            x       y       z     vdW  Elec       q    Type
REMARK                         _______ _______ _______ _____ _____    ______ ____
ROOT
ATOM      1  C   UNL     1       3.500   2.281   0.051  0.00  0.00    +0.200 C 
ATOM      2  O   UNL     1       3.450   3.480   0.227  0.00  0.00    -0.278 OA
ATOM      3  N   UNL     1       2.362   1.563  -0.025  0.00  0.00    -0.286 N 
ATOM      4  H   UNL     1       2.402   0.596  -0.089  0.00  0.00    +0.155 HD
ENDROOT
BRANCH   3   5
ATOM      5  C   UNL     1       1.129   2.210  -0.011  0.00  0.00    +0.045 A 
ATOM      6  C   UNL     1       0.983   3.449  -0.620  0.00  0.00    +0.024 A 
ATOM      7  C   UNL     1      -0.240   4.088  -0.605  0.00  0.00    +0.002 A 
ATOM      8  C   UNL     1      -1.331   3.500   0.016  0.00  0.00    +0.001 A 
ATOM      9  C   UNL     1      -1.206   2.268   0.621  0.00  0.00    +0.015 A 
ATOM     10  C   UNL     1       0.027   1.612   0.619  0.00  0.00    +0.058 A 
BRANCH  10  11
ATOM     11  C   UNL     1       0.168   0.296   1.270  0.00  0.00    +0.246 C 
ATOM     12  O   UNL     1       1.216  -0.315   1.185  0.00  0.00    -0.270 OA
ATOM     13  N   UNL     1      -0.865  -0.229   1.959  0.00  0.00    -0.304 N 
ATOM     14  H   UNL     1      -1.700   0.258   2.026  0.00  0.00    +0.149 HD
BRANCH  13  15
ATOM     15  C   UNL     1      -0.724  -1.536   2.605  0.00  0.00    +0.179 C 
BRANCH  15  16
ATOM     16  C   UNL     1      -2.011  -1.892   3.303  0.00  0.00    +0.122 A 
ATOM     17  C   UNL     1      -3.041  -2.566   2.760  0.00  0.00    +0.046 A 
ATOM     18  C   UNL     1      -4.033  -2.676   3.761  0.00  0.00    +0.041 A 
ATOM     19  C   UNL     1      -3.550  -2.064   4.857  0.00  0.00    +0.195 A 
ATOM     20  O   UNL     1      -2.323  -1.596   4.576  0.00  0.00    -0.466 OA
ENDBRANCH  15  16
ENDBRANCH  13  15
ENDBRANCH  10  11
ENDBRANCH   3   5
BRANCH   1  21
ATOM     21  C   UNL     1       4.835   1.595  -0.084  0.00  0.00    +0.016 C 
BRANCH  21  22
ATOM     22  N   UNL     1       5.909   2.598   0.035  0.00  0.00    +0.389 N 
ATOM     23  H   UNL     1       5.801   3.299  -0.708  0.00  0.00    -0.084 HD
ATOM     24  H   UNL     1       5.844   3.057   0.951  0.00  0.00    -0.084 HD
BRANCH  22  26
ATOM     25  C   UNL     1       7.669   1.413   1.269  0.00  0.00    -0.009 C 
ATOM     26  C   UNL     1       7.229   1.953  -0.094  0.00  0.00    -0.043 C 
BRANCH  26  27
ATOM     27  C   UNL     1       8.232   2.969  -0.578  0.00  0.00    -0.061 A 
ATOM     28  C   UNL     1       8.185   4.270  -0.081  0.00  0.00    +0.002 A 
ATOM     29  C   UNL     1       9.075   5.212  -0.498  0.00  0.00    +0.009 A 
ATOM     30  C   UNL     1      10.057   4.870  -1.443  0.00  0.00    -0.018 A 
ATOM     31  C   UNL     1      10.993   5.815  -1.897  0.00  0.00    +0.008 A 
ATOM     32  C   UNL     1      11.930   5.448  -2.813  0.00  0.00    +0.001 A 
ATOM     33  C   UNL     1      11.977   4.146  -3.310  0.00  0.00    +0.001 A 
ATOM     34  C   UNL     1      11.087   3.205  -2.894  0.00  0.00    +0.008 A 
ATOM     35  C   UNL     1      10.105   3.547  -1.948  0.00  0.00    -0.018 A 
ATOM     36  C   UNL     1       9.172   2.600  -1.490  0.00  0.00    +0.010 A 
ENDBRANCH  26  27
ENDBRANCH  22  26
ENDBRANCH  21  22
ENDBRANCH   1  21
TORSDOF 8
