REMARK  Name = ZINC62040944
REMARK  9 active torsions:
REMARK  status: ('A' for Active; 'I' for Inactive)
REMARK    1  A    between atoms: C_1  and  N_2
REMARK    2  A    between atoms: N_5  and  C_8
REMARK    3  A    between atoms: C_8  and  C_9
REMARK    4  A    between atoms: C_12  and  C_15
REMARK    5  A    between atoms: C_17  and  C_20
REMARK    6  A    between atoms: C_20  and  C_21
REMARK    7  A    between atoms: N_23  and  C_24
REMARK    8  A    between atoms: C_27  and  S_30
REMARK    9  A    between atoms: S_30  and  N_33
REMARK                            x       y       z     vdW  Elec       q    Type
REMARK                         _______ _______ _______ _____ _____    ______ ____
ROOT
ATOM      1  C   UNL     1       4.946  -5.732   4.189  0.00  0.00    +0.109 A 
ATOM      2  N   UNL     1       4.653  -6.045   5.443  0.00  0.00    -0.243 NA
ATOM      3  C   UNL     1       5.582  -6.443   6.280  0.00  0.00    +0.058 A 
ATOM      4  C   UNL     1       6.873  -6.539   5.865  0.00  0.00    +0.071 A 
ATOM      5  S   UNL     1       6.709  -6.027   4.159  0.00  0.00    -0.075 S 
ENDROOT
BRANCH   1   9
ATOM      6  C   UNL     1       2.382  -4.402   1.074  0.00  0.00    -0.033 A 
ATOM      7  C   UNL     1       3.735  -4.565   0.831  0.00  0.00    +0.005 A 
ATOM      8  C   UNL     1       4.573  -4.996   1.838  0.00  0.00    +0.011 A 
ATOM      9  C   UNL     1       4.054  -5.269   3.104  0.00  0.00    +0.007 A 
ATOM     10  C   UNL     1       2.689  -5.103   3.343  0.00  0.00    +0.011 A 
ATOM     11  C   UNL     1       1.863  -4.666   2.328  0.00  0.00    +0.005 A 
BRANCH   6  12
ATOM     12  C   UNL     1       1.473  -3.930  -0.031  0.00  0.00    +0.119 C 
BRANCH  12  17
ATOM     13  C   UNL     1       0.039   1.518   0.026  0.00  0.00    -0.096 C 
ATOM     14  N   UNL     1       0.049   0.050   0.014  0.00  0.00    +0.379 N 
ATOM     15  C   UNL     1       0.733  -0.425  -1.196  0.00  0.00    -0.064 C 
ATOM     16  C   UNL     1       0.727  -1.955  -1.218  0.00  0.00    +0.066 C 
ATOM     17  N   UNL     1       1.408  -2.463  -0.019  0.00  0.00    -0.302 NA
ATOM     18  C   UNL     1       0.749  -1.975   1.201  0.00  0.00    +0.066 C 
ATOM     19  C   UNL     1       0.755  -0.445   1.204  0.00  0.00    -0.064 C 
ATOM     20  H   UNL     1      -0.900  -0.293   0.020  0.00  0.00    -0.082 HD
ENDBRANCH  12  17
ENDBRANCH   6  12
ENDBRANCH   1   9
BRANCH   3  21
ATOM     21  C   UNL     1       5.218  -6.793   7.700  0.00  0.00    +0.152 C 
BRANCH  21  22
ATOM     22  C   UNL     1       4.502  -5.629   8.336  0.00  0.00    +0.223 C 
ATOM     23  O   UNL     1       4.306  -4.616   7.699  0.00  0.00    -0.275 OA
ATOM     24  N   UNL     1       4.079  -5.715   9.613  0.00  0.00    -0.285 N 
ATOM     25  H   UNL     1       4.175  -6.547  10.101  0.00  0.00    +0.155 HD
BRANCH  24  26
ATOM     26  C   UNL     1       3.500  -4.602  10.234  0.00  0.00    +0.034 A 
ATOM     27  C   UNL     1       3.719  -4.368  11.585  0.00  0.00    +0.025 A 
ATOM     28  C   UNL     1       3.146  -3.269  12.196  0.00  0.00    +0.030 A 
ATOM     29  C   UNL     1       2.356  -2.403  11.463  0.00  0.00    +0.105 A 
ATOM     30  C   UNL     1       2.136  -2.634  10.117  0.00  0.00    +0.030 A 
ATOM     31  C   UNL     1       2.711  -3.727   9.499  0.00  0.00    +0.025 A 
BRANCH  29  32
ATOM     32  S   UNL     1       1.628  -1.002  12.245  0.00  0.00    +0.056 S 
ATOM     33  O   UNL     1       0.490  -0.649  11.469  0.00  0.00    -0.153 OA
ATOM     34  O   UNL     1       1.540  -1.310  13.629  0.00  0.00    -0.153 OA
BRANCH  32  35
ATOM     35  N   UNL     1       2.702   0.250  12.106  0.00  0.00    -0.204 NA
ATOM     36  H   UNL     1       3.549   0.115  11.653  0.00  0.00    +0.144 HD
ATOM     37  H   UNL     1       2.485   1.119  12.478  0.00  0.00    +0.144 HD
ENDBRANCH  32  35
ENDBRANCH  29  32
ENDBRANCH  24  26
ENDBRANCH  21  22
ENDBRANCH   3  21
TORSDOF 8
