REMARK  Name = ZINC57673836
REMARK  7 active torsions:
REMARK  status: ('A' for Active; 'I' for Inactive)
REMARK    1  A    between atoms: C_1  and  C_2
REMARK    2  A    between atoms: C_4  and  S_24
REMARK    3  A    between atoms: C_6  and  N_9
REMARK    4  A    between atoms: C_7  and  C_8
REMARK    5  A    between atoms: C_10  and  C_12
REMARK    6  A    between atoms: C_13  and  C_14
REMARK    7  A    between atoms: S_24  and  N_27
REMARK                            x       y       z     vdW  Elec       q    Type
REMARK                         _______ _______ _______ _____ _____    ______ ____
ROOT
ATOM      1  N   UNL     1       0.050  -2.797   2.392  0.00  0.00    -0.282 N 
ATOM      2  C   UNL     1      -0.035  -4.142   2.384  0.00  0.00    +0.241 C 
ATOM      3  O   UNL     1      -0.032  -4.747   1.327  0.00  0.00    -0.270 OA
ATOM      4  H   UNL     1       0.129  -2.321   3.233  0.00  0.00    +0.155 HD
ENDROOT
BRANCH   1  10
ATOM      5  C   UNL     1       1.207   1.235  -0.171  0.00  0.00    +0.044 C 
ATOM      6  C   UNL     1       0.578  -0.132  -0.084  0.00  0.00    -0.044 A 
ATOM      7  C   UNL     1      -0.027  -0.686  -1.198  0.00  0.00    +0.032 A 
ATOM      8  C   UNL     1      -0.606  -1.939  -1.122  0.00  0.00    +0.107 A 
ATOM      9  C   UNL     1      -0.582  -2.642   0.066  0.00  0.00    +0.052 A 
ATOM     10  C   UNL     1       0.025  -2.088   1.187  0.00  0.00    +0.039 A 
ATOM     11  C   UNL     1       0.610  -0.831   1.106  0.00  0.00    -0.026 A 
ATOM     12  C   UNL     1       1.275  -0.229   2.317  0.00  0.00    +0.046 C 
BRANCH   8  13
ATOM     13  S   UNL     1      -1.375  -2.640  -2.544  0.00  0.00    +0.056 S 
ATOM     14  O   UNL     1      -2.320  -3.589  -2.068  0.00  0.00    -0.153 OA
ATOM     15  O   UNL     1      -1.743  -1.554  -3.384  0.00  0.00    -0.153 OA
BRANCH  13  16
ATOM     16  N   UNL     1      -0.214  -3.495  -3.358  0.00  0.00    -0.204 NA
ATOM     17  H   UNL     1       0.693  -3.530  -3.014  0.00  0.00    +0.144 HD
ATOM     18  H   UNL     1      -0.440  -3.961  -4.178  0.00  0.00    +0.144 HD
ENDBRANCH  13  16
ENDBRANCH   8  13
ENDBRANCH   1  10
BRANCH   2  19
ATOM     19  C   UNL     1      -0.130  -4.876   3.646  0.00  0.00    +0.068 C 
ATOM     20  C   UNL     1      -0.215  -6.223   3.638  0.00  0.00    +0.013 C 
BRANCH  20  21
ATOM     21  C   UNL     1      -0.311  -6.960   4.906  0.00  0.00    -0.020 A 
ATOM     22  C   UNL     1      -0.393  -8.358   4.902  0.00  0.00    +0.057 A 
ATOM     23  C   UNL     1      -0.483  -9.046   6.095  0.00  0.00    +0.168 A 
ATOM     24  C   UNL     1      -0.491  -8.349   7.304  0.00  0.00    +0.184 A 
ATOM     25  C   UNL     1      -0.410  -6.962   7.309  0.00  0.00    +0.087 A 
ATOM     26  C   UNL     1      -0.314  -6.268   6.122  0.00  0.00    +0.031 A 
ATOM     27 CL   UNL     1      -0.421  -6.100   8.817  0.00  0.00    -0.080 Cl
ATOM     28  O   UNL     1      -0.586  -9.250   8.324  0.00  0.00    -0.451 OA
ATOM     29  C   UNL     1      -1.048 -10.471   7.718  0.00  0.00    +0.466 C 
ATOM     30  O   UNL     1      -0.573 -10.382   6.362  0.00  0.00    -0.453 OA
ENDBRANCH  20  21
ENDBRANCH   2  19
TORSDOF 5
