REMARK  Name = ZINC41585547
REMARK  6 active torsions:
REMARK  status: ('A' for Active; 'I' for Inactive)
REMARK    1  A    between atoms: C_1  and  C_2
REMARK    2  A    between atoms: C_4  and  O_33
REMARK    3  A    between atoms: C_5  and  C_19
REMARK    4  A    between atoms: C_11  and  C_12
REMARK    5  A    between atoms: C_19  and  N_20
REMARK    6  A    between atoms: N_23  and  C_26
REMARK                            x       y       z     vdW  Elec       q    Type
REMARK                         _______ _______ _______ _____ _____    ______ ____
ROOT
ATOM      1  C   UNL     1      -0.480   1.834   0.205  0.00  0.00    +0.045 C 
ATOM      2  C   UNL     1      -0.343   0.339   0.073  0.00  0.00    -0.033 A 
ATOM      3  C   UNL     1      -0.346  -0.241  -1.165  0.00  0.00    +0.050 A 
ATOM      4  C   UNL     1      -0.219  -1.622  -1.290  0.00  0.00    +0.122 A 
ATOM      5  C   UNL     1      -0.088  -2.423  -0.166  0.00  0.00    +0.020 A 
ATOM      6  C   UNL     1      -0.083  -1.849   1.099  0.00  0.00    +0.145 A 
ATOM      7  C   UNL     1      -0.207  -0.454   1.212  0.00  0.00    +0.071 A 
ATOM      8  C   UNL     1      -0.161  -0.149   2.654  0.00  0.00    +0.232 C 
ATOM      9  O   UNL     1      -0.240   0.944   3.187  0.00  0.00    -0.283 OA
ATOM     10  C   UNL     1      -0.000  -1.460   3.304  0.00  0.00    +0.176 C 
ATOM     11  C   UNL     1       0.091  -1.687   4.637  0.00  0.00    +0.058 C 
ATOM     12  O   UNL     1       0.029  -2.398   2.328  0.00  0.00    -0.451 OA
ENDROOT
BRANCH  11  13
ATOM     13  C   UNL     1       0.138  -3.065   5.146  0.00  0.00    -0.021 A 
ATOM     14  C   UNL     1       0.098  -3.308   6.524  0.00  0.00    +0.008 A 
ATOM     15  C   UNL     1       0.141  -4.604   6.993  0.00  0.00    +0.001 A 
ATOM     16  C   UNL     1       0.225  -5.663   6.106  0.00  0.00    +0.000 A 
ATOM     17  C   UNL     1       0.266  -5.431   4.742  0.00  0.00    +0.001 A 
ATOM     18  C   UNL     1       0.217  -4.142   4.256  0.00  0.00    +0.008 A 
ENDBRANCH  11  13
BRANCH   4  19
ATOM     19  O   UNL     1      -0.224  -2.189  -2.523  0.00  0.00    -0.506 OA
ATOM     20  H   UNL     1       0.653  -2.269  -2.922  0.00  0.00    +0.292 HD
ENDBRANCH   4  19
BRANCH   5  21
ATOM     21  C   UNL     1       0.048  -3.916  -0.316  0.00  0.00    -0.035 C 
BRANCH  21  22
ATOM     22  N   UNL     1       1.469  -4.269  -0.431  0.00  0.00    +0.385 N 
ATOM     23  C   UNL     1       2.016  -3.693  -1.666  0.00  0.00    -0.059 C 
ATOM     24  C   UNL     1       3.523  -3.963  -1.730  0.00  0.00    +0.086 C 
ATOM     25  N   UNL     1       3.744  -5.410  -1.586  0.00  0.00    -0.333 N 
ATOM     26  C   UNL     1       3.094  -6.102  -0.462  0.00  0.00    +0.086 C 
ATOM     27  C   UNL     1       1.607  -5.731  -0.458  0.00  0.00    -0.059 C 
ATOM     28  H   UNL     1       1.971  -3.899   0.361  0.00  0.00    -0.081 HD
BRANCH  25  29
ATOM     29  C   UNL     1       4.549  -6.108  -2.491  0.00  0.00    +0.030 A 
ATOM     30  C   UNL     1       5.254  -5.419  -3.469  0.00  0.00    +0.026 A 
ATOM     31  C   UNL     1       6.050  -6.111  -4.362  0.00  0.00    +0.040 A 
ATOM     32  C   UNL     1       6.144  -7.490  -4.282  0.00  0.00    +0.124 A 
ATOM     33  C   UNL     1       5.442  -8.179  -3.307  0.00  0.00    +0.040 A 
ATOM     34  C   UNL     1       4.650  -7.491  -2.409  0.00  0.00    +0.026 A 
ATOM     35  F   UNL     1       6.922  -8.165  -5.156  0.00  0.00    -0.205 F 
ENDBRANCH  25  29
ENDBRANCH  21  22
ENDBRANCH   5  21
TORSDOF 5
