REMARK  Name = ZINC25036950
REMARK  4 active torsions:
REMARK  status: ('A' for Active; 'I' for Inactive)
REMARK    1  A    between atoms: C_9  and  C_11
REMARK    2  A    between atoms: N_14  and  C_17
REMARK    3  A    between atoms: C_17  and  C_18
REMARK    4  A    between atoms: N_20  and  C_21
REMARK                            x       y       z     vdW  Elec       q    Type
REMARK                         _______ _______ _______ _____ _____    ______ ____
ROOT
ATOM      1  C   UNL     1      -4.796  -0.624   1.220  0.00  0.00    +0.041 C 
ATOM      2  C   UNL     1      -5.057   0.606   0.346  0.00  0.00    -0.009 C 
ATOM      3  C   UNL     1      -3.887   1.582   0.485  0.00  0.00    -0.078 C 
ATOM      4  N   UNL     1      -2.643   0.920   0.072  0.00  0.00    +0.385 N 
ATOM      5  C   UNL     1      -2.347  -0.236   0.928  0.00  0.00    -0.078 C 
ATOM      6  C   UNL     1      -3.472  -1.267   0.801  0.00  0.00    -0.009 C 
ATOM      7  H   UNL     1      -2.786   0.550  -0.954  0.00  0.00    -0.081 HD
ENDROOT
BRANCH   1  16
ATOM      8  C   UNL     1      -9.600  -4.814   0.679  0.00  0.00    +0.021 A 
ATOM      9  C   UNL     1      -8.682  -4.251  -0.188  0.00  0.00    +0.018 A 
ATOM     10  C   UNL     1      -7.759  -3.354   0.291  0.00  0.00    +0.039 A 
ATOM     11  C   UNL     1      -7.704  -2.974   1.651  0.00  0.00    +0.080 A 
ATOM     12  C   UNL     1      -8.655  -3.567   2.510  0.00  0.00    +0.049 A 
ATOM     13  C   UNL     1      -9.574  -4.462   2.022  0.00  0.00    +0.043 A 
ATOM     14 CL   UNL     1     -10.728  -5.170   3.108  0.00  0.00    -0.083 Cl
ATOM     15  N   UNL     1      -6.734  -2.083   1.944  0.00  0.00    -0.244 NA
ATOM     16  C   UNL     1      -5.918  -1.615   1.042  0.00  0.00    +0.082 A 
ATOM     17  S   UNL     1      -6.437  -2.403  -0.415  0.00  0.00    -0.072 S 
ENDBRANCH   1  16
BRANCH   4  18
ATOM     18  C   UNL     1      -1.521   1.868   0.061  0.00  0.00    +0.019 C 
BRANCH  18  19
ATOM     19  C   UNL     1      -1.743   2.897  -1.017  0.00  0.00    +0.201 C 
ATOM     20  O   UNL     1      -2.682   2.786  -1.777  0.00  0.00    -0.278 OA
ATOM     21  N   UNL     1      -0.902   3.944  -1.133  0.00  0.00    -0.286 N 
ATOM     22  H   UNL     1      -0.105   4.094  -0.390  0.00  0.00    +0.155 HD
BRANCH  21  23
ATOM     23  C   UNL     1      -1.044   4.842  -2.199  0.00  0.00    +0.056 A 
ATOM     24  C   UNL     1      -2.290   5.047  -2.773  0.00  0.00    +0.074 A 
ATOM     25  C   UNL     1      -2.431   5.936  -3.828  0.00  0.00    +0.164 A 
ATOM     26  C   UNL     1      -1.321   6.622  -4.309  0.00  0.00    +0.164 A 
ATOM     27  C   UNL     1      -0.076   6.414  -3.734  0.00  0.00    +0.071 A 
ATOM     28  C   UNL     1       0.063   5.531  -2.679  0.00  0.00    +0.066 A 
ATOM     29 CL   UNL     1       1.622   5.279  -1.958  0.00  0.00    -0.082 Cl
ATOM     30  O   UNL     1      -1.440   7.502  -5.341  0.00  0.00    -0.485 OA
ATOM     31  C   UNL     1      -2.628   7.405  -6.136  0.00  0.00    +0.270 C 
ATOM     32  C   UNL     1      -3.831   7.293  -5.189  0.00  0.00    +0.270 C 
ATOM     33  O   UNL     1      -3.660   6.123  -4.383  0.00  0.00    -0.485 OA
ENDBRANCH  21  23
ENDBRANCH  18  19
ENDBRANCH   4  18
TORSDOF 4
