REMARK  Name = ZINC06134287
REMARK  15 active torsions:
REMARK  status: ('A' for Active; 'I' for Inactive)
REMARK    1  A    between atoms: C_1  and  C_2
REMARK    2  A    between atoms: C_2  and  C_3
REMARK    3  A    between atoms: C_2  and  C_4
REMARK    4  A    between atoms: C_4  and  C_5
REMARK    5  A    between atoms: C_5  and  N_6
REMARK    6  A    between atoms: C_7  and  C_9
REMARK    7  A    between atoms: C_9  and  C_11
REMARK    8  A    between atoms: C_9  and  N_16
REMARK    9  A    between atoms: N_16  and  C_17
REMARK   10  A    between atoms: C_20  and  C_23
REMARK   11  A    between atoms: C_23  and  C_24
REMARK   12  A    between atoms: C_23  and  C_25
REMARK   13  A    between atoms: C_26  and  C_28
REMARK   14  A    between atoms: C_29  and  N_36
REMARK   15  A    between atoms: C_30  and  C_33
REMARK                            x       y       z     vdW  Elec       q    Type
REMARK                         _______ _______ _______ _____ _____    ______ ____
ROOT
ATOM      1  N   UNL     1      -3.834   1.574  -0.213  0.00  0.00    -0.248 N 
ATOM      2  C   UNL     1      -4.598   0.892  -1.089  0.00  0.00    +0.262 C 
ATOM      3  O   UNL     1      -4.077   0.255  -1.985  0.00  0.00    -0.269 OA
ENDROOT
BRANCH   1   4
ATOM      4  C   UNL     1      -4.434   2.391   0.750  0.00  0.00    +0.038 A 
ATOM      5  C   UNL     1      -4.723   1.884   2.010  0.00  0.00    +0.024 A 
ATOM      6  C   UNL     1      -5.310   2.695   2.962  0.00  0.00    +0.006 A 
ATOM      7  C   UNL     1      -5.620   4.008   2.656  0.00  0.00    -0.045 A 
ATOM      8  C   UNL     1      -5.339   4.514   1.401  0.00  0.00    +0.006 A 
ATOM      9  C   UNL     1      -4.746   3.710   0.447  0.00  0.00    +0.024 A 
BRANCH   7  10
ATOM     10  C   UNL     1      -6.267   4.888   3.694  0.00  0.00    +0.013 C 
ATOM     11  C   UNL     1      -7.605   4.280   4.118  0.00  0.00    +0.012 C 
ATOM     12  C   UNL     1      -5.348   4.998   4.913  0.00  0.00    +0.012 C 
ENDBRANCH   7  10
ENDBRANCH   1   4
BRANCH   2  13
ATOM     13  C   UNL     1      -6.057   0.917  -0.962  0.00  0.00    +0.116 A 
ATOM     14  C   UNL     1      -7.021   0.217  -1.690  0.00  0.00    +0.076 A 
ATOM     15  C   UNL     1      -8.320   0.507  -1.272  0.00  0.00    +0.155 A 
ATOM     16  N   UNL     1      -8.505   1.361  -0.291  0.00  0.00    -0.203 NA
ATOM     17  S   UNL     1      -7.075   1.842   0.169  0.00  0.00    +0.019 S 
BRANCH  15  18
ATOM     18  C   UNL     1      -9.474  -0.138  -1.926  0.00  0.00    +0.262 C 
ATOM     19  O   UNL     1      -9.295  -0.927  -2.834  0.00  0.00    -0.269 OA
ATOM     20  N   UNL     1     -10.726   0.147  -1.517  0.00  0.00    -0.324 N 
ATOM     21  H   UNL     1     -10.868   0.777  -0.793  0.00  0.00    +0.145 HD
ATOM     22  H   UNL     1     -11.485  -0.277  -1.947  0.00  0.00    +0.145 HD
ENDBRANCH  15  18
BRANCH  14  23
ATOM     23  N   UNL     1      -6.720  -0.669  -2.716  0.00  0.00    -0.355 N 
ATOM     24  H   UNL     1      -5.795  -0.831  -2.961  0.00  0.00    +0.142 HD
ATOM     25  H   UNL     1      -7.434  -1.127  -3.186  0.00  0.00    +0.142 HD
ENDBRANCH  14  23
ENDBRANCH   2  13
BRANCH   1  26
ATOM     26  C   UNL     1      -2.374   1.459  -0.271  0.00  0.00    +0.233 C 
BRANCH  26  27
ATOM     27  C   UNL     1      -1.849   1.058   1.083  0.00  0.00    +0.135 A 
ATOM     28  C   UNL     1      -0.963   0.074   1.324  0.00  0.00    +0.047 A 
ATOM     29  C   UNL     1      -0.751   0.046   2.721  0.00  0.00    +0.041 A 
ATOM     30  C   UNL     1      -1.527   1.008   3.252  0.00  0.00    +0.195 A 
ATOM     31  O   UNL     1      -2.189   1.618   2.256  0.00  0.00    -0.465 OA
ENDBRANCH  26  27
BRANCH  26  33
ATOM     32  N   UNL     1      -0.445   2.919  -0.784  0.00  0.00    -0.313 N 
ATOM     33  C   UNL     1      -1.781   2.786  -0.667  0.00  0.00    +0.242 C 
ATOM     34  O   UNL     1      -2.506   3.735  -0.881  0.00  0.00    -0.273 OA
ATOM     35  H   UNL     1       0.135   2.160  -0.614  0.00  0.00    +0.149 HD
BRANCH  32  36
ATOM     36  C   UNL     1       0.131   4.208  -1.176  0.00  0.00    +0.104 C 
BRANCH  36  37
ATOM     37  C   UNL     1       1.655   4.087  -1.241  0.00  0.00    +0.022 C 
BRANCH  37  39
ATOM     38  C   UNL     1       1.980   6.468  -0.558  0.00  0.00    +0.007 C 
ATOM     39  C   UNL     1       2.256   5.433  -1.650  0.00  0.00    -0.016 C 
ATOM     40  C   UNL     1       3.767   5.280  -1.836  0.00  0.00    +0.007 C 
ENDBRANCH  37  39
ENDBRANCH  36  37
ENDBRANCH  32  36
ENDBRANCH  26  33
ENDBRANCH   1  26
TORSDOF 11
