REMARK  Name = ZINC62788949
REMARK  5 active torsions:
REMARK  status: ('A' for Active; 'I' for Inactive)
REMARK    1  A    between atoms: C_1  and  N_2
REMARK    2  A    between atoms: N_2  and  C_3
REMARK    3  A    between atoms: N_2  and  C_9
REMARK    4  A    between atoms: C_3  and  C_4
REMARK    5  A    between atoms: C_14  and  C_15
REMARK                            x       y       z     vdW  Elec       q    Type
REMARK                         _______ _______ _______ _____ _____    ______ ____
ROOT
ATOM      1  C   UNL     1       0.121  -0.819  -1.206  0.00  0.00    +0.042 A 
ATOM      2  C   UNL     1       1.348  -1.010  -1.829  0.00  0.00    +0.043 A 
ATOM      3  C   UNL     1       1.403  -1.558  -3.096  0.00  0.00    +0.043 A 
ATOM      4  C   UNL     1       0.237  -1.921  -3.755  0.00  0.00    +0.021 A 
ATOM      5  C   UNL     1      -0.988  -1.738  -3.152  0.00  0.00    +0.014 A 
ATOM      6  C   UNL     1      -1.059  -1.190  -1.869  0.00  0.00    +0.033 A 
ATOM      7 CL   UNL     1       2.939  -1.793  -3.868  0.00  0.00    -0.083 Cl
ENDROOT
BRANCH   6   8
ATOM      8  C   UNL     1      -2.368  -0.998  -1.216  0.00  0.00    +0.096 C 
ATOM      9  N   UNL     1      -2.731   0.213  -0.793  0.00  0.00    -0.387 N 
ATOM     10  N   UNL     1      -3.188  -2.036  -1.048  0.00  0.00    -0.345 N 
ATOM     11  H   UNL     1      -3.566   0.330  -0.313  0.00  0.00    +0.157 HD
ATOM     12  H   UNL     1      -2.925  -2.917  -1.356  0.00  0.00    +0.144 HD
ATOM     13  H   UNL     1      -4.049  -1.909  -0.619  0.00  0.00    +0.144 HD
ATOM     14  H   UNL     1      -2.160   0.978  -0.966  0.00  0.00    +0.157 HD
ENDBRANCH   6   8
BRANCH   1  16
ATOM     15  C   UNL     1      -0.132   1.173   0.235  0.00  0.00    +0.129 C 
ATOM     16  N   UNL     1       0.063  -0.269   0.068  0.00  0.00    -0.327 N 
BRANCH  16  17
ATOM     17  C   UNL     1       0.196  -1.131   1.245  0.00  0.00    +0.160 C 
BRANCH  17  18
ATOM     18  C   UNL     1      -1.173  -1.506   1.751  0.00  0.00    +0.066 A 
ATOM     19  C   UNL     1      -1.771  -2.668   1.386  0.00  0.00    +0.071 A 
ATOM     20  S   UNL     1      -3.312  -2.540   2.280  0.00  0.00    -0.084 S 
ATOM     21  C   UNL     1      -3.034  -1.048   3.007  0.00  0.00    +0.156 A 
ATOM     22  N   UNL     1      -1.842  -0.722   2.573  0.00  0.00    -0.251 NA
ENDBRANCH  17  18
ENDBRANCH  16  17
ENDBRANCH   1  16
TORSDOF 4
