REMARK  Name = ZINC67529828
REMARK  8 active torsions:
REMARK  status: ('A' for Active; 'I' for Inactive)
REMARK    1  A    between atoms: C_1  and  C_2
REMARK    2  A    between atoms: C_4  and  C_26
REMARK    3  A    between atoms: C_12  and  C_14
REMARK    4  A    between atoms: N_16  and  C_17
REMARK    5  A    between atoms: C_17  and  C_18
REMARK    6  A    between atoms: C_18  and  C_19
REMARK    7  A    between atoms: C_19  and  N_20
REMARK    8  A    between atoms: C_24  and  C_25
REMARK                            x       y       z     vdW  Elec       q    Type
REMARK                         _______ _______ _______ _____ _____    ______ ____
ROOT
ATOM      1  C   UNL     1      -0.524   1.349  -0.057  0.00  0.00    +0.044 C 
ATOM      2  C   UNL     1      -0.181  -0.118  -0.043  0.00  0.00    -0.048 A 
ATOM      3  C   UNL     1       0.058  -0.786  -1.230  0.00  0.00    +0.007 A 
ATOM      4  C   UNL     1       0.371  -2.131  -1.220  0.00  0.00    -0.045 A 
ATOM      5  C   UNL     1       0.448  -2.821  -0.022  0.00  0.00    -0.023 A 
ATOM      6  C   UNL     1       0.211  -2.153   1.169  0.00  0.00    +0.040 A 
ATOM      7  C   UNL     1      -0.100  -0.797   1.157  0.00  0.00    +0.027 A 
ATOM      8  N   UNL     1       0.291  -2.822   2.396  0.00  0.00    -0.263 N 
ATOM      9  C   UNL     1       0.328  -4.291   2.402  0.00  0.00    +0.114 C 
ATOM     10  C   UNL     1       1.313  -4.740   1.315  0.00  0.00    +0.024 C 
ATOM     11  C   UNL     1       0.785  -4.289  -0.046  0.00  0.00    +0.039 C 
ATOM     12  C   UNL     1       0.332  -2.131   3.552  0.00  0.00    +0.306 C 
ATOM     13  O   UNL     1       0.441  -0.922   3.533  0.00  0.00    -0.265 OA
ATOM     14  C   UNL     1       0.629  -2.851  -2.518  0.00  0.00    +0.044 C 
ENDROOT
BRANCH  12  15
ATOM     15  C   UNL     1       0.244  -2.852   4.857  0.00  0.00    +0.300 C 
ATOM     16  O   UNL     1       0.017  -4.044   4.878  0.00  0.00    -0.265 OA
ATOM     17  N   UNL     1       0.418  -2.179   6.012  0.00  0.00    -0.308 N 
ATOM     18  H   UNL     1       0.600  -1.227   5.996  0.00  0.00    +0.149 HD
BRANCH  17  19
ATOM     19  C   UNL     1       0.331  -2.887   7.292  0.00  0.00    +0.106 C 
BRANCH  19  20
ATOM     20  C   UNL     1       0.565  -1.899   8.437  0.00  0.00    +0.040 C 
BRANCH  20  21
ATOM     21  C   UNL     1       0.475  -2.638   9.774  0.00  0.00    +0.124 C 
BRANCH  21  22
ATOM     22  N   UNL     1       0.698  -1.693  10.870  0.00  0.00    -0.336 N 
ATOM     23  C   UNL     1       1.889  -1.442  11.497  0.00  0.00    +0.104 A 
ATOM     24  C   UNL     1       1.645  -0.510  12.438  0.00  0.00    +0.101 A 
ATOM     25  N   UNL     1       0.341  -0.201  12.389  0.00  0.00    -0.350 N 
ATOM     26  C   UNL     1      -0.232  -0.902  11.448  0.00  0.00    +0.084 A 
ATOM     27  C   UNL     1      -1.690  -0.841  11.073  0.00  0.00    +0.084 C 
ATOM     28  H   UNL     1      -0.105   0.444  12.959  0.00  0.00    +0.166 HD
ENDBRANCH  21  22
ENDBRANCH  20  21
ENDBRANCH  19  20
ENDBRANCH  17  19
ENDBRANCH  12  15
TORSDOF 5
