REMARK  Name = ZINC32744506
REMARK  3 active torsions:
REMARK  status: ('A' for Active; 'I' for Inactive)
REMARK    1  A    between atoms: C_1  and  N_2
REMARK    2  A    between atoms: C_11  and  C_13
REMARK    3  A    between atoms: C_17  and  N_19
REMARK                            x       y       z     vdW  Elec       q    Type
REMARK                         _______ _______ _______ _____ _____    ______ ____
ROOT
ATOM      1  C   UNL     1      -0.018   1.465   0.010  0.00  0.00    +0.105 C 
ATOM      2  N   UNL     1       0.002  -0.004   0.002  0.00  0.00    -0.300 NA
ATOM      3  C   UNL     1      -1.362  -0.549   0.020  0.00  0.00    +0.090 C 
ATOM      4  C   UNL     1      -1.348  -2.033  -0.362  0.00  0.00    +0.071 C 
ATOM      5  C   UNL     1      -0.326  -2.739   0.518  0.00  0.00    +0.056 A 
ATOM      6  C   UNL     1       0.616  -2.008   1.173  0.00  0.00    +0.028 A 
ATOM      7  S   UNL     1       1.534  -3.250   2.036  0.00  0.00    -0.055 S 
ATOM      8  C   UNL     1       0.656  -4.585   1.499  0.00  0.00    +0.165 A 
ATOM      9  N   UNL     1      -0.259  -4.049   0.720  0.00  0.00    -0.229 NA
ATOM     10  N   UNL     1       0.852  -5.926   1.803  0.00  0.00    -0.261 N 
ATOM     11  C   UNL     1       1.853  -6.290   2.629  0.00  0.00    +0.250 C 
ATOM     12  O   UNL     1       2.584  -5.445   3.108  0.00  0.00    -0.270 OA
ATOM     13  C   UNL     1       0.790  -0.529   1.135  0.00  0.00    +0.128 C 
ATOM     14  H   UNL     1       0.268  -6.600   1.422  0.00  0.00    +0.157 HD
ENDROOT
BRANCH  11  15
ATOM     15  C   UNL     1       2.061  -7.717   2.954  0.00  0.00    +0.039 A 
ATOM     16  C   UNL     1       1.226  -8.690   2.401  0.00  0.00    +0.014 A 
ATOM     17  C   UNL     1       1.422 -10.021   2.704  0.00  0.00    +0.022 A 
ATOM     18  C   UNL     1       2.445 -10.397   3.557  0.00  0.00    +0.062 A 
ATOM     19  C   UNL     1       3.282  -9.435   4.112  0.00  0.00    +0.055 A 
ATOM     20  C   UNL     1       3.096  -8.096   3.808  0.00  0.00    +0.038 A 
ATOM     21 CL   UNL     1       2.684 -12.075   3.934  0.00  0.00    -0.082 Cl
BRANCH  19  22
ATOM     22  N   UNL     1       4.316  -9.820   4.974  0.00  0.00    -0.270 N 
ATOM     23  C   UNL     1       5.678 -10.149   4.539  0.00  0.00    +0.114 C 
ATOM     24  C   UNL     1       6.547 -10.081   5.815  0.00  0.00    +0.029 C 
ATOM     25  C   UNL     1       5.504 -10.362   6.921  0.00  0.00    +0.098 C 
ATOM     26  C   UNL     1       4.189  -9.932   6.308  0.00  0.00    +0.220 C 
ATOM     27  O   UNL     1       3.169  -9.720   6.929  0.00  0.00    -0.275 OA
ENDBRANCH  19  22
ENDBRANCH  11  15
TORSDOF 2
