REMARK  Name = ZINC32977779
REMARK  5 active torsions:
REMARK  status: ('A' for Active; 'I' for Inactive)
REMARK    1  A    between atoms: N_7  and  C_29
REMARK    2  A    between atoms: N_12  and  C_13
REMARK    3  A    between atoms: C_13  and  C_14
REMARK    4  A    between atoms: N_19  and  C_22
REMARK    5  A    between atoms: C_29  and  C_30
REMARK                            x       y       z     vdW  Elec       q    Type
REMARK                         _______ _______ _______ _____ _____    ______ ____
ROOT
ATOM      1  C   UNL     1      -3.959  -0.402   3.640  0.00  0.00    +0.002 A 
ATOM      2  C   UNL     1      -2.919   0.512   3.624  0.00  0.00    +0.002 A 
ATOM      3  C   UNL     1      -2.413   0.969   2.425  0.00  0.00    +0.028 A 
ATOM      4  C   UNL     1      -2.946   0.512   1.225  0.00  0.00    +0.069 A 
ATOM      5  C   UNL     1      -3.995  -0.409   1.240  0.00  0.00    +0.069 A 
ATOM      6  C   UNL     1      -4.497  -0.862   2.455  0.00  0.00    +0.028 A 
ATOM      7  N   UNL     1      -4.543  -0.878   0.050  0.00  0.00    -0.298 N 
ATOM      8  C   UNL     1      -4.062  -0.445  -1.133  0.00  0.00    +0.317 A 
ATOM      9  O   UNL     1      -4.537  -0.851  -2.175  0.00  0.00    -0.262 OA
ATOM     10  C   UNL     1      -2.945   0.543  -1.149  0.00  0.00    +0.317 A 
ATOM     11  O   UNL     1      -2.501   0.950  -2.204  0.00  0.00    -0.262 OA
ATOM     12  N   UNL     1      -2.430   0.977   0.019  0.00  0.00    -0.293 N 
ENDROOT
BRANCH  12  13
ATOM     13  C   UNL     1      -1.330   1.944   0.019  0.00  0.00    +0.221 C 
BRANCH  13  14
ATOM     14  C   UNL     1      -0.014   1.209   0.009  0.00  0.00    +0.236 C 
ATOM     15  O   UNL     1       0.002  -0.004   0.002  0.00  0.00    -0.274 OA
ATOM     16  N   UNL     1       1.143   1.898   0.001  0.00  0.00    -0.297 N 
ATOM     17  C   UNL     1       1.146   3.369   0.003  0.00  0.00    +0.126 C 
ATOM     18  C   UNL     1       2.069   3.848   1.135  0.00  0.00    +0.124 C 
ATOM     19  N   UNL     1       3.390   3.225   0.980  0.00  0.00    -0.327 N 
ATOM     20  C   UNL     1       3.309   1.765   1.112  0.00  0.00    +0.124 C 
ATOM     21  C   UNL     1       2.438   1.200  -0.015  0.00  0.00    +0.126 C 
BRANCH  19  22
ATOM     22  C   UNL     1       4.307   3.761   1.890  0.00  0.00    +0.030 A 
ATOM     23  C   UNL     1       4.990   2.925   2.762  0.00  0.00    +0.026 A 
ATOM     24  C   UNL     1       5.899   3.456   3.657  0.00  0.00    +0.040 A 
ATOM     25  C   UNL     1       6.120   4.822   3.691  0.00  0.00    +0.124 A 
ATOM     26  C   UNL     1       5.436   5.659   2.826  0.00  0.00    +0.040 A 
ATOM     27  C   UNL     1       4.530   5.131   1.926  0.00  0.00    +0.026 A 
ATOM     28  F   UNL     1       7.006   5.340   4.570  0.00  0.00    -0.205 F 
ENDBRANCH  19  22
ENDBRANCH  13  14
ENDBRANCH  12  13
BRANCH   7  29
ATOM     29  C   UNL     1      -5.644  -1.845   0.082  0.00  0.00    +0.160 C 
BRANCH  29  30
ATOM     30  C   UNL     1      -6.958  -1.108   0.103  0.00  0.00    -0.028 A 
ATOM     31  C   UNL     1      -7.538  -0.765   1.310  0.00  0.00    +0.007 A 
ATOM     32  C   UNL     1      -8.741  -0.084   1.330  0.00  0.00    +0.020 A 
ATOM     33  C   UNL     1      -9.370   0.243   0.142  0.00  0.00    +0.041 A 
ATOM     34  C   UNL     1      -8.792  -0.106  -1.065  0.00  0.00    +0.020 A 
ATOM     35  C   UNL     1      -7.586  -0.781  -1.084  0.00  0.00    +0.007 A 
ATOM     36 CL   UNL     1     -10.884   1.092   0.167  0.00  0.00    -0.084 Cl
ENDBRANCH  29  30
ENDBRANCH   7  29
TORSDOF 5
