REMARK  Name = ZINC33034303
REMARK  9 active torsions:
REMARK  status: ('A' for Active; 'I' for Inactive)
REMARK    1  A    between atoms: C_1  and  C_2
REMARK    2  A    between atoms: C_2  and  C_3
REMARK    3  A    between atoms: C_2  and  C_4
REMARK    4  A    between atoms: C_4  and  N_5
REMARK    5  A    between atoms: C_6  and  C_8
REMARK    6  A    between atoms: C_11  and  N_25
REMARK    7  A    between atoms: C_12  and  N_14
REMARK    8  A    between atoms: N_14  and  S_15
REMARK    9  A    between atoms: S_15  and  C_18
REMARK                            x       y       z     vdW  Elec       q    Type
REMARK                         _______ _______ _______ _____ _____    ______ ____
ROOT
ATOM      1  C   UNL     1      -2.443   0.398   0.073  0.00  0.00    +0.039 A 
ATOM      2  C   UNL     1      -2.737  -0.955   0.260  0.00  0.00    +0.015 A 
ATOM      3  C   UNL     1      -4.043  -1.391   0.204  0.00  0.00    +0.026 A 
ATOM      4  C   UNL     1      -5.070  -0.489  -0.049  0.00  0.00    +0.052 A 
ATOM      5  C   UNL     1      -4.782   0.864  -0.242  0.00  0.00    +0.070 A 
ATOM      6  C   UNL     1      -3.474   1.307  -0.182  0.00  0.00    +0.039 A 
ENDROOT
BRANCH   4   7
ATOM      7  N   UNL     1      -6.388  -0.936  -0.110  0.00  0.00    -0.332 N 
ATOM      8  C   UNL     1      -6.446  -2.405  -0.131  0.00  0.00    +0.086 C 
ATOM      9  C   UNL     1      -7.902  -2.853  -0.278  0.00  0.00    -0.063 C 
ATOM     10  N   UNL     1      -8.694  -2.312   0.836  0.00  0.00    +0.381 N 
ATOM     11  C   UNL     1      -8.635  -0.844   0.857  0.00  0.00    -0.063 C 
ATOM     12  C   UNL     1      -7.179  -0.396   1.004  0.00  0.00    +0.086 C 
ATOM     13  H   UNL     1      -9.743  -2.623   0.726  0.00  0.00    -0.086 HD
ATOM     14  H   UNL     1      -8.296  -2.695   1.788  0.00  0.00    -0.086 HD
ENDBRANCH   4   7
BRANCH   1  16
ATOM     15  N   UNL     1      -0.052  -0.011   0.385  0.00  0.00    -0.311 N 
ATOM     16  C   UNL     1      -1.045   0.866   0.139  0.00  0.00    +0.244 C 
ATOM     17  O   UNL     1      -0.790   2.043  -0.028  0.00  0.00    -0.270 OA
ATOM     18  H   UNL     1      -0.284  -1.075   0.541  0.00  0.00    +0.149 HD
BRANCH  15  19
ATOM     19  C   UNL     1       1.337   0.453   0.444  0.00  0.00    +0.107 C 
BRANCH  19  21
ATOM     20  C   UNL     1       2.209  -1.712  -0.448  0.00  0.00    +0.009 C 
ATOM     21  C   UNL     1       2.259  -0.734   0.728  0.00  0.00    -0.000 C 
ATOM     22  C   UNL     1       3.693  -0.233   0.914  0.00  0.00    +0.009 C 
ENDBRANCH  19  21
ENDBRANCH  15  19
ENDBRANCH   1  16
BRANCH   5  23
ATOM     23  N   UNL     1      -5.818   1.772  -0.497  0.00  0.00    -0.214 N 
ATOM     24  H   UNL     1      -6.395   2.196   0.338  0.00  0.00    +0.174 HD
BRANCH  23  25
ATOM     25  S   UNL     1      -6.174   2.206  -2.055  0.00  0.00    +0.072 S 
ATOM     26  O   UNL     1      -7.271   3.107  -1.985  0.00  0.00    -0.150 OA
ATOM     27  O   UNL     1      -4.942   2.552  -2.672  0.00  0.00    -0.150 OA
BRANCH  25  28
ATOM     28  C   UNL     1      -6.760   0.762  -2.877  0.00  0.00    +0.109 A 
ATOM     29  C   UNL     1      -5.871  -0.068  -3.534  0.00  0.00    +0.031 A 
ATOM     30  C   UNL     1      -6.330  -1.203  -4.175  0.00  0.00    +0.040 A 
ATOM     31  C   UNL     1      -7.681  -1.504  -4.168  0.00  0.00    +0.124 A 
ATOM     32  C   UNL     1      -8.571  -0.670  -3.514  0.00  0.00    +0.040 A 
ATOM     33  C   UNL     1      -8.110   0.462  -2.869  0.00  0.00    +0.031 A 
ATOM     34  F   UNL     1      -8.131  -2.611  -4.798  0.00  0.00    -0.205 F 
ENDBRANCH  25  28
ENDBRANCH  23  25
ENDBRANCH   5  23
TORSDOF 7
