REMARK  Name = ZINC40287213
REMARK  9 active torsions:
REMARK  status: ('A' for Active; 'I' for Inactive)
REMARK    1  A    between atoms: C_1  and  C_2
REMARK    2  A    between atoms: C_8  and  C_10
REMARK    3  A    between atoms: C_10  and  C_11
REMARK    4  A    between atoms: C_13  and  C_16
REMARK    5  A    between atoms: N_18  and  C_19
REMARK    6  A    between atoms: C_21  and  C_27
REMARK    7  A    between atoms: C_21  and  C_28
REMARK    8  A    between atoms: C_23  and  C_25
REMARK    9  A    between atoms: C_23  and  C_26
REMARK                            x       y       z     vdW  Elec       q    Type
REMARK                         _______ _______ _______ _____ _____    ______ ____
ROOT
ATOM      1  C   UNL     1      -5.124  -4.257   0.174  0.00  0.00    +0.181 A 
ATOM      2  N   UNL     1      -5.872  -4.105   1.268  0.00  0.00    -0.187 NA
ATOM      3  C   UNL     1      -7.078  -3.712   0.938  0.00  0.00    +0.313 A 
ATOM      4  O   UNL     1      -7.128  -3.602  -0.401  0.00  0.00    -0.328 OA
ATOM      5  N   UNL     1      -5.838  -3.959  -0.875  0.00  0.00    -0.060 NA
ENDROOT
BRANCH   3   6
ATOM      6  C   UNL     1      -8.192  -3.437   1.876  0.00  0.00    +0.302 C 
ATOM      7  O   UNL     1      -8.026  -3.573   3.072  0.00  0.00    -0.265 OA
ATOM      8  N   UNL     1      -9.389  -3.036   1.403  0.00  0.00    -0.305 N 
ATOM      9  H   UNL     1      -9.521  -2.928   0.448  0.00  0.00    +0.149 HD
BRANCH   8  10
ATOM     10  C   UNL     1     -10.492  -2.764   2.333  0.00  0.00    +0.071 C 
ATOM     11  C   UNL     1     -11.243  -4.067   2.616  0.00  0.00    +0.009 C 
ATOM     12  C   UNL     1     -12.403  -3.797   3.574  0.00  0.00    -0.072 C 
ATOM     13  N   UNL     1     -13.280  -2.742   3.090  0.00  0.00    +0.386 N 
ATOM     14  C   UNL     1     -12.660  -1.522   2.597  0.00  0.00    -0.072 C 
ATOM     15  C   UNL     1     -11.465  -1.780   1.685  0.00  0.00    +0.009 C 
ATOM     16  C   UNL     1     -12.252  -0.592   3.742  0.00  0.00    -0.010 C 
ATOM     17  C   UNL     1     -13.721  -0.767   1.760  0.00  0.00    -0.010 C 
ATOM     18  C   UNL     1     -11.874  -3.507   4.978  0.00  0.00    -0.010 C 
ATOM     19  C   UNL     1     -13.239  -5.096   3.658  0.00  0.00    -0.010 C 
ATOM     20  H   UNL     1     -13.867  -3.128   2.346  0.00  0.00    -0.084 HD
ATOM     21  H   UNL     1     -13.929  -2.493   3.841  0.00  0.00    -0.084 HD
ENDBRANCH   8  10
ENDBRANCH   3   6
BRANCH   1  22
ATOM     22  C   UNL     1      -3.683  -4.697   0.154  0.00  0.00    +0.175 C 
BRANCH  22  30
ATOM     23  C   UNL     1       0.059   1.104   0.610  0.00  0.00    +0.089 C 
ATOM     24  C   UNL     1       0.050  -0.399   0.500  0.00  0.00    +0.136 A 
ATOM     25  C   UNL     1      -1.044  -1.178   0.434  0.00  0.00    +0.091 A 
ATOM     26  C   UNL     1      -0.620  -2.522   0.339  0.00  0.00    +0.168 A 
ATOM     27  N   UNL     1       0.689  -2.532   0.350  0.00  0.00    -0.063 NA
ATOM     28  O   UNL     1       1.132  -1.191   0.446  0.00  0.00    -0.358 OA
ATOM     29  N   UNL     1      -1.448  -3.641   0.251  0.00  0.00    -0.267 N 
ATOM     30  C   UNL     1      -2.788  -3.489   0.250  0.00  0.00    +0.226 C 
ATOM     31  O   UNL     1      -3.272  -2.380   0.327  0.00  0.00    -0.275 OA
ATOM     32  H   UNL     1      -1.061  -4.528   0.189  0.00  0.00    +0.156 HD
ENDBRANCH  22  30
ENDBRANCH   1  22
TORSDOF 4
