REMARK  Name = ZINC39881446
REMARK  4 active torsions:
REMARK  status: ('A' for Active; 'I' for Inactive)
REMARK    1  A    between atoms: C_1  and  C_2
REMARK    2  A    between atoms: N_12  and  C_15
REMARK    3  A    between atoms: C_18  and  C_21
REMARK    4  A    between atoms: N_26  and  C_29
REMARK                            x       y       z     vdW  Elec       q    Type
REMARK                         _______ _______ _______ _____ _____    ______ ____
ROOT
ATOM      1  C   UNL     1       0.061  -4.542   4.781  0.00  0.00    +0.035 A 
ATOM      2  C   UNL     1       0.277  -3.199   5.076  0.00  0.00    +0.024 A 
ATOM      3  C   UNL     1       0.287  -2.774   6.385  0.00  0.00    +0.015 A 
ATOM      4  C   UNL     1       0.081  -3.692   7.419  0.00  0.00    +0.037 A 
ATOM      5  C   UNL     1      -0.136  -5.040   7.119  0.00  0.00    +0.015 A 
ATOM      6  C   UNL     1      -0.150  -5.458   5.808  0.00  0.00    +0.024 A 
ENDROOT
BRANCH   1  18
ATOM      7  C   UNL     1       7.048  -3.852   1.653  0.00  0.00    +0.044 C 
ATOM      8  C   UNL     1       5.647  -4.298   1.319  0.00  0.00    -0.048 A 
ATOM      9  C   UNL     1       5.367  -4.775   0.041  0.00  0.00    +0.004 A 
ATOM     10  C   UNL     1       4.110  -5.186  -0.290  0.00  0.00    +0.010 A 
ATOM     11  C   UNL     1       3.087  -5.126   0.668  0.00  0.00    -0.001 A 
ATOM     12  C   UNL     1       1.774  -5.541   0.367  0.00  0.00    +0.017 A 
ATOM     13  C   UNL     1       0.830  -5.457   1.344  0.00  0.00    -0.007 A 
ATOM     14  C   UNL     1       1.157  -4.970   2.616  0.00  0.00    +0.107 A 
ATOM     15  N   UNL     1       2.399  -4.584   2.884  0.00  0.00    -0.342 N 
ATOM     16  C   UNL     1       3.368  -4.641   1.968  0.00  0.00    +0.048 A 
ATOM     17  C   UNL     1       4.679  -4.232   2.273  0.00  0.00    +0.029 A 
ATOM     18  N   UNL     1       0.052  -4.969   3.456  0.00  0.00    -0.286 N 
ATOM     19  C   UNL     1      -1.126  -5.480   2.752  0.00  0.00    +0.117 C 
ATOM     20  C   UNL     1      -0.639  -5.817   1.333  0.00  0.00    +0.058 C 
ATOM     21  H   UNL     1       2.607  -4.250   3.770  0.00  0.00    +0.167 HD
ENDBRANCH   1  18
BRANCH   4  22
ATOM     22  C   UNL     1       0.092  -3.239   8.823  0.00  0.00    +0.247 C 
ATOM     23  O   UNL     1      -0.444  -2.191   9.128  0.00  0.00    -0.270 OA
ATOM     24  N   UNL     1       0.696  -3.988   9.767  0.00  0.00    -0.295 N 
ATOM     25  C   UNL     1       1.455  -5.190   9.397  0.00  0.00    +0.127 C 
ATOM     26  C   UNL     1       2.876  -5.066   9.960  0.00  0.00    +0.124 C 
ATOM     27  N   UNL     1       2.787  -4.694  11.380  0.00  0.00    -0.325 N 
ATOM     28  C   UNL     1       2.027  -3.491  11.750  0.00  0.00    +0.124 C 
ATOM     29  C   UNL     1       0.611  -3.613  11.186  0.00  0.00    +0.127 C 
BRANCH  27  30
ATOM     30  C   UNL     1       3.413  -5.471  12.359  0.00  0.00    +0.065 A 
ATOM     31  C   UNL     1       4.719  -5.191  12.740  0.00  0.00    +0.026 A 
ATOM     32  C   UNL     1       5.335  -5.959  13.708  0.00  0.00    +0.002 A 
ATOM     33  C   UNL     1       4.653  -7.007  14.300  0.00  0.00    +0.003 A 
ATOM     34  C   UNL     1       3.353  -7.290  13.924  0.00  0.00    +0.040 A 
ATOM     35  C   UNL     1       2.728  -6.521  12.960  0.00  0.00    +0.144 A 
ATOM     36  F   UNL     1       1.455  -6.794  12.597  0.00  0.00    -0.204 F 
ENDBRANCH  27  30
ENDBRANCH   4  22
TORSDOF 3
