REMARK  Name = ZINC39412814
REMARK  11 active torsions:
REMARK  status: ('A' for Active; 'I' for Inactive)
REMARK    1  A    between atoms: C_1  and  C_2
REMARK    2  A    between atoms: C_5  and  C_7
REMARK    3  A    between atoms: C_9  and  C_21
REMARK    4  A    between atoms: N_12  and  C_14
REMARK    5  A    between atoms: C_21  and  N_22
REMARK    6  A    between atoms: N_22  and  C_23
REMARK    7  A    between atoms: C_23  and  C_24
REMARK    8  A    between atoms: C_27  and  C_29
REMARK    9  A    between atoms: C_29  and  C_30
REMARK   10  A    between atoms: C_29  and  C_31
REMARK   11  A    between atoms: C_29  and  C_32
REMARK                            x       y       z     vdW  Elec       q    Type
REMARK                         _______ _______ _______ _____ _____    ______ ____
ROOT
ATOM      1  C   UNL     1       1.684  -3.245  -0.023  0.00  0.00    +0.141 C 
ATOM      2  C   UNL     1       2.281  -3.467  -1.439  0.00  0.00    +0.017 C 
ATOM      3  C   UNL     1       3.635  -4.131  -1.093  0.00  0.00    +0.128 C 
ATOM      4  N   UNL     1       3.893  -3.783   0.314  0.00  0.00    -0.266 N 
ATOM      5  N   UNL     1       2.901  -2.958   0.779  0.00  0.00    -0.229 NA
ATOM      6  H   UNL     1       3.169  -1.989   0.696  0.00  0.00    +0.145 HD
ENDROOT
BRANCH   4   7
ATOM      7  C   UNL     1       4.985  -4.228   1.064  0.00  0.00    +0.047 A 
ATOM      8  C   UNL     1       5.934  -5.061   0.484  0.00  0.00    +0.024 A 
ATOM      9  C   UNL     1       7.013  -5.499   1.227  0.00  0.00    +0.005 A 
ATOM     10  C   UNL     1       7.150  -5.110   2.547  0.00  0.00    +0.038 A 
ATOM     11  C   UNL     1       6.206  -4.279   3.128  0.00  0.00    +0.125 A 
ATOM     12  C   UNL     1       5.126  -3.833   2.387  0.00  0.00    +0.062 A 
ATOM     13  F   UNL     1       6.342  -3.901   4.418  0.00  0.00    -0.205 F 
ENDBRANCH   4   7
BRANCH   1  18
ATOM     14  C   UNL     1      -0.018   1.503   0.010  0.00  0.00    +0.086 C 
ATOM     15  C   UNL     1       0.002  -0.004   0.002  0.00  0.00    +0.102 A 
ATOM     16  C   UNL     1      -1.078  -0.805   0.003  0.00  0.00    +0.045 A 
ATOM     17  C   UNL     1      -0.601  -2.136  -0.007  0.00  0.00    +0.046 A 
ATOM     18  C   UNL     1       0.742  -2.069  -0.013  0.00  0.00    +0.124 A 
ATOM     19  O   UNL     1       1.102  -0.775  -0.013  0.00  0.00    -0.463 OA
ENDBRANCH   1  18
BRANCH   2  20
ATOM     20  C   UNL     1       1.401  -4.407  -2.266  0.00  0.00    -0.075 C 
BRANCH  20  21
ATOM     21  N   UNL     1       1.931  -4.497  -3.633  0.00  0.00    +0.383 N 
ATOM     22  H   UNL     1       1.933  -3.581  -4.054  0.00  0.00    -0.085 HD
ATOM     23  H   UNL     1       2.874  -4.857  -3.605  0.00  0.00    -0.085 HD
BRANCH  21  24
ATOM     24  C   UNL     1       1.087  -5.400  -4.427  0.00  0.00    -0.029 C 
BRANCH  24  25
ATOM     25  C   UNL     1       1.631  -5.493  -5.829  0.00  0.00    +0.030 C 
ATOM     26  N   UNL     1       2.675  -4.896  -6.300  0.00  0.00    -0.160 NA
ATOM     27  N   UNL     1       2.902  -5.199  -7.639  0.00  0.00    -0.158 NA
ATOM     28  C   UNL     1       2.018  -6.010  -8.117  0.00  0.00    +0.052 C 
ATOM     29  C   UNL     1       1.068  -6.311  -6.975  0.00  0.00    +0.104 C 
BRANCH  28  30
ATOM     30  C   UNL     1       1.948  -6.552  -9.522  0.00  0.00    +0.003 C 
ATOM     31  C   UNL     1       3.112  -5.991 -10.343  0.00  0.00    +0.017 C 
ATOM     32  C   UNL     1       2.039  -8.079  -9.485  0.00  0.00    +0.017 C 
ATOM     33  C   UNL     1       0.624  -6.135 -10.165  0.00  0.00    +0.017 C 
ENDBRANCH  28  30
ENDBRANCH  24  25
ENDBRANCH  21  24
ENDBRANCH  20  21
ENDBRANCH   2  20
TORSDOF 7
