REMARK  Name = ZINC06134747
REMARK  16 active torsions:
REMARK  status: ('A' for Active; 'I' for Inactive)
REMARK    1  A    between atoms: C_1  and  C_2
REMARK    2  A    between atoms: C_2  and  C_3
REMARK    3  A    between atoms: C_6  and  N_9
REMARK    4  A    between atoms: N_9  and  C_10
REMARK    5  A    between atoms: C_10  and  C_12
REMARK    6  A    between atoms: C_10  and  C_21
REMARK    7  A    between atoms: C_15  and  N_18
REMARK    8  A    between atoms: N_18  and  C_19
REMARK    9  A    between atoms: N_18  and  C_20
REMARK   10  A    between atoms: N_23  and  C_24
REMARK   11  A    between atoms: C_24  and  C_25
REMARK   12  A    between atoms: C_25  and  O_26
REMARK   13  A    between atoms: O_26  and  C_27
REMARK   14  A    between atoms: C_28  and  C_30
REMARK   15  A    between atoms: C_31  and  N_38
REMARK   16  A    between atoms: C_32  and  C_35
REMARK                            x       y       z     vdW  Elec       q    Type
REMARK                         _______ _______ _______ _____ _____    ______ ____
ROOT
ATOM      1  N   UNL     1      -3.200   2.738   4.953  0.00  0.00    -0.251 N 
ATOM      2  C   UNL     1      -2.132   1.997   4.597  0.00  0.00    +0.262 C 
ATOM      3  O   UNL     1      -1.917   0.934   5.150  0.00  0.00    -0.269 OA
ENDROOT
BRANCH   1   7
ATOM      4  C   UNL     1      -5.672   1.474   8.057  0.00  0.00    -0.048 A 
ATOM      5  C   UNL     1      -5.863   2.719   7.486  0.00  0.00    +0.005 A 
ATOM      6  C   UNL     1      -5.042   3.143   6.461  0.00  0.00    +0.024 A 
ATOM      7  C   UNL     1      -4.030   2.314   5.995  0.00  0.00    +0.038 A 
ATOM      8  C   UNL     1      -3.844   1.062   6.567  0.00  0.00    +0.024 A 
ATOM      9  C   UNL     1      -4.665   0.645   7.596  0.00  0.00    +0.005 A 
BRANCH   4  11
ATOM     10  C   UNL     1      -5.959   1.434  10.520  0.00  0.00    +0.009 C 
ATOM     11  C   UNL     1      -6.567   1.016   9.180  0.00  0.00    +0.032 C 
ENDBRANCH   4  11
ENDBRANCH   1   7
BRANCH   2  12
ATOM     12  C   UNL     1      -1.231   2.469   3.544  0.00  0.00    +0.116 A 
ATOM     13  C   UNL     1      -0.647   1.758   2.494  0.00  0.00    +0.076 A 
ATOM     14  C   UNL     1       0.161   2.562   1.689  0.00  0.00    +0.155 A 
ATOM     15  N   UNL     1       0.289   3.838   1.977  0.00  0.00    -0.203 NA
ATOM     16  S   UNL     1      -0.593   4.106   3.256  0.00  0.00    +0.019 S 
BRANCH  14  17
ATOM     17  C   UNL     1       0.863   1.986   0.528  0.00  0.00    +0.262 C 
ATOM     18  O   UNL     1       0.741   0.804   0.268  0.00  0.00    -0.269 OA
ATOM     19  N   UNL     1       1.642   2.769  -0.245  0.00  0.00    -0.324 N 
ATOM     20  H   UNL     1       1.739   3.711  -0.038  0.00  0.00    +0.145 HD
ATOM     21  H   UNL     1       2.104   2.390  -1.009  0.00  0.00    +0.145 HD
ENDBRANCH  14  17
BRANCH  13  22
ATOM     22  N   UNL     1      -0.847   0.402   2.276  0.00  0.00    -0.355 N 
ATOM     23  H   UNL     1      -1.421  -0.106   2.870  0.00  0.00    +0.142 HD
ATOM     24  H   UNL     1      -0.413  -0.038   1.528  0.00  0.00    +0.142 HD
ENDBRANCH  13  22
ENDBRANCH   2  12
BRANCH   1  25
ATOM     25  C   UNL     1      -3.491   3.989   4.248  0.00  0.00    +0.197 C 
BRANCH  25  26
ATOM     26  C   UNL     1      -4.900   3.949   3.714  0.00  0.00    -0.018 A 
ATOM     27  C   UNL     1      -5.720   2.876   4.011  0.00  0.00    +0.008 A 
ATOM     28  C   UNL     1      -7.013   2.838   3.529  0.00  0.00    +0.023 A 
ATOM     29  C   UNL     1      -7.486   3.875   2.734  0.00  0.00    +0.029 A 
ATOM     30  C   UNL     1      -6.658   4.949   2.433  0.00  0.00    +0.023 A 
ATOM     31  C   UNL     1      -5.368   4.982   2.923  0.00  0.00    +0.008 A 
BRANCH  29  32
ATOM     32  N   UNL     1      -8.792   3.837   2.239  0.00  0.00    -0.336 N 
ATOM     33  C   UNL     1      -9.289   4.931   1.401  0.00  0.00    +0.129 C 
ATOM     34  C   UNL     1      -9.664   2.704   2.558  0.00  0.00    +0.129 C 
ENDBRANCH  29  32
ENDBRANCH  25  26
BRANCH  25  35
ATOM     35  C   UNL     1      -3.348   5.148   5.200  0.00  0.00    +0.239 C 
ATOM     36  O   UNL     1      -3.033   4.949   6.355  0.00  0.00    -0.273 OA
ATOM     37  N   UNL     1      -3.569   6.406   4.770  0.00  0.00    -0.311 N 
ATOM     38  H   UNL     1      -3.820   6.565   3.846  0.00  0.00    +0.149 HD
BRANCH  37  39
ATOM     39  C   UNL     1      -3.429   7.532   5.696  0.00  0.00    +0.132 C 
BRANCH  39  40
ATOM     40  C   UNL     1      -3.733   8.838   4.959  0.00  0.00    +0.178 C 
BRANCH  40  41
ATOM     41  O   UNL     1      -5.104   8.849   4.555  0.00  0.00    -0.381 OA
ATOM     42  C   UNL     1      -5.493  10.032   3.854  0.00  0.00    +0.194 C 
ENDBRANCH  40  41
ENDBRANCH  39  40
ENDBRANCH  37  39
ENDBRANCH  25  35
ENDBRANCH   1  25
TORSDOF 12
