REMARK  Name = ZINC33019923
REMARK  5 active torsions:
REMARK  status: ('A' for Active; 'I' for Inactive)
REMARK    1  A    between atoms: C_1  and  C_2
REMARK    2  A    between atoms: C_4  and  S_11
REMARK    3  A    between atoms: S_11  and  C_12
REMARK    4  A    between atoms: C_17  and  N_18
REMARK    5  A    between atoms: N_21  and  C_22
REMARK                            x       y       z     vdW  Elec       q    Type
REMARK                         _______ _______ _______ _____ _____    ______ ____
ROOT
ATOM      1  C   UNL     1       0.114  -0.377   0.122  0.00  0.00    +0.035 A 
ATOM      2  C   UNL     1       0.961  -1.427   0.446  0.00  0.00    +0.017 A 
ATOM      3  C   UNL     1       2.290  -1.178   0.733  0.00  0.00    +0.001 A 
ATOM      4  C   UNL     1       2.780   0.115   0.698  0.00  0.00    +0.002 A 
ATOM      5  C   UNL     1       1.942   1.167   0.376  0.00  0.00    +0.024 A 
ATOM      6  C   UNL     1       0.607   0.927   0.087  0.00  0.00    +0.049 A 
ENDROOT
BRANCH   6   7
ATOM      7  N   UNL     1      -0.242   1.991  -0.245  0.00  0.00    -0.268 N 
ATOM      8  C   UNL     1       0.263   3.103  -0.817  0.00  0.00    +0.308 C 
ATOM      9  O   UNL     1       1.463   3.215  -0.973  0.00  0.00    -0.252 OA
ATOM     10  N   UNL     1      -0.564   4.090  -1.216  0.00  0.00    -0.267 N 
ATOM     11  H   UNL     1      -1.320   1.919  -0.040  0.00  0.00    +0.156 HD
ATOM     12  H   UNL     1      -1.640   4.028  -0.998  0.00  0.00    +0.156 HD
BRANCH  10  13
ATOM     13  C   UNL     1      -0.052   5.195  -1.908  0.00  0.00    +0.070 A 
ATOM     14  C   UNL     1       1.067   5.052  -2.717  0.00  0.00    +0.027 A 
ATOM     15  C   UNL     1       1.570   6.143  -3.399  0.00  0.00    +0.017 A 
ATOM     16  C   UNL     1       0.959   7.379  -3.278  0.00  0.00    +0.021 A 
ATOM     17  C   UNL     1      -0.156   7.526  -2.473  0.00  0.00    +0.055 A 
ATOM     18  C   UNL     1      -0.667   6.436  -1.792  0.00  0.00    +0.146 A 
ATOM     19  F   UNL     1      -1.760   6.579  -1.010  0.00  0.00    -0.204 F 
ATOM     20 BR   UNL     1       1.651   8.869  -4.213  0.00  0.00    -0.050 Br
ENDBRANCH  10  13
ENDBRANCH   6   7
BRANCH   1  21
ATOM     21  S   UNL     1      -1.581  -0.690  -0.245  0.00  0.00    -0.068 S 
BRANCH  21  25
ATOM     22  C   UNL     1      -3.399  -5.367   1.279  0.00  0.00    +0.066 C 
ATOM     23  C   UNL     1      -2.427  -4.564   0.453  0.00  0.00    +0.045 A 
ATOM     24  C   UNL     1      -2.467  -3.173   0.497  0.00  0.00    +0.058 A 
ATOM     25  C   UNL     1      -1.568  -2.452  -0.267  0.00  0.00    +0.109 A 
ATOM     26  N   UNL     1      -0.673  -3.133  -1.044  0.00  0.00    -0.190 N 
ATOM     27  C   UNL     1      -0.668  -4.499  -1.048  0.00  0.00    +0.254 A 
ATOM     28  N   UNL     1      -1.545  -5.183  -0.304  0.00  0.00    -0.216 NA
ATOM     29  N   UNL     1       0.298  -4.885  -1.876  0.00  0.00    -0.197 NA
ATOM     30  C   UNL     1       0.892  -3.819  -2.398  0.00  0.00    +0.247 A 
ATOM     31  N   UNL     1       0.343  -2.729  -1.918  0.00  0.00    -0.151 NA
ENDBRANCH  21  25
ENDBRANCH   1  21
TORSDOF 4
