REMARK  Name = ZINC36495656
REMARK  20 active torsions:
REMARK  status: ('A' for Active; 'I' for Inactive)
REMARK    1  A    between atoms: C_1  and  C_2
REMARK    2  A    between atoms: C_2  and  C_3
REMARK    3  A    between atoms: C_3  and  C_4
REMARK    4  A    between atoms: C_3  and  C_6
REMARK    5  A    between atoms: C_4  and  C_5
REMARK    6  A    between atoms: C_6  and  C_8
REMARK    7  A    between atoms: C_6  and  N_19
REMARK    8  A    between atoms: N_10  and  C_11
REMARK    9  A    between atoms: C_11  and  C_12
REMARK   10  A    between atoms: C_11  and  C_13
REMARK   11  A    between atoms: C_11  and  C_14
REMARK   12  A    between atoms: C_14  and  C_15
REMARK   13  A    between atoms: C_15  and  C_16
REMARK   14  A    between atoms: C_15  and  C_17
REMARK   15  A    between atoms: C_15  and  C_18
REMARK   16  A    between atoms: N_19  and  C_20
REMARK   17  A    between atoms: C_20  and  C_21
REMARK   18  A    between atoms: C_26  and  C_28
REMARK   19  A    between atoms: C_28  and  C_29
REMARK   20  A    between atoms: C_29  and  C_30
REMARK                            x       y       z     vdW  Elec       q    Type
REMARK                         _______ _______ _______ _____ _____    ______ ____
ROOT
ATOM      1  C   UNL     1      -3.240   1.252   2.354  0.00  0.00    +0.165 C 
ENDROOT
BRANCH   1   2
ATOM      2  C   UNL     1      -4.154   0.906   3.501  0.00  0.00    +0.234 C 
ATOM      3  O   UNL     1      -5.285   1.345   3.529  0.00  0.00    -0.274 OA
ATOM      4  N   UNL     1      -3.716   0.110   4.496  0.00  0.00    -0.309 N 
ATOM      5  H   UNL     1      -2.789  -0.176   4.516  0.00  0.00    +0.149 HD
BRANCH   4   6
ATOM      6  C   UNL     1      -4.638  -0.324   5.548  0.00  0.00    +0.030 C 
ATOM      7  C   UNL     1      -4.928   0.849   6.488  0.00  0.00    +0.031 C 
ATOM      8  C   UNL     1      -5.945  -0.804   4.914  0.00  0.00    +0.031 C 
BRANCH   6   9
ATOM      9  C   UNL     1      -4.005  -1.469   6.341  0.00  0.00    +0.031 C 
BRANCH   9  10
ATOM     10  C   UNL     1      -3.394  -2.483   5.373  0.00  0.00    -0.036 C 
ATOM     11  C   UNL     1      -2.070  -1.940   4.833  0.00  0.00    +0.010 C 
ATOM     12  C   UNL     1      -3.143  -3.802   6.107  0.00  0.00    +0.010 C 
ATOM     13  C   UNL     1      -4.359  -2.723   4.210  0.00  0.00    +0.010 C 
ENDBRANCH   9  10
ENDBRANCH   6   9
ENDBRANCH   4   6
ENDBRANCH   1   2
BRANCH   1  14
ATOM     14  N   UNL     1      -2.821   2.651   2.468  0.00  0.00    -0.282 N 
ATOM     15  C   UNL     1      -1.516   2.954   2.616  0.00  0.00    +0.217 C 
ATOM     16  O   UNL     1      -0.689   2.068   2.655  0.00  0.00    -0.276 OA
BRANCH  14  17
ATOM     17  C   UNL     1      -3.821   3.721   2.421  0.00  0.00    +0.182 C 
BRANCH  17  18
ATOM     18  C   UNL     1      -4.182   4.133   3.824  0.00  0.00    +0.122 A 
ATOM     19  C   UNL     1      -3.603   5.124   4.527  0.00  0.00    +0.046 A 
ATOM     20  C   UNL     1      -4.247   5.163   5.785  0.00  0.00    +0.041 A 
ATOM     21  C   UNL     1      -5.181   4.195   5.776  0.00  0.00    +0.195 A 
ATOM     22  O   UNL     1      -5.141   3.578   4.584  0.00  0.00    -0.466 OA
ENDBRANCH  17  18
ENDBRANCH  14  17
BRANCH  15  23
ATOM     23  C   UNL     1      -1.085   4.393   2.733  0.00  0.00    +0.096 C 
BRANCH  23  24
ATOM     24  C   UNL     1       0.435   4.459   2.891  0.00  0.00    +0.013 C 
BRANCH  24  25
ATOM     25  C   UNL     1       0.873   5.921   3.010  0.00  0.00    -0.011 C 
ATOM     26  C   UNL     1       0.305   6.520   4.299  0.00  0.00    +0.003 C 
ATOM     27  C   UNL     1       0.743   7.981   4.417  0.00  0.00    +0.000 C 
ATOM     28  C   UNL     1       2.271   8.055   4.450  0.00  0.00    +0.000 C 
ATOM     29  C   UNL     1       2.838   7.456   3.162  0.00  0.00    +0.000 C 
ATOM     30  C   UNL     1       2.401   5.995   3.043  0.00  0.00    +0.003 C 
ENDBRANCH  24  25
ENDBRANCH  23  24
ENDBRANCH  15  23
ENDBRANCH   1  14
BRANCH   1  31
ATOM     31  C   UNL     1      -3.982   1.048   1.032  0.00  0.00    +0.018 C 
BRANCH  31  33
ATOM     32  C   UNL     1      -3.054   2.953  -0.292  0.00  0.00    +0.004 C 
ATOM     33  C   UNL     1      -3.065   1.432  -0.132  0.00  0.00    +0.002 C 
ENDBRANCH  31  33
BRANCH  31  34
ATOM     34  C   UNL     1      -4.389  -0.421   0.897  0.00  0.00    +0.002 C 
ATOM     35  C   UNL     1      -5.572  -0.710   1.823  0.00  0.00    +0.004 C 
ENDBRANCH  31  34
ENDBRANCH   1  31
TORSDOF 13
