REMARK  Name = ZINC64491015
REMARK  8 active torsions:
REMARK  status: ('A' for Active; 'I' for Inactive)
REMARK    1  A    between atoms: C_1  and  O_2
REMARK    2  A    between atoms: O_2  and  C_3
REMARK    3  A    between atoms: C_6  and  C_9
REMARK    4  A    between atoms: N_27  and  C_28
REMARK    5  A    between atoms: C_30  and  O_36
REMARK    6  A    between atoms: C_33  and  O_34
REMARK    7  A    between atoms: O_34  and  C_35
REMARK    8  A    between atoms: O_36  and  C_37
REMARK                            x       y       z     vdW  Elec       q    Type
REMARK                         _______ _______ _______ _____ _____    ______ ____
ROOT
ATOM      1  C   UNL     1       3.014  -2.900  -4.507  0.00  0.00    +0.134 C 
ATOM      2  C   UNL     1       4.270  -3.585  -3.957  0.00  0.00    +0.131 C 
ATOM      3  C   UNL     1       3.809  -4.500  -2.830  0.00  0.00    -0.035 C 
ATOM      4  C   UNL     1       4.496  -4.141  -1.751  0.00  0.00    +0.001 A 
ATOM      5  C   UNL     1       4.537  -4.695  -0.388  0.00  0.00    +0.030 A 
ATOM      6  C   UNL     1       5.361  -4.064   0.491  0.00  0.00    +0.042 A 
ATOM      7  C   UNL     1       6.138  -2.950   0.153  0.00  0.00    +0.022 A 
ATOM      8  C   UNL     1       6.165  -2.378  -1.077  0.00  0.00    +0.027 A 
ATOM      9  C   UNL     1       5.342  -2.957  -2.088  0.00  0.00    +0.043 A 
ATOM     10  N   UNL     1       5.197  -2.623  -3.358  0.00  0.00    -0.375 N 
ATOM     11 CL   UNL     1       5.452  -4.670   2.115  0.00  0.00    -0.084 Cl
ATOM     12  C   UNL     1       2.714  -5.522  -3.012  0.00  0.00    +0.052 C 
ATOM     13  C   UNL     1       1.522  -4.785  -3.649  0.00  0.00    +0.114 C 
ATOM     14  N   UNL     1       2.002  -3.940  -4.749  0.00  0.00    -0.276 N 
ATOM     15  C   UNL     1       1.512  -4.118  -5.992  0.00  0.00    +0.307 C 
ATOM     16  O   UNL     1       1.961  -3.474  -6.920  0.00  0.00    -0.252 OA
ATOM     17  N   UNL     1       0.525  -5.010  -6.206  0.00  0.00    -0.266 N 
ATOM     18  H   UNL     1       0.147  -5.503  -5.461  0.00  0.00    +0.156 HD
ATOM     19  H   UNL     1       5.616  -1.878  -3.817  0.00  0.00    +0.160 HD
ENDROOT
BRANCH   1  23
ATOM     20  C   UNL     1       1.538  -0.080  -1.655  0.00  0.00    +0.120 A 
ATOM     21  C   UNL     1       1.836   0.329  -2.947  0.00  0.00    +0.046 A 
ATOM     22  C   UNL     1       2.313  -0.585  -3.867  0.00  0.00    +0.009 A 
ATOM     23  C   UNL     1       2.494  -1.906  -3.501  0.00  0.00    -0.024 A 
ATOM     24  C   UNL     1       2.197  -2.316  -2.214  0.00  0.00    +0.009 A 
ATOM     25  C   UNL     1       1.726  -1.405  -1.289  0.00  0.00    +0.046 A 
BRANCH  20  27
ATOM     26  C   UNL     1       0.900   2.163  -1.195  0.00  0.00    +0.277 C 
ATOM     27  O   UNL     1       1.069   0.817  -0.748  0.00  0.00    -0.495 OA
ENDBRANCH  20  27
ENDBRANCH   1  23
BRANCH  17  28
ATOM     28  C   UNL     1       0.044  -5.226  -7.505  0.00  0.00    +0.080 A 
ATOM     29  C   UNL     1       0.236  -4.263  -8.485  0.00  0.00    +0.072 A 
ATOM     30  C   UNL     1      -0.240  -4.479  -9.769  0.00  0.00    +0.122 A 
ATOM     31  C   UNL     1      -0.907  -5.657 -10.073  0.00  0.00    +0.049 A 
ATOM     32  C   UNL     1      -1.099  -6.617  -9.098  0.00  0.00    +0.051 A 
ATOM     33  C   UNL     1      -0.621  -6.409  -7.815  0.00  0.00    +0.141 A 
BRANCH  33  34
ATOM     34  O   UNL     1      -0.806  -7.358  -6.857  0.00  0.00    -0.493 OA
ATOM     35  C   UNL     1      -1.496  -8.547  -7.246  0.00  0.00    +0.277 C 
ENDBRANCH  33  34
BRANCH  30  36
ATOM     36  O   UNL     1      -0.053  -3.536 -10.730  0.00  0.00    -0.495 OA
ATOM     37  C   UNL     1      -0.570  -3.825 -12.031  0.00  0.00    +0.277 C 
ENDBRANCH  30  36
ENDBRANCH  17  28
TORSDOF 5
