REMARK  Name = ZINC44779578
REMARK  4 active torsions:
REMARK  status: ('A' for Active; 'I' for Inactive)
REMARK    1  A    between atoms: C_3  and  N_9
REMARK    2  A    between atoms: C_10  and  C_12
REMARK    3  A    between atoms: C_12  and  C_19
REMARK    4  A    between atoms: C_19  and  N_21
REMARK                            x       y       z     vdW  Elec       q    Type
REMARK                         _______ _______ _______ _____ _____    ______ ____
ROOT
ATOM      1  N   UNL     1       2.473   3.926  -0.583  0.00  0.00    -0.284 N 
ATOM      2  C   UNL     1       3.557   3.487   0.087  0.00  0.00    +0.230 C 
ATOM      3  O   UNL     1       3.535   2.404   0.633  0.00  0.00    -0.274 OA
ATOM      4  H   UNL     1       2.502   4.776  -1.049  0.00  0.00    +0.155 HD
ENDROOT
BRANCH   1   7
ATOM      5  C   UNL     1       0.214   1.031  -0.383  0.00  0.00    +0.017 A 
ATOM      6  C   UNL     1       1.368   1.790  -0.359  0.00  0.00    +0.025 A 
ATOM      7  C   UNL     1       1.305   3.155  -0.606  0.00  0.00    +0.048 A 
ATOM      8  C   UNL     1       0.081   3.754  -0.875  0.00  0.00    +0.040 A 
ATOM      9  C   UNL     1      -1.071   2.990  -0.897  0.00  0.00    +0.032 A 
ATOM     10  C   UNL     1      -1.004   1.630  -0.651  0.00  0.00    +0.019 A 
ATOM     11 BR   UNL     1      -2.582   0.588  -0.681  0.00  0.00    -0.050 Br
ATOM     12 BR   UNL     1      -0.010   5.613  -1.212  0.00  0.00    -0.048 Br
ENDBRANCH   1   7
BRANCH   2  13
ATOM     13  C   UNL     1       4.797   4.341   0.157  0.00  0.00    +0.091 C 
ATOM     14  C   UNL     1       5.584   3.990   1.390  0.00  0.00    +0.023 C 
ATOM     15  C   UNL     1       4.701   3.396   2.504  0.00  0.00    +0.001 C 
ATOM     16  C   UNL     1       3.356   4.132   2.656  0.00  0.00    +0.000 C 
ATOM     17  C   UNL     1       3.502   5.626   2.555  0.00  0.00    +0.000 C 
ATOM     18  C   UNL     1       3.240   6.046   1.094  0.00  0.00    +0.001 C 
ATOM     19  C   UNL     1       4.397   5.829   0.238  0.00  0.00    +0.023 C 
BRANCH  13  20
ATOM     20  C   UNL     1       5.641   4.111  -1.070  0.00  0.00    +0.061 C 
ATOM     21  S   UNL     1       5.912   5.311  -2.091  0.00  0.00    -0.040 S 
BRANCH  20  22
ATOM     22  N   UNL     1       6.167   2.893  -1.307  0.00  0.00    -0.355 N 
ATOM     23  H   UNL     1       5.945   2.147  -0.727  0.00  0.00    +0.143 HD
ATOM     24  H   UNL     1       6.766   2.761  -2.058  0.00  0.00    +0.143 HD
ENDBRANCH  20  22
ENDBRANCH  13  20
ENDBRANCH   2  13
TORSDOF 4
