REMARK  Name = ZINC09183884
REMARK  7 active torsions:
REMARK  status: ('A' for Active; 'I' for Inactive)
REMARK    1  A    between atoms: C_1  and  C_2
REMARK    2  A    between atoms: C_12  and  C_13
REMARK    3  A    between atoms: C_13  and  C_14
REMARK    4  A    between atoms: N_16  and  C_17
REMARK    5  A    between atoms: N_16  and  C_18
REMARK    6  A    between atoms: C_27  and  C_30
REMARK    7  A    between atoms: C_27  and  C_31
REMARK                            x       y       z     vdW  Elec       q    Type
REMARK                         _______ _______ _______ _____ _____    ______ ____
ROOT
ATOM      1  C   UNL     1      -0.867   2.054  -6.681  0.00  0.00    +0.045 C 
ATOM      2  C   UNL     1       0.596   2.404  -6.581  0.00  0.00    -0.029 A 
ATOM      3  C   UNL     1       1.203   3.367  -7.502  0.00  0.00    +0.021 A 
ATOM      4  C   UNL     1       0.446   3.990  -8.499  0.00  0.00    +0.019 A 
ATOM      5  C   UNL     1       1.036   4.882  -9.353  0.00  0.00    -0.005 A 
ATOM      6  C   UNL     1       2.390   5.177  -9.233  0.00  0.00    +0.128 A 
ATOM      7  C   UNL     1       3.155   4.566  -8.247  0.00  0.00    +0.093 A 
ATOM      8  C   UNL     1       2.574   3.660  -7.377  0.00  0.00    +0.143 A 
ATOM      9  O   UNL     1       3.304   3.058  -6.413  0.00  0.00    -0.422 OA
ATOM     10  C   UNL     1       2.752   2.178  -5.563  0.00  0.00    +0.341 A 
ATOM     11  O   UNL     1       3.450   1.660  -4.709  0.00  0.00    -0.245 OA
ATOM     12  C   UNL     1       1.385   1.839  -5.631  0.00  0.00    +0.049 A 
ATOM     13  O   UNL     1       3.002   6.063 -10.062  0.00  0.00    -0.486 OA
ATOM     14  C   UNL     1       2.341   6.404 -11.281  0.00  0.00    +0.105 C 
ATOM     15  C   UNL     1       0.888   6.774 -10.957  0.00  0.00    +0.052 C 
ATOM     16  C   UNL     1       0.184   5.526 -10.418  0.00  0.00    +0.043 C 
ATOM     17  C   UNL     1       3.044   7.597 -11.931  0.00  0.00    +0.055 C 
ATOM     18  C   UNL     1       2.368   5.207 -12.234  0.00  0.00    +0.055 C 
ENDROOT
BRANCH  12  19
ATOM     19  C   UNL     1       0.803   0.846  -4.658  0.00  0.00    +0.138 C 
BRANCH  19  20
ATOM     20  C   UNL     1       0.301   1.574  -3.438  0.00  0.00    +0.220 C 
ATOM     21  O   UNL     1       0.405   2.780  -3.366  0.00  0.00    -0.275 OA
ATOM     22  N   UNL     1      -0.264   0.885  -2.427  0.00  0.00    -0.300 N 
ATOM     23  C   UNL     1      -0.390  -0.572  -2.514  0.00  0.00    +0.132 C 
BRANCH  22  24
ATOM     24  C   UNL     1      -0.752   1.593  -1.241  0.00  0.00    +0.098 C 
ATOM     25  C   UNL     1      -0.013   1.086   0.008  0.00  0.00    +0.046 C 
ATOM     26  C   UNL     1      -0.733   1.583   1.285  0.00  0.00    +0.168 C 
ATOM     27  S   UNL     1      -2.475   1.757   0.726  0.00  0.00    -0.029 S 
ATOM     28  O   UNL     1      -2.857   3.122   0.822  0.00  0.00    -0.174 OA
ATOM     29  O   UNL     1      -3.267   0.762   1.361  0.00  0.00    -0.174 OA
ATOM     30  C   UNL     1      -2.271   1.315  -1.051  0.00  0.00    +0.188 C 
ENDBRANCH  22  24
ENDBRANCH  19  20
ENDBRANCH  12  19
TORSDOF 3
