REMARK  Name = ZINC20918557
REMARK  12 active torsions:
REMARK  status: ('A' for Active; 'I' for Inactive)
REMARK    1  A    between atoms: C_1  and  C_2
REMARK    2  A    between atoms: C_5  and  C_39
REMARK    3  A    between atoms: N_8  and  C_10
REMARK    4  A    between atoms: C_10  and  C_11
REMARK    5  A    between atoms: C_11  and  C_12
REMARK    6  A    between atoms: C_12  and  N_13
REMARK    7  A    between atoms: C_14  and  C_16
REMARK    8  A    between atoms: C_16  and  C_38
REMARK    9  A    between atoms: C_21  and  O_36
REMARK   10  A    between atoms: N_29  and  C_30
REMARK   11  A    between atoms: C_30  and  C_31
REMARK   12  A    between atoms: O_36  and  C_37
REMARK                            x       y       z     vdW  Elec       q    Type
REMARK                         _______ _______ _______ _____ _____    ______ ____
ROOT
ATOM      1  C   UNL     1       7.286  -1.983   3.966  0.00  0.00    +0.129 C 
ATOM      2  C   UNL     1       8.059  -2.168   5.270  0.00  0.00    +0.157 C 
ATOM      3  N   UNL     1       7.856  -0.992   6.125  0.00  0.00    -0.334 N 
ATOM      4  C   UNL     1       7.853  -0.881   7.475  0.00  0.00    +0.053 A 
ATOM      5  C   UNL     1       8.022  -1.820   8.491  0.00  0.00    +0.072 A 
ATOM      6  C   UNL     1       7.963  -1.354   9.797  0.00  0.00    +0.122 A 
ATOM      7  C   UNL     1       7.746  -0.013  10.096  0.00  0.00    +0.046 A 
ATOM      8  C   UNL     1       7.576   0.932   9.118  0.00  0.00    +0.013 A 
ATOM      9  C   UNL     1       7.630   0.489   7.788  0.00  0.00    +0.001 A 
ATOM     10  C   UNL     1       7.494   1.179   6.570  0.00  0.00    +0.041 A 
ATOM     11  C   UNL     1       7.625   0.274   5.577  0.00  0.00    +0.106 A 
ATOM     12  C   UNL     1       7.544   0.457   4.117  0.00  0.00    +0.264 C 
ATOM     13  O   UNL     1       7.520   1.563   3.611  0.00  0.00    -0.268 OA
ATOM     14  N   UNL     1       7.499  -0.670   3.369  0.00  0.00    -0.276 N 
ATOM     15  C   UNL     1       7.733  -3.057   2.972  0.00  0.00    +0.043 C 
ENDROOT
BRANCH   1  17
ATOM     16  N   UNL     1       5.065  -1.099   4.603  0.00  0.00    -0.314 N 
ATOM     17  C   UNL     1       5.815  -2.159   4.243  0.00  0.00    +0.238 C 
ATOM     18  O   UNL     1       5.306  -3.255   4.141  0.00  0.00    -0.273 OA
ATOM     19  H   UNL     1       5.484  -0.237   4.754  0.00  0.00    +0.149 HD
BRANCH  16  20
ATOM     20  C   UNL     1       3.617  -1.247   4.768  0.00  0.00    +0.102 C 
BRANCH  20  21
ATOM     21  C   UNL     1       3.010   0.096   5.177  0.00  0.00    +0.000 C 
BRANCH  21  22
ATOM     22  C   UNL     1       1.497  -0.059   5.349  0.00  0.00    -0.077 C 
BRANCH  22  28
ATOM     23  C   UNL     1       1.419   3.393   8.819  0.00  0.00    +0.005 C 
ATOM     24  C   UNL     1       0.885   2.996   7.441  0.00  0.00    -0.031 C 
ATOM     25  C   UNL     1      -0.645   2.946   7.480  0.00  0.00    +0.003 C 
ATOM     26  C   UNL     1      -1.165   2.472   6.120  0.00  0.00    -0.031 C 
ATOM     27  C   UNL     1      -0.548   1.111   5.790  0.00  0.00    -0.076 C 
ATOM     28  N   UNL     1       0.914   1.231   5.742  0.00  0.00    +0.380 N 
ATOM     29  C   UNL     1       1.427   1.616   7.062  0.00  0.00    -0.076 C 
ATOM     30  C   UNL     1      -2.688   2.344   6.171  0.00  0.00    +0.005 C 
ATOM     31  H   UNL     1       1.171   1.934   5.065  0.00  0.00    -0.082 HD
ENDBRANCH  22  28
ENDBRANCH  21  22
ENDBRANCH  20  21
ENDBRANCH  16  20
ENDBRANCH   1  17
BRANCH   6  32
ATOM     32  O   UNL     1       8.122  -2.237  10.818  0.00  0.00    -0.495 OA
ATOM     33  C   UNL     1       8.053  -1.713  12.145  0.00  0.00    +0.277 C 
ENDBRANCH   6  32
BRANCH  14  34
ATOM     34  C   UNL     1       7.668  -0.567   1.917  0.00  0.00    +0.151 C 
BRANCH  34  35
ATOM     35  C   UNL     1       6.316  -0.504   1.257  0.00  0.00    +0.007 A 
ATOM     36  C   UNL     1       5.518   0.571   1.045  0.00  0.00    +0.013 A 
ATOM     37  C   UNL     1       4.303   0.390   0.410  0.00  0.00    +0.008 A 
ATOM     38  C   UNL     1       3.946  -0.857   0.018  0.00  0.00    +0.045 A 
ATOM     39  S   UNL     1       5.351  -1.826   0.542  0.00  0.00    -0.100 S 
ENDBRANCH  34  35
ENDBRANCH  14  34
TORSDOF 8
