REMARK  Name = ZINC66954990
REMARK  11 active torsions:
REMARK  status: ('A' for Active; 'I' for Inactive)
REMARK    1  A    between atoms: C_1  and  C_2
REMARK    2  A    between atoms: C_2  and  C_4
REMARK    3  A    between atoms: C_2  and  S_7
REMARK    4  A    between atoms: C_4  and  C_5
REMARK    5  A    between atoms: S_7  and  C_8
REMARK    6  A    between atoms: C_13  and  N_14
REMARK    7  A    between atoms: N_17  and  C_18
REMARK    8  A    between atoms: N_21  and  C_24
REMARK    9  A    between atoms: C_24  and  C_25
REMARK   10  A    between atoms: C_26  and  C_27
REMARK   11  A    between atoms: C_26  and  C_28
REMARK                            x       y       z     vdW  Elec       q    Type
REMARK                         _______ _______ _______ _____ _____    ______ ____
ROOT
ATOM      1  N   UNL     1       3.437  -1.306  -3.569  0.00  0.00    -0.268 N 
ATOM      2  C   UNL     1       3.220  -1.452  -4.891  0.00  0.00    +0.304 C 
ATOM      3  O   UNL     1       2.459  -0.700  -5.469  0.00  0.00    -0.253 OA
ATOM      4  N   UNL     1       3.846  -2.432  -5.572  0.00  0.00    -0.296 N 
ATOM      5  H   UNL     1       4.097  -1.859  -3.122  0.00  0.00    +0.156 HD
ATOM      6  H   UNL     1       4.453  -3.032  -5.111  0.00  0.00    +0.151 HD
ENDROOT
BRANCH   4   7
ATOM      7  C   UNL     1       3.609  -2.591  -7.009  0.00  0.00    +0.071 C 
ATOM      8  C   UNL     1       2.360  -3.449  -7.231  0.00  0.00    +0.004 C 
ATOM      9  C   UNL     1       2.164  -3.677  -8.731  0.00  0.00    -0.077 C 
ATOM     10  N   UNL     1       3.337  -4.367  -9.282  0.00  0.00    +0.382 N 
ATOM     11  C   UNL     1       4.527  -3.519  -9.137  0.00  0.00    -0.077 C 
ATOM     12  C   UNL     1       4.813  -3.285  -7.653  0.00  0.00    +0.004 C 
ATOM     13  H   UNL     1       3.481  -5.233  -8.785  0.00  0.00    -0.081 HD
BRANCH  10  14
ATOM     14  C   UNL     1       3.111  -4.653 -10.705  0.00  0.00    -0.051 C 
BRANCH  14  15
ATOM     15  C   UNL     1       4.260  -5.468 -11.242  0.00  0.00    -0.047 C 
ATOM     16  C   UNL     1       4.916  -5.058 -12.299  0.00  0.00    -0.081 C 
ATOM     17  C   UNL     1       4.442  -3.845 -13.056  0.00  0.00    +0.038 C 
ATOM     18  C   UNL     1       6.145  -5.801 -12.757  0.00  0.00    +0.038 C 
ENDBRANCH  14  15
ENDBRANCH  10  14
ENDBRANCH   4   7
BRANCH   1  24
ATOM     19  C   UNL     1       2.424  -0.574  -1.493  0.00  0.00    +0.029 A 
ATOM     20  C   UNL     1       1.709   0.375  -0.776  0.00  0.00    +0.016 A 
ATOM     21  C   UNL     1       1.279   1.532  -1.398  0.00  0.00    +0.001 A 
ATOM     22  C   UNL     1       1.559   1.747  -2.735  0.00  0.00    +0.002 A 
ATOM     23  C   UNL     1       2.271   0.807  -3.457  0.00  0.00    +0.024 A 
ATOM     24  C   UNL     1       2.711  -0.354  -2.840  0.00  0.00    +0.048 A 
BRANCH  19  25
ATOM     25  S   UNL     1       2.973  -2.050  -0.702  0.00  0.00    -0.119 S 
BRANCH  25  27
ATOM     26  C   UNL     1       3.449  -0.738   1.651  0.00  0.00    +0.020 C 
ATOM     27  C   UNL     1       2.535  -1.803   1.041  0.00  0.00    +0.062 C 
BRANCH  27  28
ATOM     28  C   UNL     1       2.707  -3.119   1.801  0.00  0.00    +0.132 C 
BRANCH  28  29
ATOM     29  C   UNL     1       1.743  -4.109   1.294  0.00  0.00    +0.064 C 
ATOM     30  N   UNL     1       0.998  -4.873   0.902  0.00  0.00    -0.197 NA
ENDBRANCH  28  29
ENDBRANCH  27  28
ENDBRANCH  25  27
ENDBRANCH  19  25
ENDBRANCH   1  24
TORSDOF 8
