REMARK  Name = ZINC45869389
REMARK  8 active torsions:
REMARK  status: ('A' for Active; 'I' for Inactive)
REMARK    1  A    between atoms: C_1  and  C_2
REMARK    2  A    between atoms: C_4  and  C_8
REMARK    3  A    between atoms: C_5  and  C_7
REMARK    4  A    between atoms: C_10  and  C_18
REMARK    5  A    between atoms: C_12  and  C_17
REMARK    6  A    between atoms: N_20  and  C_21
REMARK    7  A    between atoms: C_25  and  N_27
REMARK    8  A    between atoms: C_28  and  C_30
REMARK                            x       y       z     vdW  Elec       q    Type
REMARK                         _______ _______ _______ _____ _____    ______ ____
ROOT
ATOM      1  C   UNL     1      -0.964  -6.899  -0.908  0.00  0.00    +0.076 A 
ATOM      2  C   UNL     1      -2.300  -6.495  -1.004  0.00  0.00    +0.042 A 
ATOM      3  C   UNL     1      -3.305  -7.452  -0.906  0.00  0.00    +0.053 A 
ATOM      4  C   UNL     1      -2.921  -8.796  -0.712  0.00  0.00    +0.076 A 
ATOM      5  C   UNL     1      -3.660 -10.049  -0.565  0.00  0.00    +0.091 A 
ATOM      6  N   UNL     1      -2.786 -10.997  -0.410  0.00  0.00    -0.080 NA
ATOM      7  O   UNL     1      -1.482 -10.454  -0.442  0.00  0.00    -0.334 OA
ATOM      8  C   UNL     1      -1.557  -9.120  -0.625  0.00  0.00    +0.260 A 
ATOM      9  N   UNL     1      -0.639  -8.171  -0.730  0.00  0.00    -0.210 NA
ATOM     10  C   UNL     1      -5.158 -10.210  -0.590  0.00  0.00    +0.070 C 
ENDROOT
BRANCH   1  14
ATOM     11  C   UNL     1       0.853  -2.196  -1.480  0.00  0.00    +0.051 C 
ATOM     12  C   UNL     1       0.856  -3.690  -1.282  0.00  0.00    -0.012 A 
ATOM     13  C   UNL     1      -0.195  -4.536  -1.199  0.00  0.00    +0.021 A 
ATOM     14  C   UNL     1       0.109  -5.885  -1.013  0.00  0.00    +0.011 A 
ATOM     15  C   UNL     1       1.422  -6.243  -0.929  0.00  0.00    -0.004 A 
ATOM     16  S   UNL     1       2.246  -4.790  -1.105  0.00  0.00    -0.098 S 
ATOM     17  C   UNL     1       1.999  -7.621  -0.730  0.00  0.00    +0.052 C 
ENDBRANCH   1  14
BRANCH   3  18
ATOM     18  C   UNL     1      -4.732  -7.072  -1.002  0.00  0.00    +0.249 C 
ATOM     19  O   UNL     1      -5.503  -7.761  -1.639  0.00  0.00    -0.270 OA
ATOM     20  N   UNL     1      -5.176  -5.960  -0.382  0.00  0.00    -0.281 N 
ATOM     21  H   UNL     1      -4.550  -5.374   0.070  0.00  0.00    +0.155 HD
BRANCH  20  22
ATOM     22  C   UNL     1      -6.541  -5.653  -0.390  0.00  0.00    +0.036 A 
ATOM     23  C   UNL     1      -7.483  -6.673  -0.337  0.00  0.00    +0.026 A 
ATOM     24  C   UNL     1      -8.832  -6.371  -0.345  0.00  0.00    +0.042 A 
ATOM     25  C   UNL     1      -9.247  -5.053  -0.406  0.00  0.00    +0.145 A 
ATOM     26  C   UNL     1      -8.308  -4.028  -0.460  0.00  0.00    +0.071 A 
ATOM     27  C   UNL     1      -6.954  -4.330  -0.446  0.00  0.00    +0.049 A 
ATOM     28  F   UNL     1     -10.566  -4.761  -0.414  0.00  0.00    -0.204 F 
BRANCH  26  29
ATOM     29  N   UNL     1      -8.729  -2.694  -0.522  0.00  0.00    -0.283 N 
ATOM     30  C   UNL     1      -7.956  -1.771  -1.129  0.00  0.00    +0.214 C 
ATOM     31  O   UNL     1      -6.942  -2.111  -1.701  0.00  0.00    -0.276 OA
ATOM     32  C   UNL     1      -8.352  -0.318  -1.095  0.00  0.00    +0.109 C 
ATOM     33  H   UNL     1      -9.577  -2.434  -0.129  0.00  0.00    +0.155 HD
ENDBRANCH  26  29
ENDBRANCH  20  22
ENDBRANCH   3  18
TORSDOF 4
