REMARK  Name = ZINC25150386
REMARK  7 active torsions:
REMARK  status: ('A' for Active; 'I' for Inactive)
REMARK    1  A    between atoms: C_1  and  C_2
REMARK    2  A    between atoms: C_3  and  C_4
REMARK    3  A    between atoms: C_7  and  N_21
REMARK    4  A    between atoms: N_21  and  C_22
REMARK    5  A    between atoms: C_22  and  C_23
REMARK    6  A    between atoms: C_25  and  C_27
REMARK    7  A    between atoms: C_30  and  C_32
REMARK                            x       y       z     vdW  Elec       q    Type
REMARK                         _______ _______ _______ _____ _____    ______ ____
ROOT
ATOM      1  N   UNL     1       9.071  -0.373  -0.505  0.00  0.00    -0.290 N 
ATOM      2  C   UNL     1       8.235  -1.357  -0.118  0.00  0.00    +0.254 C 
ATOM      3  O   UNL     1       8.541  -2.522  -0.296  0.00  0.00    -0.269 OA
ENDROOT
BRANCH   1   6
ATOM      4  C   UNL     1       8.982  -1.444  -3.174  0.00  0.00    +0.101 C 
ATOM      5  C   UNL     1      10.073  -1.846  -2.177  0.00  0.00    +0.049 C 
ATOM      6  C   UNL     1      10.323  -0.704  -1.191  0.00  0.00    +0.081 C 
ATOM      7  C   UNL     1      10.836   0.534  -1.933  0.00  0.00    +0.050 C 
ATOM      8  C   UNL     1       9.752   1.012  -2.903  0.00  0.00    +0.110 C 
ATOM      9  N   UNL     1       9.361  -0.142  -3.738  0.00  0.00    -0.284 N 
ATOM     10  C   UNL     1       9.467   0.200  -5.031  0.00  0.00    +0.248 C 
ATOM     11  O   UNL     1       9.110  -0.489  -5.967  0.00  0.00    -0.270 OA
ATOM     12  C   UNL     1      10.077   1.527  -5.146  0.00  0.00    +0.042 A 
ATOM     13  C   UNL     1      10.272   2.042  -3.850  0.00  0.00    -0.015 A 
ATOM     14  C   UNL     1      10.845   3.278  -3.643  0.00  0.00    +0.006 A 
ATOM     15  C   UNL     1      11.216   4.000  -4.773  0.00  0.00    +0.000 A 
ATOM     16  C   UNL     1      11.021   3.507  -6.048  0.00  0.00    +0.001 A 
ATOM     17  C   UNL     1      10.450   2.264  -6.273  0.00  0.00    +0.013 A 
BRANCH   4  20
ATOM     18  C   UNL     1       5.559  -0.165  -2.010  0.00  0.00    +0.035 C 
ATOM     19  C   UNL     1       6.968  -0.217  -2.543  0.00  0.00    -0.033 C 
ATOM     20  C   UNL     1       7.656  -1.329  -2.468  0.00  0.00    -0.009 C 
ENDBRANCH   4  20
ENDBRANCH   1   6
BRANCH   2  21
ATOM     21  C   UNL     1       6.958  -1.025   0.518  0.00  0.00    +0.075 A 
ATOM     22  C   UNL     1       5.908  -1.866   0.856  0.00  0.00    +0.021 A 
ATOM     23  C   UNL     1       4.801  -1.328   1.449  0.00  0.00    +0.017 A 
ATOM     24  C   UNL     1       4.771   0.037   1.690  0.00  0.00    +0.020 A 
ATOM     25  S   UNL     1       6.351   0.567   1.052  0.00  0.00    -0.084 S 
BRANCH  24  26
ATOM     26  C   UNL     1       3.702   0.846   2.310  0.00  0.00    -0.008 A 
ATOM     27  C   UNL     1       2.523   0.236   2.743  0.00  0.00    +0.013 A 
ATOM     28  C   UNL     1       1.527   0.994   3.320  0.00  0.00    +0.050 A 
ATOM     29  C   UNL     1       1.690   2.365   3.473  0.00  0.00    +0.162 A 
ATOM     30  C   UNL     1       2.864   2.979   3.045  0.00  0.00    +0.163 A 
ATOM     31  C   UNL     1       3.867   2.224   2.464  0.00  0.00    +0.058 A 
ATOM     32  O   UNL     1       3.042   4.320   3.196  0.00  0.00    -0.485 OA
ATOM     33  C   UNL     1       1.869   5.103   3.441  0.00  0.00    +0.270 C 
ATOM     34  C   UNL     1       1.037   4.397   4.521  0.00  0.00    +0.270 C 
ATOM     35  O   UNL     1       0.689   3.094   4.037  0.00  0.00    -0.485 OA
ENDBRANCH  24  26
ENDBRANCH   2  21
BRANCH   1  36
ATOM     36  C   UNL     1       8.727   1.026  -0.241  0.00  0.00    +0.135 C 
BRANCH  36  37
ATOM     37  C   UNL     1       9.066   1.365   1.188  0.00  0.00    -0.016 C 
ATOM     38  C   UNL     1       9.852   2.379   1.452  0.00  0.00    +0.005 C 
ENDBRANCH  36  37
ENDBRANCH   1  36
TORSDOF 6
