REMARK  Name = ZINC41650439
REMARK  3 active torsions:
REMARK  status: ('A' for Active; 'I' for Inactive)
REMARK    1  A    between atoms: C_1  and  C_2
REMARK    2  A    between atoms: C_11  and  C_12
REMARK    3  A    between atoms: N_25  and  C_28
REMARK                            x       y       z     vdW  Elec       q    Type
REMARK                         _______ _______ _______ _____ _____    ______ ____
ROOT
ATOM      1  C   UNL     1      -0.645   1.598   0.130  0.00  0.00    +0.045 C 
ATOM      2  C   UNL     1      -0.756   0.095   0.111  0.00  0.00    -0.033 A 
ATOM      3  C   UNL     1      -1.037  -0.555  -1.056  0.00  0.00    +0.050 A 
ATOM      4  C   UNL     1      -1.140  -1.946  -1.081  0.00  0.00    +0.131 A 
ATOM      5  C   UNL     1      -0.957  -2.682   0.077  0.00  0.00    +0.051 A 
ATOM      6  C   UNL     1      -0.673  -2.034   1.275  0.00  0.00    +0.148 A 
ATOM      7  C   UNL     1      -0.566  -0.635   1.284  0.00  0.00    +0.071 A 
ATOM      8  C   UNL     1      -0.253  -0.251   2.673  0.00  0.00    +0.232 C 
ATOM      9  O   UNL     1      -0.082   0.872   3.116  0.00  0.00    -0.283 OA
ATOM     10  C   UNL     1      -0.193  -1.525   3.403  0.00  0.00    +0.176 C 
ATOM     11  C   UNL     1       0.068  -1.680   4.726  0.00  0.00    +0.061 C 
ATOM     12  O   UNL     1      -0.458  -2.516   2.519  0.00  0.00    -0.451 OA
ATOM     13  C   UNL     1      -1.058  -4.186   0.062  0.00  0.00    +0.130 C 
ATOM     14  N   UNL     1      -1.753  -4.621  -1.157  0.00  0.00    -0.261 NA
ATOM     15  C   UNL     1      -1.164  -3.966  -2.337  0.00  0.00    +0.319 C 
ATOM     16  O   UNL     1      -1.424  -2.563  -2.258  0.00  0.00    -0.476 OA
ENDROOT
BRANCH  11  17
ATOM     17  C   UNL     1      -0.019  -3.009   5.341  0.00  0.00    +0.022 A 
ATOM     18  C   UNL     1      -0.011  -4.157   4.540  0.00  0.00    +0.031 A 
ATOM     19  C   UNL     1      -0.095  -5.402   5.125  0.00  0.00    +0.042 A 
ATOM     20  C   UNL     1      -0.189  -5.522   6.503  0.00  0.00    +0.029 A 
ATOM     21  C   UNL     1      -0.198  -4.397   7.307  0.00  0.00    +0.022 A 
ATOM     22  C   UNL     1      -0.105  -3.138   6.738  0.00  0.00    +0.136 A 
ATOM     23  O   UNL     1      -0.097  -2.026   7.516  0.00  0.00    -0.465 OA
ATOM     24  C   UNL     1      -0.544  -2.178   8.866  0.00  0.00    +0.395 C 
ATOM     25  O   UNL     1       0.097  -3.327   9.433  0.00  0.00    -0.339 OA
ATOM     26  C   UNL     1      -0.306  -4.551   8.803  0.00  0.00    +0.202 C 
ATOM     27 CL   UNL     1      -0.083  -6.826   4.133  0.00  0.00    -0.084 Cl
ENDBRANCH  11  17
BRANCH  14  28
ATOM     28  C   UNL     1      -1.714  -6.083  -1.292  0.00  0.00    +0.083 C 
ATOM     29  C   UNL     1      -2.412  -6.726  -0.082  0.00  0.00    +0.043 C 
ATOM     30  C   UNL     1      -2.635  -8.233  -0.396  0.00  0.00    +0.167 C 
ATOM     31  S   UNL     1      -3.145  -8.137  -2.164  0.00  0.00    -0.029 S 
ATOM     32  O   UNL     1      -4.562  -8.058  -2.232  0.00  0.00    -0.174 OA
ATOM     33  O   UNL     1      -2.465  -9.146  -2.897  0.00  0.00    -0.174 OA
ATOM     34  C   UNL     1      -2.434  -6.498  -2.598  0.00  0.00    +0.184 C 
ENDBRANCH  14  28
TORSDOF 2
