REMARK  Name = ZINC03636335
REMARK  6 active torsions:
REMARK  status: ('A' for Active; 'I' for Inactive)
REMARK    1  A    between atoms: C_1  and  C_2
REMARK    2  A    between atoms: C_2  and  C_3
REMARK    3  A    between atoms: C_2  and  C_4
REMARK    4  A    between atoms: N_11  and  C_16
REMARK    5  A    between atoms: N_14  and  C_15
REMARK    6  A    between atoms: C_17  and  C_29
REMARK                            x       y       z     vdW  Elec       q    Type
REMARK                         _______ _______ _______ _____ _____    ______ ____
ROOT
ATOM      1  C   UNL     1       0.042   0.821   3.014  0.00  0.00    +0.228 C 
ATOM      2  O   UNL     1      -0.917   0.232   2.565  0.00  0.00    -0.275 OA
ATOM      3  N   UNL     1       0.219   0.904   4.347  0.00  0.00    -0.224 N 
ATOM      4  C   UNL     1      -0.751   1.470   5.158  0.00  0.00    +0.125 A 
ATOM      5  C   UNL     1      -0.746   1.314   6.509  0.00  0.00    +0.068 A 
ATOM      6  C   UNL     1      -1.767   1.925   7.269  0.00  0.00    +0.262 A 
ATOM      7  O   UNL     1      -1.779   1.806   8.482  0.00  0.00    -0.267 OA
ATOM      8  N   UNL     1      -2.726   2.638   6.650  0.00  0.00    -0.264 N 
ATOM      9  C   UNL     1      -2.720   2.771   5.311  0.00  0.00    +0.333 A 
ATOM     10  O   UNL     1      -3.596   3.415   4.768  0.00  0.00    -0.246 OA
ATOM     11  N   UNL     1      -1.757   2.200   4.566  0.00  0.00    -0.284 N 
ATOM     12  C   UNL     1      -1.775   2.361   3.111  0.00  0.00    +0.155 C 
ATOM     13  C   UNL     1      -3.785   3.272   7.439  0.00  0.00    +0.157 C 
ATOM     14  C   UNL     1       0.312   0.518   7.230  0.00  0.00    +0.093 C 
ATOM     15  C   UNL     1       1.458   0.240   6.294  0.00  0.00    +0.034 C 
ATOM     16  C   UNL     1       1.376   0.430   4.941  0.00  0.00    +0.058 C 
ATOM     17  C   UNL     1       2.653   0.061   4.321  0.00  0.00    +0.008 A 
ATOM     18  C   UNL     1       3.063   0.074   2.994  0.00  0.00    +0.010 A 
ATOM     19  C   UNL     1       4.369  -0.346   2.730  0.00  0.00    +0.001 A 
ATOM     20  C   UNL     1       5.219  -0.756   3.729  0.00  0.00    +0.001 A 
ATOM     21  C   UNL     1       4.822  -0.776   5.071  0.00  0.00    +0.012 A 
ATOM     22  C   UNL     1       3.532  -0.363   5.348  0.00  0.00    +0.031 A 
ATOM     23  C   UNL     1       2.789  -0.257   6.623  0.00  0.00    +0.193 C 
ATOM     24  O   UNL     1       3.207  -0.532   7.731  0.00  0.00    -0.287 OA
ENDROOT
BRANCH  14  25
ATOM     25  C   UNL     1      -0.276  -0.785   7.705  0.00  0.00    -0.035 A 
ATOM     26  C   UNL     1      -0.806  -1.677   6.792  0.00  0.00    +0.006 A 
ATOM     27  C   UNL     1      -1.341  -2.875   7.226  0.00  0.00    +0.020 A 
ATOM     28  C   UNL     1      -1.356  -3.176   8.576  0.00  0.00    +0.041 A 
ATOM     29  C   UNL     1      -0.831  -2.280   9.490  0.00  0.00    +0.020 A 
ATOM     30  C   UNL     1      -0.291  -1.085   9.054  0.00  0.00    +0.006 A 
ATOM     31 CL   UNL     1      -2.035  -4.678   9.124  0.00  0.00    -0.084 Cl
ENDBRANCH  14  25
BRANCH   1  33
ATOM     32  C   UNL     1       0.510   2.823   1.627  0.00  0.00    +0.017 C 
ATOM     33  C   UNL     1       1.038   1.460   2.081  0.00  0.00    +0.070 C 
ATOM     34  C   UNL     1       1.245   0.561   0.861  0.00  0.00    +0.017 C 
ENDBRANCH   1  33
TORSDOF 2
