REMARK  Name = ZINC12402380
REMARK  5 active torsions:
REMARK  status: ('A' for Active; 'I' for Inactive)
REMARK    1  A    between atoms: C_1  and  C_2
REMARK    2  A    between atoms: C_2  and  C_36
REMARK    3  A    between atoms: C_6  and  C_24
REMARK    4  A    between atoms: N_11  and  C_12
REMARK    5  A    between atoms: C_13  and  C_22
REMARK                            x       y       z     vdW  Elec       q    Type
REMARK                         _______ _______ _______ _____ _____    ______ ____
ROOT
ATOM      1  C   UNL     1      -0.103   0.182   2.106  0.00  0.00    +0.011 C 
ATOM      2  C   UNL     1      -0.758   0.981   0.977  0.00  0.00    -0.023 C 
ATOM      3  C   UNL     1      -2.269   0.728   0.974  0.00  0.00    +0.058 C 
ATOM      4  C   UNL     1      -2.906   1.480  -0.169  0.00  0.00    +0.027 C 
ATOM      5  C   UNL     1      -2.231   1.690  -1.317  0.00  0.00    +0.020 C 
ATOM      6  C   UNL     1      -2.905   2.392  -2.474  0.00  0.00    +0.063 C 
ATOM      7  C   UNL     1      -3.847   3.470  -1.937  0.00  0.00    +0.109 C 
ATOM      8  C   UNL     1      -4.697   2.880  -0.840  0.00  0.00    +0.225 C 
ATOM      9  O   UNL     1      -5.849   3.236  -0.711  0.00  0.00    -0.275 OA
ATOM     10  N   UNL     1      -4.182   1.963  -0.007  0.00  0.00    -0.236 N 
ATOM     11  C   UNL     1      -0.905   1.252  -1.477  0.00  0.00    +0.162 C 
ATOM     12  O   UNL     1      -0.330   1.461  -2.527  0.00  0.00    -0.292 OA
ATOM     13  C   UNL     1      -0.186   0.529  -0.371  0.00  0.00    +0.086 C 
ATOM     14  C   UNL     1      -0.488   2.474   1.175  0.00  0.00    +0.011 C 
ENDROOT
BRANCH  10  15
ATOM     15  C   UNL     1      -4.958   1.490   1.045  0.00  0.00    +0.097 A 
ATOM     16  C   UNL     1      -5.140   2.048   2.299  0.00  0.00    +0.084 A 
ATOM     17  C   UNL     1      -6.017   1.354   3.230  0.00  0.00    -0.018 A 
ATOM     18  C   UNL     1      -6.555   0.207   2.758  0.00  0.00    -0.004 A 
ATOM     19  S   UNL     1      -5.926   0.055   1.109  0.00  0.00    -0.076 S 
ATOM     20  C   UNL     1      -7.468  -0.738   3.475  0.00  0.00    +0.043 C 
ATOM     21  C   UNL     1      -8.610   0.055   4.124  0.00  0.00    +0.005 C 
ATOM     22  C   UNL     1      -8.174   0.467   5.527  0.00  0.00    +0.001 C 
ATOM     23  C   UNL     1      -6.669   0.725   5.556  0.00  0.00    +0.005 C 
ATOM     24  C   UNL     1      -6.309   1.881   4.629  0.00  0.00    +0.037 C 
BRANCH  16  25
ATOM     25  C   UNL     1      -4.489   3.269   2.666  0.00  0.00    +0.102 C 
ATOM     26  N   UNL     1      -3.973   4.238   2.958  0.00  0.00    -0.191 NA
ENDBRANCH  16  25
ENDBRANCH  10  15
BRANCH   6  27
ATOM     27  C   UNL     1      -3.693   1.391  -3.279  0.00  0.00    -0.036 A 
ATOM     28  C   UNL     1      -4.710   0.672  -2.679  0.00  0.00    +0.008 A 
ATOM     29  C   UNL     1      -5.440  -0.243  -3.415  0.00  0.00    +0.050 A 
ATOM     30  C   UNL     1      -5.145  -0.450  -4.753  0.00  0.00    +0.166 A 
ATOM     31  C   UNL     1      -4.117   0.271  -5.355  0.00  0.00    +0.167 A 
ATOM     32  C   UNL     1      -3.394   1.191  -4.613  0.00  0.00    +0.053 A 
ATOM     33  O   UNL     1      -4.025  -0.110  -6.663  0.00  0.00    -0.453 OA
ATOM     34  C   UNL     1      -4.734  -1.360  -6.750  0.00  0.00    +0.466 C 
ATOM     35  O   UNL     1      -5.698  -1.282  -5.683  0.00  0.00    -0.453 OA
ENDBRANCH   6  27
TORSDOF 3
