REMARK  Name = ZINC61872884
REMARK  1 active torsions:
REMARK  status: ('A' for Active; 'I' for Inactive)
REMARK    1  A    between atoms: C_12  and  C_14
REMARK                            x       y       z     vdW  Elec       q    Type
REMARK                         _______ _______ _______ _____ _____    ______ ____
ROOT
ATOM      1  C   UNL     1      -0.017   1.384   0.010  0.00  0.00    +0.022 A 
ATOM      2  C   UNL     1       1.142   2.116   0.003  0.00  0.00    +0.030 A 
ATOM      3  C   UNL     1       2.402   1.474  -0.013  0.00  0.00    +0.080 A 
ATOM      4  C   UNL     1       2.383   0.061  -0.021  0.00  0.00    +0.042 A 
ATOM      5  C   UNL     1       1.218  -0.665  -0.013  0.00  0.00    +0.037 A 
ATOM      6  C   UNL     1       0.002  -0.004   0.002  0.00  0.00    +0.042 A 
ATOM      7 CL   UNL     1      -1.484  -0.902   0.012  0.00  0.00    -0.084 Cl
ATOM      8  S   UNL     1       4.114  -0.341  -0.039  0.00  0.00    -0.052 S 
ATOM      9  C   UNL     1       4.733   1.336  -0.036  0.00  0.00    +0.166 A 
ATOM     10  N   UNL     1       3.627   2.043  -0.022  0.00  0.00    -0.225 NA
ATOM     11  N   UNL     1       6.045   1.776  -0.046  0.00  0.00    -0.259 N 
ATOM     12  C   UNL     1       6.313   3.098  -0.042  0.00  0.00    +0.268 C 
ATOM     13  O   UNL     1       5.402   3.902  -0.029  0.00  0.00    -0.268 OA
ATOM     14  H   UNL     1       6.772   1.135  -0.056  0.00  0.00    +0.157 HD
ENDROOT
BRANCH  12  15
ATOM     15  C   UNL     1       7.716   3.569  -0.052  0.00  0.00    +0.126 A 
ATOM     16  C   UNL     1       7.986   4.936  -0.041  0.00  0.00    +0.034 A 
ATOM     17  C   UNL     1       9.304   5.362  -0.051  0.00  0.00    +0.019 A 
ATOM     18  C   UNL     1      10.309   4.406  -0.070  0.00  0.00    +0.036 A 
ATOM     19  C   UNL     1       9.967   3.062  -0.079  0.00  0.00    +0.126 A 
ATOM     20  N   UNL     1       8.707   2.685  -0.065  0.00  0.00    -0.249 NA
ATOM     21 BR   UNL     1      12.126   4.929  -0.084  0.00  0.00    -0.049 Br
ENDBRANCH  12  15
TORSDOF 1
