REMARK  Name = ZINC64774129
REMARK  7 active torsions:
REMARK  status: ('A' for Active; 'I' for Inactive)
REMARK    1  A    between atoms: C_2  and  C_3
REMARK    2  A    between atoms: C_3  and  O_4
REMARK    3  A    between atoms: O_4  and  C_5
REMARK    4  A    between atoms: C_8  and  C_11
REMARK    5  A    between atoms: C_19  and  S_25
REMARK    6  A    between atoms: S_25  and  C_26
REMARK    7  A    between atoms: C_26  and  C_27
REMARK                            x       y       z     vdW  Elec       q    Type
REMARK                         _______ _______ _______ _____ _____    ______ ____
ROOT
ATOM      1  C   UNL     1       1.985   7.556   0.024  0.00  0.00    +0.047 C 
ATOM      2  C   UNL     1       2.755   7.989  -1.226  0.00  0.00    +0.105 C 
ATOM      3  C   UNL     1       3.213   9.413  -1.108  0.00  0.00    +0.219 C 
ATOM      4  O   UNL     1       3.504  10.007  -2.124  0.00  0.00    -0.275 OA
ATOM      5  N   UNL     1       3.318  10.065   0.059  0.00  0.00    -0.273 N 
ATOM      6  C   UNL     1       2.931   9.476   1.229  0.00  0.00    +0.117 C 
ATOM      7  N   UNL     1       2.682  10.194   2.286  0.00  0.00    -0.212 NA
ATOM      8  C   UNL     1       2.191   9.662   3.412  0.00  0.00    +0.182 C 
ATOM      9  N   UNL     1       1.887   8.376   3.510  0.00  0.00    -0.154 NA
ATOM     10  C   UNL     1       2.123   7.527   2.519  0.00  0.00    +0.249 C 
ATOM     11  O   UNL     1       1.790   6.364   2.639  0.00  0.00    -0.273 OA
ATOM     12  C   UNL     1       2.791   7.975   1.257  0.00  0.00    +0.148 C 
ATOM     13  H   UNL     1       3.674  10.967   0.072  0.00  0.00    +0.156 HD
ENDROOT
BRANCH   1  17
ATOM     14  C   UNL     1       1.482   3.312   0.006  0.00  0.00    +0.122 A 
ATOM     15  C   UNL     1       0.372   4.143   0.027  0.00  0.00    +0.046 A 
ATOM     16  C   UNL     1       0.537   5.515   0.033  0.00  0.00    +0.007 A 
ATOM     17  C   UNL     1       1.808   6.059   0.018  0.00  0.00    -0.042 A 
ATOM     18  C   UNL     1       2.916   5.233  -0.003  0.00  0.00    +0.007 A 
ATOM     19  C   UNL     1       2.757   3.861  -0.004  0.00  0.00    +0.046 A 
BRANCH  14  20
ATOM     20  O   UNL     1       1.323   1.962   0.000  0.00  0.00    -0.480 OA
BRANCH  20  21
ATOM     21  C   UNL     1      -0.018   1.468   0.010  0.00  0.00    +0.317 C 
BRANCH  21  23
ATOM     22  C   UNL     1       0.018  -1.178  -0.004  0.00  0.00    +0.007 C 
ATOM     23  C   UNL     1       0.002  -0.004   0.002  0.00  0.00    -0.065 C 
ENDBRANCH  21  23
ENDBRANCH  20  21
ENDBRANCH  14  20
ENDBRANCH   1  17
BRANCH   8  24
ATOM     24  S   UNL     1       1.941  10.706   4.809  0.00  0.00    -0.084 S 
BRANCH  24  25
ATOM     25  C   UNL     1       1.279   9.590   6.078  0.00  0.00    +0.115 C 
BRANCH  25  26
ATOM     26  C   UNL     1       1.018  10.367   7.343  0.00  0.00    -0.002 A 
ATOM     27  C   UNL     1       2.012  10.492   8.294  0.00  0.00    +0.007 A 
ATOM     28  C   UNL     1       1.773  11.204   9.455  0.00  0.00    +0.000 A 
ATOM     29  C   UNL     1       0.539  11.791   9.665  0.00  0.00    +0.003 A 
ATOM     30  C   UNL     1      -0.457  11.667   8.714  0.00  0.00    +0.038 A 
ATOM     31  C   UNL     1      -0.216  10.959   7.549  0.00  0.00    +0.127 A 
ATOM     32  F   UNL     1      -1.187  10.841   6.617  0.00  0.00    -0.205 F 
ENDBRANCH  25  26
ENDBRANCH  24  25
ENDBRANCH   8  24
TORSDOF 7
