REMARK  Name = ZINC02470525
REMARK  9 active torsions:
REMARK  status: ('A' for Active; 'I' for Inactive)
REMARK    1  A    between atoms: C_1  and  C_2
REMARK    2  A    between atoms: N_7  and  C_8
REMARK    3  A    between atoms: C_8  and  C_10
REMARK    4  A    between atoms: C_8  and  C_19
REMARK    5  A    between atoms: C_13  and  O_18
REMARK    6  A    between atoms: C_14  and  O_16
REMARK    7  A    between atoms: O_16  and  C_17
REMARK    8  A    between atoms: C_25  and  C_30
REMARK    9  A    between atoms: C_28  and  O_29
REMARK                            x       y       z     vdW  Elec       q    Type
REMARK                         _______ _______ _______ _____ _____    ______ ____
ROOT
ATOM      1  C   UNL     1       4.797   4.114  -0.022  0.00  0.00    +0.136 C 
ENDROOT
BRANCH   1   2
ATOM      2  C   UNL     1       3.521   3.317  -0.109  0.00  0.00    +0.021 A 
ATOM      3  C   UNL     1       3.579   1.926  -0.080  0.00  0.00    +0.010 A 
ATOM      4  C   UNL     1       2.444   1.176  -0.157  0.00  0.00    +0.010 A 
ATOM      5  C   UNL     1       1.196   1.811  -0.266  0.00  0.00    +0.004 A 
ATOM      6  C   UNL     1       0.002   1.071  -0.348  0.00  0.00    +0.012 A 
ATOM      7  C   UNL     1      -1.175   1.755  -0.459  0.00  0.00    +0.023 A 
ATOM      8  C   UNL     1      -1.169   3.148  -0.479  0.00  0.00    +0.039 A 
ATOM      9  N   UNL     1      -0.054   3.834  -0.402  0.00  0.00    -0.248 NA
ATOM     10  C   UNL     1       1.130   3.226  -0.297  0.00  0.00    +0.113 A 
ATOM     11  C   UNL     1       2.326   3.969  -0.215  0.00  0.00    +0.148 A 
ATOM     12  C   UNL     1      -2.478   3.886  -0.597  0.00  0.00    +0.065 C 
BRANCH  11  13
ATOM     13  O   UNL     1       2.290   5.327  -0.242  0.00  0.00    -0.504 OA
ATOM     14  H   UNL     1       2.349   5.705  -1.130  0.00  0.00    +0.292 HD
ENDBRANCH  11  13
ENDBRANCH   1   2
BRANCH   1  21
ATOM     15  C   UNL     1       7.691   1.531   4.707  0.00  0.00    +0.063 C 
ATOM     16  C   UNL     1       6.697   2.440   4.032  0.00  0.00    +0.014 A 
ATOM     17  C   UNL     1       5.829   3.191   4.800  0.00  0.00    +0.021 A 
ATOM     18  C   UNL     1       4.915   4.027   4.173  0.00  0.00    +0.005 A 
ATOM     19  C   UNL     1       4.907   4.077   2.791  0.00  0.00    +0.041 A 
ATOM     20  C   UNL     1       5.810   3.293   2.080  0.00  0.00    +0.097 A 
ATOM     21  N   UNL     1       5.813   3.334   0.690  0.00  0.00    -0.320 N 
ATOM     22  H   UNL     1       6.487   2.846   0.192  0.00  0.00    +0.148 HD
ATOM     23  N   UNL     1       6.713   2.460   2.673  0.00  0.00    -0.347 N 
ATOM     24  H   UNL     1       7.365   1.885   2.127  0.00  0.00    +0.167 HD
ENDBRANCH   1  21
BRANCH   1  25
ATOM     25  C   UNL     1       5.288   4.429  -1.411  0.00  0.00    -0.019 A 
ATOM     26  C   UNL     1       5.866   3.436  -2.180  0.00  0.00    +0.009 A 
ATOM     27  C   UNL     1       6.314   3.719  -3.457  0.00  0.00    +0.049 A 
ATOM     28  C   UNL     1       6.193   5.002  -3.965  0.00  0.00    +0.158 A 
ATOM     29  C   UNL     1       5.617   6.003  -3.189  0.00  0.00    +0.162 A 
ATOM     30  C   UNL     1       5.166   5.712  -1.912  0.00  0.00    +0.055 A 
BRANCH  29  31
ATOM     31  O   UNL     1       5.496   7.264  -3.683  0.00  0.00    -0.491 OA
ATOM     32  C   UNL     1       4.894   8.240  -2.831  0.00  0.00    +0.277 C 
ENDBRANCH  29  31
BRANCH  28  33
ATOM     33  O   UNL     1       6.638   5.283  -5.219  0.00  0.00    -0.503 OA
ATOM     34  H   UNL     1       7.562   5.568  -5.254  0.00  0.00    +0.292 HD
ENDBRANCH  28  33
ENDBRANCH   1  25
TORSDOF 6
