REMARK  Name = ZINC03277077
REMARK  13 active torsions:
REMARK  status: ('A' for Active; 'I' for Inactive)
REMARK    1  A    between atoms: C_1  and  C_2
REMARK    2  A    between atoms: C_5  and  N_9
REMARK    3  A    between atoms: C_10  and  C_12
REMARK    4  A    between atoms: C_13  and  N_28
REMARK    5  A    between atoms: C_14  and  C_21
REMARK    6  A    between atoms: C_15  and  N_17
REMARK    7  A    between atoms: N_17  and  C_18
REMARK    8  A    between atoms: C_18  and  C_19
REMARK    9  A    between atoms: C_18  and  C_20
REMARK   10  A    between atoms: N_23  and  C_24
REMARK   11  A    between atoms: C_24  and  C_25
REMARK   12  A    between atoms: C_25  and  O_26
REMARK   13  A    between atoms: O_26  and  C_27
REMARK                            x       y       z     vdW  Elec       q    Type
REMARK                         _______ _______ _______ _____ _____    ______ ____
ROOT
ATOM      1  C   UNL     1      -0.452  -2.643   0.008  0.00  0.00    +0.097 A 
ATOM      2  C   UNL     1       0.875  -2.231   0.005  0.00  0.00    +0.058 A 
ATOM      3  C   UNL     1       1.112  -0.858   0.020  0.00  0.00    +0.086 A 
ATOM      4  C   UNL     1       0.004  -0.005   0.037  0.00  0.00    +0.080 A 
ATOM      5  S   UNL     1      -1.341  -1.098   0.040  0.00  0.00    -0.067 S 
ENDROOT
BRANCH   1   7
ATOM      6  N   UNL     1      -2.300  -4.157   0.002  0.00  0.00    -0.280 N 
ATOM      7  C   UNL     1      -0.967  -3.956  -0.004  0.00  0.00    +0.257 C 
ATOM      8  O   UNL     1      -0.207  -4.908  -0.020  0.00  0.00    -0.269 OA
ATOM      9  H   UNL     1      -2.904  -3.402   0.081  0.00  0.00    +0.155 HD
BRANCH   6  14
ATOM     10  C   UNL     1      -4.375  -9.419  -0.431  0.00  0.00    +0.044 C 
ATOM     11  C   UNL     1      -3.824  -8.021  -0.316  0.00  0.00    -0.049 A 
ATOM     12  C   UNL     1      -2.643  -7.799   0.368  0.00  0.00    +0.005 A 
ATOM     13  C   UNL     1      -2.135  -6.519   0.475  0.00  0.00    +0.025 A 
ATOM     14  C   UNL     1      -2.811  -5.454  -0.105  0.00  0.00    +0.048 A 
ATOM     15  C   UNL     1      -4.001  -5.679  -0.787  0.00  0.00    +0.039 A 
ATOM     16  C   UNL     1      -4.501  -6.963  -0.894  0.00  0.00    +0.020 A 
ATOM     17 BR   UNL     1      -4.931  -4.232  -1.572  0.00  0.00    -0.048 Br
ENDBRANCH   6  14
ENDBRANCH   1   7
BRANCH   3  18
ATOM     18  C   UNL     1       2.477  -0.325   0.017  0.00  0.00    +0.248 C 
ATOM     19  O   UNL     1       3.050  -0.116   1.070  0.00  0.00    -0.270 OA
ATOM     20  N   UNL     1       3.097  -0.066  -1.151  0.00  0.00    -0.309 N 
ATOM     21  H   UNL     1       2.639  -0.233  -1.990  0.00  0.00    +0.149 HD
BRANCH  20  22
ATOM     22  C   UNL     1       4.461   0.466  -1.154  0.00  0.00    +0.132 C 
BRANCH  22  23
ATOM     23  C   UNL     1       4.927   0.669  -2.597  0.00  0.00    +0.178 C 
BRANCH  23  24
ATOM     24  O   UNL     1       4.127   1.677  -3.219  0.00  0.00    -0.381 OA
ATOM     25  C   UNL     1       4.481   1.944  -4.577  0.00  0.00    +0.194 C 
ENDBRANCH  23  24
ENDBRANCH  22  23
ENDBRANCH  20  22
ENDBRANCH   3  18
BRANCH   2  26
ATOM     26  N   UNL     1       1.917  -3.146  -0.013  0.00  0.00    -0.356 N 
ATOM     27  H   UNL     1       2.836  -2.834  -0.015  0.00  0.00    +0.142 HD
ATOM     28  H   UNL     1       1.728  -4.097  -0.023  0.00  0.00    +0.142 HD
ENDBRANCH   2  26
BRANCH   4  29
ATOM     29  N   UNL     1      -0.014   1.370   0.054  0.00  0.00    -0.336 N 
ATOM     30  H   UNL     1       0.819   1.866   0.055  0.00  0.00    +0.147 HD
BRANCH  29  31
ATOM     31  C   UNL     1      -1.293   2.085   0.065  0.00  0.00    +0.065 C 
ATOM     32  C   UNL     1      -1.797   2.207   1.505  0.00  0.00    +0.027 C 
ATOM     33  C   UNL     1      -1.100   3.483  -0.528  0.00  0.00    +0.027 C 
ENDBRANCH  29  31
ENDBRANCH   4  29
TORSDOF 9
