REMARK  Name = ZINC34834479
REMARK  13 active torsions:
REMARK  status: ('A' for Active; 'I' for Inactive)
REMARK    1  A    between atoms: C_1  and  C_2
REMARK    2  A    between atoms: C_3  and  C_21
REMARK    3  A    between atoms: C_4  and  N_14
REMARK    4  A    between atoms: N_5  and  C_7
REMARK    5  A    between atoms: N_17  and  C_20
REMARK    6  A    between atoms: C_21  and  N_22
REMARK    7  A    between atoms: N_22  and  C_23
REMARK    8  A    between atoms: C_23  and  C_24
REMARK    9  A    between atoms: C_24  and  C_25
REMARK   10  A    between atoms: C_25  and  C_26
REMARK   11  A    between atoms: C_25  and  C_27
REMARK   12  A    between atoms: C_28  and  C_30
REMARK   13  A    between atoms: C_30  and  C_31
REMARK                            x       y       z     vdW  Elec       q    Type
REMARK                         _______ _______ _______ _____ _____    ______ ____
ROOT
ATOM      1  C   UNL     1       0.574  -1.750   4.869  0.00  0.00    +0.068 C 
ATOM      2  C   UNL     1       0.437  -0.278   5.161  0.00  0.00    +0.067 A 
ATOM      3  C   UNL     1      -0.645   0.529   4.797  0.00  0.00    +0.032 A 
ATOM      4  C   UNL     1      -0.392   1.792   5.241  0.00  0.00    +0.130 A 
ATOM      5  N   UNL     1       0.817   1.770   5.865  0.00  0.00    -0.218 N 
ATOM      6  N   UNL     1       1.307   0.459   5.803  0.00  0.00    -0.170 NA
ENDROOT
BRANCH   4   7
ATOM      7  N   UNL     1      -1.218   2.901   5.084  0.00  0.00    -0.318 N 
ATOM      8  C   UNL     1      -1.977   3.445   6.221  0.00  0.00    +0.088 C 
ATOM      9  C   UNL     1      -1.723   4.955   6.296  0.00  0.00    -0.060 C 
ATOM     10  N   UNL     1      -2.045   5.569   5.002  0.00  0.00    +0.380 N 
ATOM     11  C   UNL     1      -1.132   5.066   3.968  0.00  0.00    -0.060 C 
ATOM     12  C   UNL     1      -1.352   3.566   3.779  0.00  0.00    +0.088 C 
ATOM     13  C   UNL     1      -1.907   7.028   5.107  0.00  0.00    -0.096 C 
ATOM     14  H   UNL     1      -2.995   5.341   4.750  0.00  0.00    -0.082 HD
ENDBRANCH   4   7
BRANCH   5  15
ATOM     15  C   UNL     1       1.456   2.862   6.467  0.00  0.00    +0.070 A 
ATOM     16  C   UNL     1       1.365   4.124   5.893  0.00  0.00    +0.028 A 
ATOM     17  C   UNL     1       1.995   5.199   6.488  0.00  0.00    +0.005 A 
ATOM     18  C   UNL     1       2.716   5.022   7.654  0.00  0.00    +0.038 A 
ATOM     19  C   UNL     1       2.809   3.766   8.230  0.00  0.00    +0.125 A 
ATOM     20  C   UNL     1       2.175   2.687   7.641  0.00  0.00    +0.066 A 
ATOM     21  F   UNL     1       3.514   3.596   9.370  0.00  0.00    -0.205 F 
ENDBRANCH   5  15
BRANCH   3  22
ATOM     22  C   UNL     1      -1.873   0.082   4.047  0.00  0.00    +0.148 C 
BRANCH  22  23
ATOM     23  N   UNL     1      -2.894  -0.358   5.000  0.00  0.00    -0.297 N 
ATOM     24  C   UNL     1      -2.927  -1.643   5.407  0.00  0.00    +0.220 C 
ATOM     25  O   UNL     1      -2.111  -2.434   4.984  0.00  0.00    -0.275 OA
BRANCH  23  26
ATOM     26  C   UNL     1      -3.880   0.597   5.512  0.00  0.00    +0.108 C 
BRANCH  26  27
ATOM     27  C   UNL     1      -5.150   0.524   4.662  0.00  0.00    +0.022 C 
BRANCH  27  28
ATOM     28  C   UNL     1      -6.197   1.487   5.225  0.00  0.00    -0.016 C 
ATOM     29  C   UNL     1      -5.718   2.928   5.036  0.00  0.00    +0.007 C 
ATOM     30  C   UNL     1      -7.522   1.289   4.487  0.00  0.00    +0.007 C 
ENDBRANCH  27  28
ENDBRANCH  26  27
ENDBRANCH  23  26
BRANCH  24  31
ATOM     31  C   UNL     1      -3.978  -2.096   6.388  0.00  0.00    +0.131 C 
BRANCH  31  32
ATOM     32  C   UNL     1      -3.796  -3.564   6.676  0.00  0.00    -0.038 A 
ATOM     33  C   UNL     1      -4.441  -4.506   5.895  0.00  0.00    +0.007 A 
ATOM     34  C   UNL     1      -4.274  -5.853   6.158  0.00  0.00    +0.038 A 
ATOM     35  C   UNL     1      -3.462  -6.258   7.204  0.00  0.00    +0.123 A 
ATOM     36  C   UNL     1      -2.817  -5.314   7.984  0.00  0.00    +0.038 A 
ATOM     37  C   UNL     1      -2.981  -3.968   7.716  0.00  0.00    +0.007 A 
ATOM     38  F   UNL     1      -3.299  -7.574   7.462  0.00  0.00    -0.205 F 
ENDBRANCH  31  32
ENDBRANCH  24  31
ENDBRANCH  22  23
ENDBRANCH   3  22
TORSDOF 9
