REMARK  Name = ZINC61079526
REMARK  3 active torsions:
REMARK  status: ('A' for Active; 'I' for Inactive)
REMARK    1  A    between atoms: C_4  and  N_8
REMARK    2  A    between atoms: C_9  and  C_11
REMARK    3  A    between atoms: C_13  and  N_19
REMARK                            x       y       z     vdW  Elec       q    Type
REMARK                         _______ _______ _______ _____ _____    ______ ____
ROOT
ATOM      1  N   UNL     1       3.622  -0.651  -0.036  0.00  0.00    -0.280 N 
ATOM      2  C   UNL     1       3.645  -1.996   0.058  0.00  0.00    +0.249 C 
ATOM      3  O   UNL     1       2.604  -2.623   0.065  0.00  0.00    -0.270 OA
ATOM      4  H   UNL     1       4.452  -0.157  -0.123  0.00  0.00    +0.155 HD
ENDROOT
BRANCH   1   8
ATOM      5  C   UNL     1      -0.015   1.381   0.043  0.00  0.00    +0.021 A 
ATOM      6  C   UNL     1       1.083   1.956  -0.572  0.00  0.00    +0.023 A 
ATOM      7  C   UNL     1       2.290   1.284  -0.600  0.00  0.00    +0.062 A 
ATOM      8  C   UNL     1       2.401   0.031  -0.009  0.00  0.00    +0.054 A 
ATOM      9  C   UNL     1       1.297  -0.543   0.607  0.00  0.00    +0.044 A 
ATOM     10  C   UNL     1       0.092   0.134   0.631  0.00  0.00    +0.043 A 
ATOM     11 CL   UNL     1      -1.289  -0.583   1.401  0.00  0.00    -0.083 Cl
ATOM     12 CL   UNL     1       3.668   2.006  -1.372  0.00  0.00    -0.082 Cl
ENDBRANCH   1   8
BRANCH   2  13
ATOM     13  C   UNL     1       4.936  -2.707   0.153  0.00  0.00    +0.053 A 
ATOM     14  C   UNL     1       6.133  -1.988   0.150  0.00  0.00    +0.039 A 
ATOM     15  C   UNL     1       7.340  -2.661   0.239  0.00  0.00    +0.061 A 
ATOM     16  C   UNL     1       7.357  -4.051   0.331  0.00  0.00    +0.145 A 
ATOM     17  C   UNL     1       6.171  -4.763   0.333  0.00  0.00    +0.056 A 
ATOM     18  C   UNL     1       4.962  -4.100   0.251  0.00  0.00    +0.033 A 
ATOM     19 BR   UNL     1       3.344  -5.078   0.263  0.00  0.00    -0.049 Br
ATOM     20  F   UNL     1       8.536  -4.706   0.417  0.00  0.00    -0.204 F 
BRANCH  15  21
ATOM     21  N   UNL     1       8.542  -1.945   0.237  0.00  0.00    -0.356 N 
ATOM     22  H   UNL     1       8.530  -0.977   0.173  0.00  0.00    +0.142 HD
ATOM     23  H   UNL     1       9.387  -2.417   0.299  0.00  0.00    +0.142 HD
ENDBRANCH  15  21
ENDBRANCH   2  13
TORSDOF 3
