REMARK  Name = ZINC45258257
REMARK  8 active torsions:
REMARK  status: ('A' for Active; 'I' for Inactive)
REMARK    1  A    between atoms: C_1  and  C_2
REMARK    2  A    between atoms: C_4  and  N_9
REMARK    3  A    between atoms: C_10  and  C_12
REMARK    4  A    between atoms: C_12  and  O_13
REMARK    5  A    between atoms: O_13  and  C_14
REMARK    6  A    between atoms: C_14  and  C_16
REMARK    7  A    between atoms: C_18  and  S_23
REMARK    8  A    between atoms: S_23  and  N_26
REMARK                            x       y       z     vdW  Elec       q    Type
REMARK                         _______ _______ _______ _____ _____    ______ ____
ROOT
ATOM      1  C   UNL     1       0.494  -7.061  -4.556  0.00  0.00    +0.341 C 
ATOM      2  O   UNL     1       0.495  -6.588  -5.676  0.00  0.00    -0.245 OA
ENDROOT
BRANCH   1   3
ATOM      3  C   UNL     1       0.616  -8.520  -4.372  0.00  0.00    +0.079 A 
ATOM      4  C   UNL     1       0.609  -9.068  -3.087  0.00  0.00    +0.045 A 
ATOM      5  C   UNL     1       0.724 -10.432  -2.922  0.00  0.00    +0.106 A 
ATOM      6  C   UNL     1       0.847 -11.259  -4.025  0.00  0.00    +0.030 A 
ATOM      7  C   UNL     1       0.855 -10.725  -5.301  0.00  0.00    +0.023 A 
ATOM      8  C   UNL     1       0.735  -9.361  -5.482  0.00  0.00    +0.055 A 
ATOM      9 CL   UNL     1       0.737  -8.692  -7.084  0.00  0.00    -0.083 Cl
BRANCH   5  10
ATOM     10  S   UNL     1       0.716 -11.125  -1.302  0.00  0.00    +0.056 S 
ATOM     11  O   UNL     1       1.386 -12.375  -1.391  0.00  0.00    -0.153 OA
ATOM     12  O   UNL     1       1.139 -10.095  -0.418  0.00  0.00    -0.153 OA
BRANCH  10  13
ATOM     13  N   UNL     1      -0.860 -11.458  -0.920  0.00  0.00    -0.204 NA
ATOM     14  H   UNL     1      -1.070 -12.194  -0.324  0.00  0.00    +0.144 HD
ATOM     15  H   UNL     1      -1.574 -10.918  -1.292  0.00  0.00    +0.144 HD
ENDBRANCH  10  13
ENDBRANCH   5  10
ENDBRANCH   1   3
BRANCH   1  16
ATOM     16  O   UNL     1       0.380  -6.253  -3.484  0.00  0.00    -0.452 OA
BRANCH  16  17
ATOM     17  C   UNL     1       0.265  -4.851  -3.737  0.00  0.00    +0.328 C 
BRANCH  17  19
ATOM     18  N   UNL     1       0.028  -2.771  -2.420  0.00  0.00    -0.283 N 
ATOM     19  C   UNL     1       0.148  -4.113  -2.428  0.00  0.00    +0.255 C 
ATOM     20  O   UNL     1       0.162  -4.727  -1.382  0.00  0.00    -0.272 OA
ATOM     21  H   UNL     1      -0.060  -2.287  -3.256  0.00  0.00    +0.155 HD
BRANCH  18  25
ATOM     22  C   UNL     1       1.619  -2.350   2.213  0.00  0.00    +0.045 C 
ATOM     23  C   UNL     1       0.793  -1.849   1.057  0.00  0.00    -0.035 A 
ATOM     24  C   UNL     1       0.792  -2.538  -0.141  0.00  0.00    +0.027 A 
ATOM     25  C   UNL     1       0.030  -2.075  -1.206  0.00  0.00    +0.034 A 
ATOM     26  C   UNL     1      -0.729  -0.921  -1.063  0.00  0.00    +0.024 A 
ATOM     27  C   UNL     1      -0.724  -0.236   0.136  0.00  0.00    +0.017 A 
ATOM     28  C   UNL     1       0.032  -0.703   1.197  0.00  0.00    +0.021 A 
ATOM     29 BR   UNL     1       0.029   0.233   2.841  0.00  0.00    -0.050 Br
ENDBRANCH  18  25
ENDBRANCH  17  19
ENDBRANCH  16  17
ENDBRANCH   1  16
TORSDOF 7
