REMARK  Name = ZINC44097815
REMARK  7 active torsions:
REMARK  status: ('A' for Active; 'I' for Inactive)
REMARK    1  A    between atoms: C_1  and  C_2
REMARK    2  A    between atoms: C_4  and  C_31
REMARK    3  A    between atoms: C_6  and  N_8
REMARK    4  A    between atoms: C_20  and  C_23
REMARK    5  A    between atoms: C_25  and  C_28
REMARK    6  A    between atoms: C_28  and  C_29
REMARK    7  A    between atoms: C_28  and  C_30
REMARK                            x       y       z     vdW  Elec       q    Type
REMARK                         _______ _______ _______ _____ _____    ______ ____
ROOT
ATOM      1  N   UNL     1       0.090  -2.880   2.340  0.00  0.00    -0.269 N 
ATOM      2  C   UNL     1       0.158  -2.218   3.512  0.00  0.00    +0.307 C 
ATOM      3  O   UNL     1       0.115  -1.003   3.527  0.00  0.00    -0.252 OA
ATOM      4  N   UNL     1       0.273  -2.903   4.667  0.00  0.00    -0.282 N 
ATOM      5  C   UNL     1       0.512  -4.353   4.656  0.00  0.00    +0.128 C 
ATOM      6  C   UNL     1       1.773  -4.648   5.479  0.00  0.00    +0.125 C 
ATOM      7  N   UNL     1       1.662  -3.958   6.771  0.00  0.00    -0.314 N 
ATOM      8  C   UNL     1       1.423  -2.508   6.782  0.00  0.00    +0.125 C 
ATOM      9  C   UNL     1       0.168  -2.212   5.960  0.00  0.00    +0.128 C 
ATOM     10  C   UNL     1       1.781  -4.663   7.961  0.00  0.00    +0.099 A 
ATOM     11  C   UNL     1       1.809  -6.055   7.935  0.00  0.00    +0.042 A 
ATOM     12  C   UNL     1       1.928  -6.749   9.122  0.00  0.00    +0.016 A 
ATOM     13  C   UNL     1       2.016  -6.020  10.314  0.00  0.00    +0.038 A 
ATOM     14  C   UNL     1       1.981  -4.629  10.260  0.00  0.00    +0.095 A 
ATOM     15  N   UNL     1       1.872  -4.003   9.106  0.00  0.00    -0.349 N 
ATOM     16  H   UNL     1      -0.001  -3.846   2.333  0.00  0.00    +0.156 HD
ATOM     17  H   UNL     1       1.854  -3.033   9.095  0.00  0.00    +0.167 HD
ENDROOT
BRANCH   1  23
ATOM     18  C   UNL     1      -0.698   1.265  -0.183  0.00  0.00    +0.044 C 
ATOM     19  C   UNL     1      -0.224  -0.164  -0.119  0.00  0.00    -0.048 A 
ATOM     20  C   UNL     1       0.272  -0.779  -1.253  0.00  0.00    +0.006 A 
ATOM     21  C   UNL     1       0.708  -2.090  -1.198  0.00  0.00    -0.048 A 
ATOM     22  C   UNL     1       0.649  -2.789  -0.008  0.00  0.00    +0.026 A 
ATOM     23  C   UNL     1       0.151  -2.174   1.133  0.00  0.00    +0.035 A 
ATOM     24  C   UNL     1      -0.280  -0.855   1.075  0.00  0.00    +0.026 A 
ATOM     25  C   UNL     1       1.247  -2.757  -2.437  0.00  0.00    +0.044 C 
ENDBRANCH   1  23
BRANCH  13  26
ATOM     26  C   UNL     1       2.144  -6.719  11.616  0.00  0.00    +0.203 A 
ATOM     27  N   UNL     1       2.230  -6.126  12.820  0.00  0.00    -0.191 NA
ATOM     28  C   UNL     1       2.332  -7.027  13.755  0.00  0.00    +0.230 A 
ATOM     29  O   UNL     1       2.314  -8.238  13.182  0.00  0.00    -0.337 OA
ATOM     30  N   UNL     1       2.186  -8.018  11.785  0.00  0.00    -0.056 NA
BRANCH  28  31
ATOM     31  C   UNL     1       2.450  -6.754  15.232  0.00  0.00    +0.072 C 
ATOM     32  C   UNL     1       1.274  -7.402  15.966  0.00  0.00    +0.017 C 
ATOM     33  C   UNL     1       3.763  -7.340  15.756  0.00  0.00    +0.017 C 
ENDBRANCH  28  31
ENDBRANCH  13  26
TORSDOF 3
