REMARK  Name = ZINC31095316
REMARK  17 active torsions:
REMARK  status: ('A' for Active; 'I' for Inactive)
REMARK    1  A    between atoms: C_1  and  C_2
REMARK    2  A    between atoms: C_2  and  C_3
REMARK    3  A    between atoms: C_3  and  C_4
REMARK    4  A    between atoms: C_4  and  C_5
REMARK    5  A    between atoms: C_5  and  C_6
REMARK    6  A    between atoms: C_6  and  C_7
REMARK    7  A    between atoms: C_7  and  C_9
REMARK    8  A    between atoms: C_7  and  N_10
REMARK    9  A    between atoms: C_11  and  C_13
REMARK   10  A    between atoms: C_13  and  C_15
REMARK   11  A    between atoms: C_13  and  N_19
REMARK   12  A    between atoms: C_15  and  C_16
REMARK   13  A    between atoms: C_16  and  S_17
REMARK   14  A    between atoms: S_17  and  C_18
REMARK   15  A    between atoms: N_19  and  S_20
REMARK   16  A    between atoms: S_20  and  C_23
REMARK   17  A    between atoms: C_26  and  C_29
REMARK                            x       y       z     vdW  Elec       q    Type
REMARK                         _______ _______ _______ _____ _____    ______ ____
ROOT
ATOM      1  C   UNL     1       1.307  -3.629   7.370  0.00  0.00    +0.163 C 
ENDROOT
BRANCH   1   3
ATOM      2  N   UNL     1       1.482  -4.029   4.936  0.00  0.00    -0.311 N 
ATOM      3  C   UNL     1       2.092  -3.995   6.137  0.00  0.00    +0.232 C 
ATOM      4  O   UNL     1       3.272  -4.258   6.226  0.00  0.00    -0.274 OA
ATOM      5  H   UNL     1       0.538  -3.819   4.865  0.00  0.00    +0.149 HD
BRANCH   2   6
ATOM      6  C   UNL     1       2.245  -4.385   3.737  0.00  0.00    +0.070 C 
ATOM      7  C   UNL     1       2.290  -5.908   3.594  0.00  0.00    +0.028 C 
BRANCH   6   8
ATOM      8  C   UNL     1       1.572  -3.777   2.505  0.00  0.00    +0.022 C 
BRANCH   8   9
ATOM      9  C   UNL     1       1.639  -2.251   2.589  0.00  0.00    +0.002 C 
BRANCH   9  10
ATOM     10  C   UNL     1       0.966  -1.643   1.357  0.00  0.00    +0.000 C 
BRANCH  10  11
ATOM     11  C   UNL     1       1.033  -0.116   1.440  0.00  0.00    -0.000 C 
BRANCH  11  13
ATOM     12  C   UNL     1       0.426   2.018   0.292  0.00  0.00    +0.004 C 
ATOM     13  C   UNL     1       0.360   0.492   0.208  0.00  0.00    -0.003 C 
ENDBRANCH  11  13
ENDBRANCH  10  11
ENDBRANCH   9  10
ENDBRANCH   8   9
ENDBRANCH   6   8
ENDBRANCH   2   6
ENDBRANCH   1   3
BRANCH   1  14
ATOM     14  N   UNL     1       2.189  -3.663   8.539  0.00  0.00    -0.178 NA
ATOM     15  H   UNL     1       2.921  -3.030   8.613  0.00  0.00    +0.149 HD
BRANCH  14  16
ATOM     16  S   UNL     1       1.938  -4.782   9.734  0.00  0.00    +0.059 S 
ATOM     17  O   UNL     1       2.955  -4.575  10.705  0.00  0.00    -0.153 OA
ATOM     18  O   UNL     1       0.555  -4.727  10.057  0.00  0.00    -0.153 OA
BRANCH  16  19
ATOM     19  C   UNL     1       2.229  -6.370   9.030  0.00  0.00    +0.105 A 
ATOM     20  C   UNL     1       1.191  -7.064   8.438  0.00  0.00    +0.029 A 
ATOM     21  C   UNL     1       1.419  -8.311   7.886  0.00  0.00    +0.005 A 
ATOM     22  C   UNL     1       2.686  -8.863   7.926  0.00  0.00    -0.050 A 
ATOM     23  C   UNL     1       3.724  -8.168   8.517  0.00  0.00    +0.005 A 
ATOM     24  C   UNL     1       3.497  -6.920   9.066  0.00  0.00    +0.029 A 
ATOM     25  C   UNL     1       2.935 -10.223   7.324  0.00  0.00    +0.044 C 
ENDBRANCH  16  19
ENDBRANCH  14  16
ENDBRANCH   1  14
BRANCH   1  26
ATOM     26  C   UNL     1       0.730  -2.221   7.208  0.00  0.00    +0.040 C 
BRANCH  26  27
ATOM     27  C   UNL     1      -0.157  -1.892   8.411  0.00  0.00    +0.071 C 
BRANCH  27  28
ATOM     28  S   UNL     1      -0.959  -0.286   8.150  0.00  0.00    -0.164 S 
ATOM     29  C   UNL     1      -1.959  -0.046   9.644  0.00  0.00    +0.084 C 
ENDBRANCH  27  28
ENDBRANCH  26  27
ENDBRANCH   1  26
TORSDOF 13
