REMARK  Name = ZINC31936745
REMARK  8 active torsions:
REMARK  status: ('A' for Active; 'I' for Inactive)
REMARK    1  A    between atoms: C_1  and  C_2
REMARK    2  A    between atoms: C_14  and  C_35
REMARK    3  A    between atoms: N_16  and  C_17
REMARK    4  A    between atoms: C_17  and  C_19
REMARK    5  A    between atoms: C_22  and  C_26
REMARK    6  A    between atoms: C_23  and  C_25
REMARK    7  A    between atoms: N_27  and  C_28
REMARK    8  A    between atoms: C_28  and  C_29
REMARK                            x       y       z     vdW  Elec       q    Type
REMARK                         _______ _______ _______ _____ _____    ______ ____
ROOT
ATOM      1  C   UNL     1       0.972   1.447   0.058  0.00  0.00    +0.047 C 
ATOM      2  C   UNL     1       0.780  -0.048   0.040  0.00  0.00    -0.007 A 
ATOM      3  C   UNL     1       0.823  -0.729  -1.140  0.00  0.00    +0.008 A 
ATOM      4  C   UNL     1       0.642  -2.119  -1.143  0.00  0.00    +0.019 A 
ATOM      5  C   UNL     1       0.426  -2.776   0.018  0.00  0.00    +0.096 A 
ATOM      6  N   UNL     1       0.382  -2.103   1.203  0.00  0.00    -0.267 N 
ATOM      7  C   UNL     1       0.560  -0.749   1.241  0.00  0.00    +0.145 A 
ATOM      8  N   UNL     1       0.528  -0.062   2.383  0.00  0.00    -0.211 NA
ATOM      9  C   UNL     1       0.326  -0.646   3.555  0.00  0.00    +0.150 A 
ATOM     10  C   UNL     1       0.138  -2.049   3.603  0.00  0.00    +0.084 A 
ATOM     11  C   UNL     1       0.164  -2.796   2.345  0.00  0.00    +0.268 A 
ATOM     12  O   UNL     1       0.008  -4.004   2.328  0.00  0.00    -0.267 OA
ATOM     13  C   UNL     1      -0.076  -2.688   4.828  0.00  0.00    +0.039 A 
ATOM     14  C   UNL     1      -0.101  -1.926   5.994  0.00  0.00    +0.093 A 
ATOM     15  C   UNL     1       0.089  -0.524   5.918  0.00  0.00    +0.146 A 
ATOM     16  N   UNL     1       0.066   0.205   7.032  0.00  0.00    -0.158 NA
ATOM     17  N   UNL     1       0.298   0.087   4.713  0.00  0.00    -0.308 N 
ENDROOT
BRANCH  16  18
ATOM     18  C   UNL     1      -0.016  -0.396   8.223  0.00  0.00    +0.269 C 
ATOM     19  O   UNL     1      -1.106  -0.607   8.725  0.00  0.00    -0.268 OA
BRANCH  18  20
ATOM     20  C   UNL     1       1.218  -0.805   8.932  0.00  0.00    +0.039 A 
ATOM     21  C   UNL     1       2.468  -0.560   8.362  0.00  0.00    +0.013 A 
ATOM     22  C   UNL     1       3.614  -0.944   9.027  0.00  0.00    +0.004 A 
ATOM     23  C   UNL     1       3.526  -1.571  10.257  0.00  0.00    -0.047 A 
ATOM     24  C   UNL     1       2.290  -1.817  10.827  0.00  0.00    -0.047 A 
ATOM     25  C   UNL     1       1.136  -1.433  10.175  0.00  0.00    +0.016 A 
ATOM     26  C   UNL     1       2.203  -2.502  12.167  0.00  0.00    +0.044 C 
ATOM     27  C   UNL     1       4.781  -1.989  10.978  0.00  0.00    +0.044 C 
ENDBRANCH  18  20
ENDBRANCH  16  18
BRANCH  14  28
ATOM     28  C   UNL     1      -0.319  -2.555   7.261  0.00  0.00    +0.103 C 
ATOM     29  N   UNL     1      -0.492  -3.055   8.267  0.00  0.00    -0.191 NA
ENDBRANCH  14  28
BRANCH  17  30
ATOM     30  C   UNL     1       0.494   1.538   4.659  0.00  0.00    +0.156 C 
BRANCH  30  31
ATOM     31  C   UNL     1      -0.860   2.229   4.488  0.00  0.00    +0.138 C 
ATOM     32  C   UNL     1      -0.672   3.764   4.393  0.00  0.00    +0.035 C 
ATOM     33  C   UNL     1      -1.951   4.170   3.610  0.00  0.00    +0.031 C 
ATOM     34  C   UNL     1      -2.156   2.962   2.670  0.00  0.00    +0.160 C 
ATOM     35  O   UNL     1      -1.462   1.845   3.242  0.00  0.00    -0.375 OA
ENDBRANCH  30  31
ENDBRANCH  17  30
TORSDOF 5
