REMARK  Name = ZINC17087436
REMARK  8 active torsions:
REMARK  status: ('A' for Active; 'I' for Inactive)
REMARK    1  A    between atoms: C_1  and  C_2
REMARK    2  A    between atoms: C_2  and  C_3
REMARK    3  A    between atoms: C_4  and  C_29
REMARK    4  A    between atoms: C_6  and  N_16
REMARK    5  A    between atoms: C_7  and  C_8
REMARK    6  A    between atoms: N_10  and  C_11
REMARK    7  A    between atoms: C_17  and  C_19
REMARK    8  A    between atoms: C_25  and  C_27
REMARK                            x       y       z     vdW  Elec       q    Type
REMARK                         _______ _______ _______ _____ _____    ______ ____
ROOT
ATOM      1  C   UNL     1      -1.830   7.432  -2.891  0.00  0.00    -0.024 A 
ATOM      2  C   UNL     1      -1.175   7.794  -1.773  0.00  0.00    -0.008 A 
ATOM      3  S   UNL     1      -0.719   6.236  -1.043  0.00  0.00    -0.078 S 
ATOM      4  C   UNL     1      -1.394   5.157  -2.217  0.00  0.00    +0.084 A 
ATOM      5  C   UNL     1      -1.955   6.018  -3.153  0.00  0.00    +0.069 A 
ATOM      6  C   UNL     1      -0.896   9.184  -1.262  0.00  0.00    +0.052 C 
ENDROOT
BRANCH   5   7
ATOM      7  C   UNL     1      -2.642   5.515  -4.347  0.00  0.00    +0.247 C 
ATOM      8  O   UNL     1      -3.838   5.291  -4.311  0.00  0.00    -0.270 OA
ATOM      9  N   UNL     1      -1.950   5.300  -5.483  0.00  0.00    -0.308 N 
ATOM     10  H   UNL     1      -0.997   5.478  -5.511  0.00  0.00    +0.149 HD
BRANCH   9  11
ATOM     11  C   UNL     1      -2.636   4.797  -6.675  0.00  0.00    +0.073 C 
ATOM     12  C   UNL     1      -2.681   3.255  -6.648  0.00  0.00    +0.022 C 
ATOM     13  C   UNL     1      -2.486   2.845  -8.130  0.00  0.00    +0.002 C 
ATOM     14  C   UNL     1      -1.451   3.879  -8.639  0.00  0.00    +0.002 C 
ATOM     15  C   UNL     1      -1.855   5.194  -7.940  0.00  0.00    +0.022 C 
ENDBRANCH   9  11
ENDBRANCH   5   7
BRANCH   4  16
ATOM     16  N   UNL     1      -1.375   3.771  -2.225  0.00  0.00    -0.279 N 
ATOM     17  C   UNL     1      -0.773   3.099  -1.223  0.00  0.00    +0.221 C 
ATOM     18  O   UNL     1      -0.248   3.708  -0.315  0.00  0.00    -0.275 OA
ATOM     19  H   UNL     1      -1.796   3.284  -2.951  0.00  0.00    +0.155 HD
BRANCH  17  20
ATOM     20  C   UNL     1      -0.753   1.593  -1.232  0.00  0.00    +0.089 C 
ATOM     21  C   UNL     1      -0.037   1.099  -2.490  0.00  0.00    +0.013 C 
ATOM     22  C   UNL     1       1.399   1.629  -2.501  0.00  0.00    +0.001 C 
ATOM     23  C   UNL     1       2.139   1.122  -1.262  0.00  0.00    +0.001 C 
ATOM     24  C   UNL     1       1.423   1.615  -0.003  0.00  0.00    +0.015 C 
ATOM     25  C   UNL     1      -0.013   1.086   0.008  0.00  0.00    +0.114 C 
BRANCH  25  26
ATOM     26  C   UNL     1      -0.718   1.572   1.248  0.00  0.00    +0.360 C 
ATOM     27  O   UNL     1      -1.711   2.254   1.150  0.00  0.00    -0.246 OA
ATOM     28  O   UNL     1      -0.243   1.247   2.461  0.00  0.00    -0.246 OA
ENDBRANCH  25  26
ENDBRANCH  17  20
ENDBRANCH   4  16
BRANCH   1  30
ATOM     29  C   UNL     1      -1.354   8.827  -4.886  0.00  0.00    +0.009 C 
ATOM     30  C   UNL     1      -2.402   8.459  -3.834  0.00  0.00    +0.033 C 
ENDBRANCH   1  30
TORSDOF 6
