REMARK  Name = ZINC40729164
REMARK  10 active torsions:
REMARK  status: ('A' for Active; 'I' for Inactive)
REMARK    1  A    between atoms: C_1  and  C_2
REMARK    2  A    between atoms: C_2  and  C_3
REMARK    3  A    between atoms: C_3  and  C_4
REMARK    4  A    between atoms: C_4  and  O_5
REMARK    5  A    between atoms: O_5  and  C_6
REMARK    6  A    between atoms: C_9  and  N_12
REMARK    7  A    between atoms: C_14  and  N_32
REMARK    8  A    between atoms: C_15  and  N_19
REMARK    9  A    between atoms: C_22  and  C_25
REMARK   10  A    between atoms: C_25  and  C_26
REMARK                            x       y       z     vdW  Elec       q    Type
REMARK                         _______ _______ _______ _____ _____    ______ ____
ROOT
ATOM      1  N   UNL     1       1.841  -7.961  -3.100  0.00  0.00    -0.298 N 
ATOM      2  C   UNL     1       2.389  -8.479  -4.268  0.00  0.00    +0.149 A 
ATOM      3  C   UNL     1       2.404  -9.856  -4.495  0.00  0.00    +0.106 A 
ATOM      4  C   UNL     1       2.966 -10.323  -5.684  0.00  0.00    +0.147 A 
ATOM      5  N   UNL     1       3.465  -9.444  -6.550  0.00  0.00    -0.219 NA
ATOM      6  C   UNL     1       3.432  -8.151  -6.297  0.00  0.00    +0.225 A 
ATOM      7  N   UNL     1       2.905  -7.668  -5.190  0.00  0.00    -0.219 NA
ATOM      8  H   UNL     1       1.547  -8.559  -2.396  0.00  0.00    +0.154 HD
ENDROOT
BRANCH   1  12
ATOM      9  C   UNL     1       1.455  -3.837  -2.629  0.00  0.00    +0.121 A 
ATOM     10  C   UNL     1       1.468  -4.391  -3.900  0.00  0.00    +0.047 A 
ATOM     11  C   UNL     1       1.595  -5.757  -4.058  0.00  0.00    +0.027 A 
ATOM     12  C   UNL     1       1.712  -6.576  -2.942  0.00  0.00    +0.033 A 
ATOM     13  C   UNL     1       1.699  -6.020  -1.669  0.00  0.00    +0.027 A 
ATOM     14  C   UNL     1       1.576  -4.654  -1.514  0.00  0.00    +0.047 A 
BRANCH   9  15
ATOM     15  O   UNL     1       1.329  -2.491  -2.475  0.00  0.00    -0.492 OA
BRANCH  15  16
ATOM     16  C   UNL     1       1.209  -1.711  -3.666  0.00  0.00    +0.229 C 
BRANCH  16  17
ATOM     17  C   UNL     1       1.078  -0.232  -3.295  0.00  0.00    +0.041 C 
BRANCH  17  19
ATOM     18  C   UNL     1       0.818   2.083  -4.199  0.00  0.00    +0.004 C 
ATOM     19  C   UNL     1       0.949   0.604  -4.570  0.00  0.00    -0.000 C 
ENDBRANCH  17  19
ENDBRANCH  16  17
ENDBRANCH  15  16
ENDBRANCH   9  15
ENDBRANCH   1  12
BRANCH   4  20
ATOM     20  N   UNL     1       3.006 -11.685  -5.958  0.00  0.00    -0.314 N 
ATOM     21  C   UNL     1       1.857 -12.357  -6.580  0.00  0.00    +0.107 C 
ATOM     22  C   UNL     1       2.339 -13.103  -7.829  0.00  0.00    +0.023 C 
ATOM     23  C   UNL     1       3.485 -14.042  -7.446  0.00  0.00    -0.004 C 
ATOM     24  C   UNL     1       4.654 -13.224  -6.892  0.00  0.00    +0.023 C 
ATOM     25  C   UNL     1       4.201 -12.478  -5.638  0.00  0.00    +0.107 C 
BRANCH  23  26
ATOM     26  C   UNL     1       3.946 -14.814  -8.684  0.00  0.00    +0.038 C 
BRANCH  26  27
ATOM     27  C   UNL     1       4.989 -15.826  -8.286  0.00  0.00    -0.047 A 
ATOM     28  C   UNL     1       6.326 -15.476  -8.285  0.00  0.00    +0.003 A 
ATOM     29  C   UNL     1       7.284 -16.404  -7.919  0.00  0.00    +0.000 A 
ATOM     30  C   UNL     1       6.903 -17.682  -7.554  0.00  0.00    +0.000 A 
ATOM     31  C   UNL     1       5.566 -18.032  -7.555  0.00  0.00    +0.000 A 
ATOM     32  C   UNL     1       4.608 -17.102  -7.916  0.00  0.00    +0.003 A 
ENDBRANCH  26  27
ENDBRANCH  23  26
ENDBRANCH   4  20
BRANCH   3  33
ATOM     33  N   UNL     1       1.867 -10.748  -3.552  0.00  0.00    -0.353 N 
ATOM     34  H   UNL     1       1.414 -10.407  -2.765  0.00  0.00    +0.143 HD
ATOM     35  H   UNL     1       1.948 -11.705  -3.688  0.00  0.00    +0.143 HD
ENDBRANCH   3  33
TORSDOF 9
