REMARK  Name = ZINC51906520
REMARK  15 active torsions:
REMARK  status: ('A' for Active; 'I' for Inactive)
REMARK    1  A    between atoms: C_1  and  C_2
REMARK    2  A    between atoms: C_2  and  C_3
REMARK    3  A    between atoms: C_2  and  N_4
REMARK    4  A    between atoms: N_7  and  C_8
REMARK    5  A    between atoms: C_11  and  C_14
REMARK    6  A    between atoms: C_14  and  N_15
REMARK    7  A    between atoms: C_16  and  C_18
REMARK    8  A    between atoms: C_18  and  N_19
REMARK    9  A    between atoms: N_19  and  C_20
REMARK   10  A    between atoms: N_19  and  C_21
REMARK   11  A    between atoms: C_21  and  C_22
REMARK   12  A    between atoms: N_24  and  C_25
REMARK   13  A    between atoms: C_25  and  C_26
REMARK   14  A    between atoms: C_25  and  C_27
REMARK   15  A    between atoms: C_25  and  C_28
REMARK                            x       y       z     vdW  Elec       q    Type
REMARK                         _______ _______ _______ _____ _____    ______ ____
ROOT
ATOM      1  N   UNL     1      -2.816  -3.344   8.176  0.00  0.00    -0.313 N 
ATOM      2  C   UNL     1      -3.565  -3.782   9.207  0.00  0.00    +0.197 C 
ATOM      3  O   UNL     1      -3.842  -3.031  10.119  0.00  0.00    -0.278 OA
ATOM      4  H   UNL     1      -2.595  -3.944   7.447  0.00  0.00    +0.149 HD
ENDROOT
BRANCH   1   5
ATOM      5  C   UNL     1      -2.337  -1.960   8.156  0.00  0.00    +0.139 C 
BRANCH   5   9
ATOM      6  C   UNL     1      -0.047  -1.296   4.609  0.00  0.00    +0.035 A 
ATOM      7  C   UNL     1      -1.416  -1.067   4.606  0.00  0.00    +0.023 A 
ATOM      8  C   UNL     1      -2.154  -1.282   5.754  0.00  0.00    +0.007 A 
ATOM      9  C   UNL     1      -1.529  -1.726   6.905  0.00  0.00    -0.030 A 
ATOM     10  C   UNL     1      -0.165  -1.954   6.912  0.00  0.00    +0.007 A 
ATOM     11  C   UNL     1       0.577  -1.747   5.766  0.00  0.00    +0.023 A 
BRANCH   6  15
ATOM     12  N   UNL     1       2.411  -1.733   1.996  0.00  0.00    -0.297 N 
ATOM     13  C   UNL     1       1.747  -1.883   3.159  0.00  0.00    +0.304 C 
ATOM     14  O   UNL     1       2.089  -2.741   3.949  0.00  0.00    -0.253 OA
ATOM     15  N   UNL     1       0.703  -1.080   3.447  0.00  0.00    -0.269 N 
ATOM     16  H   UNL     1       2.138  -1.048   1.366  0.00  0.00    +0.151 HD
ATOM     17  H   UNL     1       0.471  -0.352   2.849  0.00  0.00    +0.156 HD
BRANCH  12  19
ATOM     18  C   UNL     1       3.033  -3.903   1.055  0.00  0.00    +0.027 C 
ATOM     19  C   UNL     1       3.546  -2.606   1.683  0.00  0.00    +0.068 C 
ATOM     20  C   UNL     1       4.478  -1.896   0.700  0.00  0.00    +0.027 C 
ENDBRANCH  12  19
ENDBRANCH   6  15
ENDBRANCH   5   9
ENDBRANCH   1   5
BRANCH   2  21
ATOM     21  C   UNL     1      -4.059  -5.206   9.228  0.00  0.00    +0.019 C 
BRANCH  21  22
ATOM     22  N   UNL     1      -4.846  -5.434  10.447  0.00  0.00    +0.389 N 
ATOM     23  C   UNL     1      -6.057  -4.603  10.411  0.00  0.00    -0.095 C 
ATOM     24  H   UNL     1      -4.293  -5.188  11.255  0.00  0.00    -0.081 HD
BRANCH  22  25
ATOM     25  C   UNL     1      -5.226  -6.851  10.527  0.00  0.00    +0.019 C 
BRANCH  25  26
ATOM     26  C   UNL     1      -5.927  -7.110  11.836  0.00  0.00    +0.197 C 
ATOM     27  O   UNL     1      -6.093  -6.203  12.624  0.00  0.00    -0.278 OA
ATOM     28  N   UNL     1      -6.369  -8.349  12.130  0.00  0.00    -0.312 N 
ATOM     29  H   UNL     1      -6.236  -9.073  11.499  0.00  0.00    +0.149 HD
BRANCH  28  30
ATOM     30  C   UNL     1      -7.050  -8.600  13.402  0.00  0.00    +0.026 C 
ATOM     31  C   UNL     1      -8.305  -7.730  13.489  0.00  0.00    +0.031 C 
ATOM     32  C   UNL     1      -7.446 -10.076  13.485  0.00  0.00    +0.031 C 
ATOM     33  C   UNL     1      -6.110  -8.258  14.560  0.00  0.00    +0.031 C 
ENDBRANCH  28  30
ENDBRANCH  25  26
ENDBRANCH  22  25
ENDBRANCH  21  22
ENDBRANCH   2  21
TORSDOF 9
