REMARK  Name = ZINC11911568
REMARK  4 active torsions:
REMARK  status: ('A' for Active; 'I' for Inactive)
REMARK    1  A    between atoms: C_1  and  C_2
REMARK    2  A    between atoms: C_2  and  C_3
REMARK    3  A    between atoms: C_8  and  C_9
REMARK    4  A    between atoms: C_15  and  C_17
REMARK                            x       y       z     vdW  Elec       q    Type
REMARK                         _______ _______ _______ _____ _____    ______ ____
ROOT
ATOM      1  C   UNL     1      -1.850   0.556  -0.306  0.00  0.00    +0.040 C 
ATOM      2  C   UNL     1      -2.113  -0.286   0.944  0.00  0.00    +0.028 C 
ATOM      3  C   UNL     1      -3.623  -0.381   1.183  0.00  0.00    +0.109 C 
ATOM      4  N   UNL     1      -4.263  -0.894  -0.036  0.00  0.00    -0.297 N 
ATOM      5  C   UNL     1      -4.005  -0.212  -1.311  0.00  0.00    +0.109 C 
ATOM      6  C   UNL     1      -2.490  -0.119  -1.522  0.00  0.00    +0.028 C 
ATOM      7  C   UNL     1      -5.072  -1.971   0.015  0.00  0.00    +0.247 C 
ATOM      8  O   UNL     1      -5.654  -2.342  -0.987  0.00  0.00    -0.270 OA
ENDROOT
BRANCH   7   9
ATOM      9  C   UNL     1      -5.253  -2.700   1.286  0.00  0.00    +0.039 A 
ATOM     10  C   UNL     1      -5.082  -4.091   1.324  0.00  0.00    +0.015 A 
ATOM     11  C   UNL     1      -5.241  -4.775   2.494  0.00  0.00    +0.028 A 
ATOM     12  C   UNL     1      -5.585  -4.097   3.658  0.00  0.00    +0.066 A 
ATOM     13  C   UNL     1      -5.766  -2.702   3.637  0.00  0.00    +0.089 A 
ATOM     14  C   UNL     1      -5.597  -2.006   2.441  0.00  0.00    +0.043 A 
ATOM     15  N   UNL     1      -6.091  -2.326   4.901  0.00  0.00    -0.236 NA
ATOM     16  C   UNL     1      -6.121  -3.372   5.673  0.00  0.00    +0.197 A 
ATOM     17  N   UNL     1      -5.816  -4.490   4.959  0.00  0.00    -0.344 N 
ATOM     18  H   UNL     1      -5.769  -5.424   5.313  0.00  0.00    +0.167 HD
ENDBRANCH   7   9
BRANCH   1  24
ATOM     19  C   UNL     1       0.345   1.832  -0.551  0.00  0.00    -0.007 A 
ATOM     20  C   UNL     1       1.685   1.507  -0.786  0.00  0.00    +0.138 A 
ATOM     21  N   UNL     1       1.778   0.206  -0.892  0.00  0.00    -0.182 NA
ATOM     22  N   UNL     1       0.498  -0.339  -0.727  0.00  0.00    -0.281 N 
ATOM     23  H   UNL     1       0.264  -1.310  -0.755  0.00  0.00    +0.189 HD
ATOM     24  C   UNL     1      -0.364   0.680  -0.525  0.00  0.00    +0.042 A 
BRANCH  19  26
ATOM     25  C   UNL     1      -0.290   3.542   1.129  0.00  0.00    +0.009 C 
ATOM     26  C   UNL     1      -0.211   3.220  -0.365  0.00  0.00    +0.035 C 
ENDBRANCH  19  26
ENDBRANCH   1  24
TORSDOF 3
