REMARK  Name = ZINC13078508
REMARK  9 active torsions:
REMARK  status: ('A' for Active; 'I' for Inactive)
REMARK    1  A    between atoms: C_1  and  C_2
REMARK    2  A    between atoms: C_4  and  C_30
REMARK    3  A    between atoms: C_6  and  S_9
REMARK    4  A    between atoms: C_7  and  C_8
REMARK    5  A    between atoms: S_9  and  N_12
REMARK    6  A    between atoms: N_12  and  C_13
REMARK    7  A    between atoms: C_16  and  S_19
REMARK    8  A    between atoms: S_19  and  N_22
REMARK    9  A    between atoms: N_22  and  C_23
REMARK                            x       y       z     vdW  Elec       q    Type
REMARK                         _______ _______ _______ _____ _____    ______ ____
ROOT
ATOM      1  C   UNL     1       1.601  -1.118   3.855  0.00  0.00    +0.048 A 
ATOM      2  C   UNL     1       1.276  -0.072   3.001  0.00  0.00    +0.026 A 
ATOM      3  C   UNL     1       1.409   1.234   3.430  0.00  0.00    +0.031 A 
ATOM      4  C   UNL     1       1.865   1.501   4.708  0.00  0.00    +0.110 A 
ATOM      5  C   UNL     1       2.190   0.462   5.561  0.00  0.00    +0.031 A 
ATOM      6  C   UNL     1       2.054  -0.846   5.140  0.00  0.00    +0.026 A 
ENDROOT
BRANCH   4   7
ATOM      7  S   UNL     1       2.034   3.169   5.250  0.00  0.00    +0.092 S 
ATOM      8  O   UNL     1       2.997   3.160   6.296  0.00  0.00    -0.148 OA
ATOM      9  O   UNL     1       2.186   3.963   4.082  0.00  0.00    -0.148 OA
BRANCH   7  10
ATOM     10  N   UNL     1       0.593   3.609   5.938  0.00  0.00    -0.098 NA
BRANCH  10  11
ATOM     11  C   UNL     1       0.433   4.894   6.462  0.00  0.00    +0.074 A 
ATOM     12  C   UNL     1       1.479   5.806   6.403  0.00  0.00    +0.028 A 
ATOM     13  C   UNL     1       1.318   7.075   6.921  0.00  0.00    +0.022 A 
ATOM     14  C   UNL     1       0.115   7.440   7.500  0.00  0.00    +0.041 A 
ATOM     15  C   UNL     1      -0.929   6.534   7.561  0.00  0.00    +0.022 A 
ATOM     16  C   UNL     1      -0.775   5.264   7.039  0.00  0.00    +0.028 A 
ATOM     17 CL   UNL     1      -0.085   9.036   8.153  0.00  0.00    -0.084 Cl
ENDBRANCH  10  11
ENDBRANCH   7  10
ENDBRANCH   4   7
BRANCH   1  18
ATOM     18  N   UNL     1       1.468  -2.440   3.425  0.00  0.00    -0.216 N 
ATOM     19  H   UNL     1       2.180  -3.078   3.589  0.00  0.00    +0.174 HD
BRANCH  18  20
ATOM     20  S   UNL     1       0.093  -2.919   2.635  0.00  0.00    +0.073 S 
ATOM     21  O   UNL     1       0.211  -4.319   2.427  0.00  0.00    -0.150 OA
ATOM     22  O   UNL     1      -0.099  -2.003   1.565  0.00  0.00    -0.150 OA
BRANCH  20  28
ATOM     23  C   UNL     1      -2.460  -4.085   7.043  0.00  0.00    +0.044 C 
ATOM     24  C   UNL     1      -2.386  -3.262   5.783  0.00  0.00    -0.045 A 
ATOM     25  C   UNL     1      -3.369  -2.335   5.508  0.00  0.00    +0.018 A 
ATOM     26  C   UNL     1      -3.299  -1.572   4.339  0.00  0.00    +0.065 A 
ATOM     27  C   UNL     1      -2.231  -1.755   3.457  0.00  0.00    +0.044 A 
ATOM     28  C   UNL     1      -1.254  -2.686   3.745  0.00  0.00    +0.112 A 
ATOM     29  C   UNL     1      -1.328  -3.434   4.907  0.00  0.00    -0.021 A 
ATOM     30  C   UNL     1      -0.255  -4.445   5.218  0.00  0.00    +0.046 C 
BRANCH  26  31
ATOM     31  C   UNL     1      -4.347  -0.579   4.038  0.00  0.00    +0.387 C 
ATOM     32  O   UNL     1      -5.281  -0.421   4.812  0.00  0.00    -0.241 OA
ATOM     33  O   UNL     1      -4.282   0.087   3.014  0.00  0.00    -0.241 OA
ENDBRANCH  26  31
ENDBRANCH  20  28
ENDBRANCH  18  20
ENDBRANCH   1  18
TORSDOF 7
