REMARK  Name = ZINC36277126
REMARK  4 active torsions:
REMARK  status: ('A' for Active; 'I' for Inactive)
REMARK    1  A    between atoms: C_1  and  C_2
REMARK    2  A    between atoms: C_2  and  C_3
REMARK    3  A    between atoms: C_6  and  C_9
REMARK    4  A    between atoms: C_14  and  N_19
REMARK                            x       y       z     vdW  Elec       q    Type
REMARK                         _______ _______ _______ _____ _____    ______ ____
ROOT
ATOM      1  C   UNL     1       2.164  -1.492   5.251  0.00  0.00    +0.002 A 
ATOM      2  C   UNL     1       3.035  -0.702   5.922  0.00  0.00    +0.056 A 
ATOM      3  S   UNL     1       3.705  -1.787   7.167  0.00  0.00    -0.076 S 
ATOM      4  C   UNL     1       2.812  -3.264   6.764  0.00  0.00    +0.115 A 
ATOM      5  C   UNL     1       2.006  -2.880   5.673  0.00  0.00    +0.055 A 
ATOM      6  C   UNL     1       1.167  -3.897   5.146  0.00  0.00    +0.130 A 
ATOM      7  N   UNL     1       1.187  -5.101   5.695  0.00  0.00    -0.202 NA
ATOM      8  C   UNL     1       1.966  -5.392   6.722  0.00  0.00    +0.225 A 
ATOM      9  N   UNL     1       2.775  -4.490   7.248  0.00  0.00    -0.210 NA
ATOM     10 CL   UNL     1       1.934  -6.996   7.386  0.00  0.00    -0.041 Cl
ENDROOT
BRANCH   1  14
ATOM     11  C   UNL     1      -0.079   0.045   1.983  0.00  0.00    -0.048 A 
ATOM     12  C   UNL     1       1.303   0.100   1.957  0.00  0.00    +0.004 A 
ATOM     13  C   UNL     1       2.037  -0.397   3.014  0.00  0.00    +0.009 A 
ATOM     14  C   UNL     1       1.382  -0.955   4.112  0.00  0.00    -0.017 A 
ATOM     15  C   UNL     1      -0.011  -1.007   4.133  0.00  0.00    +0.009 A 
ATOM     16  C   UNL     1      -0.734  -0.502   3.072  0.00  0.00    +0.004 A 
BRANCH  11  18
ATOM     17  C   UNL     1      -1.176   2.071   1.065  0.00  0.00    +0.009 C 
ATOM     18  C   UNL     1      -0.874   0.590   0.825  0.00  0.00    +0.032 C 
ENDBRANCH  11  18
ENDBRANCH   1  14
BRANCH   6  19
ATOM     19  N   UNL     1       0.337  -3.632   4.071  0.00  0.00    -0.343 N 
ATOM     20  H   UNL     1       0.567  -2.930   3.442  0.00  0.00    +0.144 HD
ATOM     21  H   UNL     1      -0.475  -4.149   3.946  0.00  0.00    +0.144 HD
ENDBRANCH   6  19
TORSDOF 3
