REMARK  Name = ZINC16575039
REMARK  13 active torsions:
REMARK  status: ('A' for Active; 'I' for Inactive)
REMARK    1  A    between atoms: CD1_1  and  CG_2
REMARK    2  A    between atoms: CG_2  and  CD2_3
REMARK    3  A    between atoms: CG_2  and  CB_4
REMARK    4  A    between atoms: CB_4  and  CA_5
REMARK    5  A    between atoms: CA_5  and  C_7
REMARK    6  A    between atoms: CA_5  and  N_18
REMARK    7  A    between atoms: N_9  and  CA_10
REMARK    8  A    between atoms: CA_10  and  CB_12
REMARK    9  A    between atoms: CA_10  and  C_16
REMARK   10  A    between atoms: CB_12  and  CG_13
REMARK   11  A    between atoms: CG_13  and  CD1_14
REMARK   12  A    between atoms: CG_13  and  CD2_15
REMARK   13  A    between atoms: N_21  and  C_22
REMARK                            x       y       z     vdW  Elec       q    Type
REMARK                         _______ _______ _______ _____ _____    ______ ____
ROOT
ATOM      1  CA  LEU A   1       1.218  -1.481  -1.087  0.00  0.00    +0.161 C 
ENDROOT
BRANCH   1   2
ATOM      2  N   LEU A   1       2.537  -1.955  -1.513  0.00  0.00    -0.288 N 
ATOM      3  C   UNK A   0       3.042  -3.094  -1.000  0.00  0.00    +0.304 C 
ATOM      4  O   UNK A   0       2.367  -3.776  -0.253  0.00  0.00    -0.252 OA
ATOM      5  N   UNK A   0       4.295  -3.478  -1.314  0.00  0.00    -0.269 N 
ATOM      6  H   LEU A   1       3.047  -1.449  -2.165  0.00  0.00    +0.151 HD
ATOM      7  H   UNK A   0       4.857  -2.901  -1.855  0.00  0.00    +0.156 HD
BRANCH   5   8
ATOM      8  C   UNK A   0       4.785  -4.708  -0.861  0.00  0.00    +0.036 A 
ATOM      9  C   UNK A   0       4.393  -5.200   0.377  0.00  0.00    +0.025 A 
ATOM     10  C   UNK A   0       4.872  -6.417   0.820  0.00  0.00    +0.023 A 
ATOM     11  C   UNK A   0       5.753  -7.142   0.036  0.00  0.00    +0.059 A 
ATOM     12  C   UNK A   0       6.150  -6.652  -1.196  0.00  0.00    +0.061 A 
ATOM     13  C   UNK A   0       5.668  -5.437  -1.646  0.00  0.00    +0.044 A 
ATOM     14 CL   UNK A   0       7.254  -7.564  -2.178  0.00  0.00    -0.082 Cl
ATOM     15 CL   UNK A   0       6.360  -8.668   0.600  0.00  0.00    -0.082 Cl
ENDBRANCH   5   8
ENDBRANCH   1   2
BRANCH   1  16
ATOM     16  C   LEU A   1       1.106  -0.002  -1.352  0.00  0.00    +0.234 C 
ATOM     17  O   LEU A   1       1.836   0.525  -2.165  0.00  0.00    -0.274 OA
ATOM     18  N   LEU A   1       0.195   0.735  -0.687  0.00  0.00    -0.301 N 
ATOM     19  H   LEU A   1      -0.434   0.304  -0.087  0.00  0.00    +0.150 HD
BRANCH  18  20
ATOM     20  CA  LEU A   1       0.154   2.188  -0.868  0.00  0.00    +0.186 C 
BRANCH  20  21
ATOM     21  C   LEU A   1      -0.676   2.520  -2.081  0.00  0.00    +0.376 C 
ATOM     22  O   LEU A   1      -1.183   1.634  -2.727  0.00  0.00    -0.244 OA
ATOM     23  OXT LEU A   1      -0.854   3.800  -2.443  0.00  0.00    -0.244 OA
ENDBRANCH  20  21
BRANCH  20  24
ATOM     24  CB  LEU A   1      -0.467   2.840   0.369  0.00  0.00    +0.037 C 
BRANCH  24  25
ATOM     25  CG  LEU A   1       0.442   2.608   1.578  0.00  0.00    -0.015 C 
ATOM     26  CD1 LEU A   1       1.772   3.334   1.363  0.00  0.00    +0.007 C 
ATOM     27  CD2 LEU A   1      -0.236   3.150   2.838  0.00  0.00    +0.007 C 
ENDBRANCH  24  25
ENDBRANCH  20  24
ENDBRANCH  18  20
ENDBRANCH   1  16
BRANCH   1  28
ATOM     28  CB  LEU A   1       0.132  -2.223  -1.869  0.00  0.00    +0.034 C 
BRANCH  28  30
ATOM     29  CD1 LEU A   1      -2.334  -2.464  -2.192  0.00  0.00    +0.007 C 
ATOM     30  CG  LEU A   1      -1.243  -1.845  -1.315  0.00  0.00    -0.015 C 
ATOM     31  CD2 LEU A   1      -1.379  -2.371   0.115  0.00  0.00    +0.007 C 
ENDBRANCH  28  30
ENDBRANCH   1  28
TORSDOF 9
