REMARK  Name = ZINC52069075
REMARK  3 active torsions:
REMARK  status: ('A' for Active; 'I' for Inactive)
REMARK    1  A    between atoms: C_1  and  C_2
REMARK    2  A    between atoms: C_2  and  N_3
REMARK    3  A    between atoms: N_6  and  C_7
REMARK                            x       y       z     vdW  Elec       q    Type
REMARK                         _______ _______ _______ _____ _____    ______ ____
ROOT
ATOM      1  N   UNL     1      -1.372  -0.511   0.012  0.00  0.00    -0.356 N 
ATOM      2  C   UNL     1      -1.605  -1.864   0.007  0.00  0.00    +0.196 C 
ATOM      3  N   UNL     1      -0.549  -2.742  -0.007  0.00  0.00    -0.370 N 
ATOM      4  N   UNL     1      -2.836  -2.318   0.017  0.00  0.00    -0.213 NA
ATOM      5  H   UNL     1      -2.118   0.109   0.023  0.00  0.00    +0.162 HD
ATOM      6  H   UNL     1       0.361  -2.406  -0.014  0.00  0.00    +0.159 HD
ATOM      7  H   UNL     1      -0.714  -3.698  -0.011  0.00  0.00    +0.159 HD
ENDROOT
BRANCH   4   8
ATOM      8  C   UNL     1      -3.068  -3.669   0.012  0.00  0.00    +0.095 A 
ATOM      9  C   UNL     1      -3.193  -4.355  -1.198  0.00  0.00    +0.045 A 
ATOM     10  C   UNL     1      -3.427  -5.715  -1.197  0.00  0.00    +0.032 A 
ATOM     11  C   UNL     1      -3.538  -6.400   0.002  0.00  0.00    +0.020 A 
ATOM     12  C   UNL     1      -3.416  -5.726   1.204  0.00  0.00    +0.032 A 
ATOM     13  C   UNL     1      -3.176  -4.367   1.217  0.00  0.00    +0.045 A 
ATOM     14 BR   UNL     1      -3.000  -3.450   2.861  0.00  0.00    -0.048 Br
ATOM     15 BR   UNL     1      -3.858  -8.264  -0.005  0.00  0.00    -0.050 Br
ATOM     16 BR   UNL     1      -3.042  -3.422  -2.836  0.00  0.00    -0.048 Br
ENDBRANCH   4   8
BRANCH   1  18
ATOM     17  C   UNL     1      -0.019   1.526   0.010  0.00  0.00    +0.026 C 
ATOM     18  C   UNL     1       0.002  -0.004   0.002  0.00  0.00    +0.112 C 
ENDBRANCH   1  18
TORSDOF 2
