REMARK  Name = ZINC12190231
REMARK  9 active torsions:
REMARK  status: ('A' for Active; 'I' for Inactive)
REMARK    1  A    between atoms: C_1  and  N_74
REMARK    2  A    between atoms: C_2  and  C_3
REMARK    3  A    between atoms: C_2  and  N_74
REMARK    4  A    between atoms: C_6  and  O_9
REMARK    5  A    between atoms: O_9  and  C_10
REMARK    6  A    between atoms: C_10  and  C_11
REMARK    7  A    between atoms: C_18  and  C_20
REMARK    8  A    between atoms: C_34  and  C_35
REMARK    9  A    between atoms: C_34  and  N_74
REMARK                            x       y       z     vdW  Elec       q    Type
REMARK                         _______ _______ _______ _____ _____    ______ ____
ROOT
ATOM      1  C   UNL     1     -11.228   0.007  -0.521  0.00  0.00    +0.044 C 
ATOM      2  C   UNL     1     -11.455   0.097   0.990  0.00  0.00    +0.010 C 
ATOM      3  C   UNL     1     -10.213   0.690   1.660  0.00  0.00    +0.019 C 
ATOM      4  C   UNL     1      -9.011  -0.232   1.406  0.00  0.00    +0.108 C 
ATOM      5  N   UNL     1      -8.876  -0.435  -0.042  0.00  0.00    -0.297 N 
ATOM      6  C   UNL     1     -10.039  -0.918  -0.800  0.00  0.00    +0.115 C 
ATOM      7  C   UNL     1      -7.706  -0.189  -0.664  0.00  0.00    +0.247 C 
ATOM      8  O   UNL     1      -7.632  -0.268  -1.875  0.00  0.00    -0.270 OA
ENDROOT
BRANCH   7   9
ATOM      9  C   UNL     1      -6.513   0.176   0.126  0.00  0.00    +0.038 A 
ATOM     10  C   UNL     1      -6.291  -0.450   1.357  0.00  0.00    +0.015 A 
ATOM     11  C   UNL     1      -5.206  -0.159   2.141  0.00  0.00    +0.027 A 
ATOM     12  C   UNL     1      -4.310   0.799   1.665  0.00  0.00    +0.047 A 
ATOM     13  C   UNL     1      -4.524   1.442   0.417  0.00  0.00    +0.004 A 
ATOM     14  C   UNL     1      -5.632   1.139  -0.374  0.00  0.00    +0.023 A 
ATOM     15  C   UNL     1      -3.417   2.361   0.245  0.00  0.00    -0.019 A 
ATOM     16  C   UNL     1      -2.628   2.238   1.335  0.00  0.00    +0.020 A 
ATOM     17  N   UNL     1      -3.158   1.306   2.188  0.00  0.00    -0.358 N 
ATOM     18  H   UNL     1      -2.770   1.044   3.038  0.00  0.00    +0.166 HD
ATOM     19  C   UNL     1      -1.358   3.029   1.544  0.00  0.00    +0.053 C 
ATOM     20  C   UNL     1      -0.923   3.621   0.199  0.00  0.00    +0.006 C 
ATOM     21  C   UNL     1      -2.111   4.337  -0.451  0.00  0.00    +0.005 C 
ATOM     22  C   UNL     1      -3.143   3.297  -0.904  0.00  0.00    +0.037 C 
ENDBRANCH   7   9
BRANCH   1  23
ATOM     23  C   UNL     1     -12.482  -0.555  -1.193  0.00  0.00    +0.234 C 
BRANCH  23  24
ATOM     24  O   UNL     1     -12.311  -0.534  -2.612  0.00  0.00    -0.492 OA
BRANCH  24  28
ATOM     25  C   UNL     1     -15.438  -1.959  -4.894  0.00  0.00    -0.064 A 
ATOM     26  C   UNL     1     -14.293  -1.490  -5.510  0.00  0.00    +0.005 A 
ATOM     27  C   UNL     1     -13.244  -1.012  -4.748  0.00  0.00    +0.046 A 
ATOM     28  C   UNL     1     -13.341  -1.003  -3.364  0.00  0.00    +0.121 A 
ATOM     29  C   UNL     1     -14.490  -1.480  -2.749  0.00  0.00    +0.046 A 
ATOM     30  C   UNL     1     -15.538  -1.952  -3.515  0.00  0.00    +0.005 A 
BRANCH  25  31
ATOM     31  C   UNL     1     -16.581  -2.479  -5.728  0.00  0.00    -0.043 C 
BRANCH  31  33
ATOM     32  C   UNL     1     -15.221  -4.184  -6.780  0.00  0.00    -0.095 C 
ATOM     33  N   UNL     1     -16.402  -3.933  -5.928  0.00  0.00    +0.384 N 
ATOM     34  H   UNL     1     -16.255  -4.379  -5.014  0.00  0.00    -0.081 HD
BRANCH  33  35
ATOM     35  C   UNL     1     -17.610  -4.509  -6.555  0.00  0.00    -0.019 C 
BRANCH  35  36
ATOM     36  C   UNL     1     -17.493  -6.012  -6.545  0.00  0.00    +0.067 A 
ATOM     37  C   UNL     1     -18.008  -6.894  -5.568  0.00  0.00    +0.065 A 
ATOM     38  C   UNL     1     -17.642  -8.121  -6.010  0.00  0.00    +0.230 A 
ATOM     39  O   UNL     1     -16.971  -7.928  -7.154  0.00  0.00    -0.363 OA
ATOM     40  N   UNL     1     -16.903  -6.754  -7.437  0.00  0.00    -0.085 NA
ENDBRANCH  35  36
ENDBRANCH  33  35
ENDBRANCH  31  33
ENDBRANCH  25  31
ENDBRANCH  24  28
ENDBRANCH  23  24
ENDBRANCH   1  23
TORSDOF 8
