REMARK  Name = ZINC66095747
REMARK  16 active torsions:
REMARK  status: ('A' for Active; 'I' for Inactive)
REMARK    1  A    between atoms: C_1  and  C_2
REMARK    2  A    between atoms: C_2  and  C_3
REMARK    3  A    between atoms: C_3  and  C_4
REMARK    4  A    between atoms: C_4  and  O_5
REMARK    5  A    between atoms: O_5  and  C_6
REMARK    6  A    between atoms: C_9  and  N_12
REMARK    7  A    between atoms: C_13  and  C_15
REMARK    8  A    between atoms: C_15  and  N_16
REMARK    9  A    between atoms: N_16  and  C_17
REMARK   10  A    between atoms: C_21  and  C_23
REMARK   11  A    between atoms: N_25  and  C_26
REMARK   12  A    between atoms: N_25  and  C_29
REMARK   13  A    between atoms: C_26  and  C_27
REMARK   14  A    between atoms: C_27  and  C_28
REMARK   15  A    between atoms: C_29  and  C_30
REMARK   16  A    between atoms: C_30  and  C_31
REMARK                            x       y       z     vdW  Elec       q    Type
REMARK                         _______ _______ _______ _____ _____    ______ ____
ROOT
ATOM      1  N   UNL     1       3.683 -10.698   4.884  0.00  0.00    -0.335 N 
ATOM      2  H   UNL     1       3.658  -9.993   5.550  0.00  0.00    +0.147 HD
ENDROOT
BRANCH   1   3
ATOM      3  C   UNL     1       4.279 -11.925   5.187  0.00  0.00    +0.028 A 
ATOM      4  C   UNL     1       4.320 -12.932   4.230  0.00  0.00    +0.023 A 
ATOM      5  C   UNL     1       4.908 -14.148   4.524  0.00  0.00    +0.003 A 
ATOM      6  C   UNL     1       5.458 -14.370   5.771  0.00  0.00    +0.013 A 
ATOM      7  C   UNL     1       5.422 -13.365   6.739  0.00  0.00    +0.039 A 
ATOM      8  C   UNL     1       4.833 -12.136   6.440  0.00  0.00    +0.036 A 
BRANCH   7   9
ATOM      9  C   UNL     1       6.010 -13.600   8.075  0.00  0.00    +0.247 C 
ATOM     10  O   UNL     1       5.886 -14.684   8.611  0.00  0.00    -0.270 OA
ATOM     11  N   UNL     1       6.684 -12.613   8.698  0.00  0.00    -0.298 N 
BRANCH  11  12
ATOM     12  C   UNL     1       7.215 -12.827  10.046  0.00  0.00    +0.108 C 
BRANCH  12  13
ATOM     13  C   UNL     1       8.635 -13.388   9.951  0.00  0.00    +0.016 C 
ATOM     14  C   UNL     1       9.191 -13.611  11.359  0.00  0.00    +0.005 C 
ENDBRANCH  12  13
ENDBRANCH  11  12
BRANCH  11  15
ATOM     15  C   UNL     1       6.884 -11.326   8.027  0.00  0.00    +0.108 C 
BRANCH  15  16
ATOM     16  C   UNL     1       5.937 -10.285   8.627  0.00  0.00    +0.016 C 
ATOM     17  C   UNL     1       6.036  -8.984   7.827  0.00  0.00    +0.005 C 
ENDBRANCH  15  16
ENDBRANCH  11  15
ENDBRANCH   7   9
ENDBRANCH   1   3
BRANCH   1  18
ATOM     18  C   UNL     1       3.098 -10.475   3.560  0.00  0.00    +0.198 C 
BRANCH  18  20
ATOM     19  N   UNL     1       1.932  -8.652   2.361  0.00  0.00    -0.284 N 
ATOM     20  C   UNL     1       2.526  -9.082   3.491  0.00  0.00    +0.234 C 
ATOM     21  O   UNL     1       2.601  -8.348   4.454  0.00  0.00    -0.274 OA
ATOM     22  H   UNL     1       1.809  -9.261   1.615  0.00  0.00    +0.155 HD
BRANCH  19  26
ATOM     23  C   UNL     1       0.622  -4.705   2.064  0.00  0.00    +0.121 A 
ATOM     24  C   UNL     1       1.727  -5.011   2.844  0.00  0.00    +0.047 A 
ATOM     25  C   UNL     1       2.162  -6.318   2.942  0.00  0.00    +0.027 A 
ATOM     26  C   UNL     1       1.491  -7.326   2.261  0.00  0.00    +0.034 A 
ATOM     27  C   UNL     1       0.385  -7.018   1.481  0.00  0.00    +0.027 A 
ATOM     28  C   UNL     1      -0.052  -5.711   1.388  0.00  0.00    +0.047 A 
BRANCH  23  29
ATOM     29  O   UNL     1       0.194  -3.417   1.968  0.00  0.00    -0.492 OA
BRANCH  29  30
ATOM     30  C   UNL     1       0.935  -2.432   2.690  0.00  0.00    +0.229 C 
BRANCH  30  31
ATOM     31  C   UNL     1       0.310  -1.054   2.461  0.00  0.00    +0.041 C 
BRANCH  31  33
ATOM     32  C   UNL     1       0.477   1.378   3.006  0.00  0.00    +0.004 C 
ATOM     33  C   UNL     1       1.103   0.001   3.235  0.00  0.00    -0.000 C 
ENDBRANCH  31  33
ENDBRANCH  30  31
ENDBRANCH  29  30
ENDBRANCH  23  29
ENDBRANCH  19  26
ENDBRANCH  18  20
ENDBRANCH   1  18
TORSDOF 13
