REMARK  Name = ZINC60372368
REMARK  3 active torsions:
REMARK  status: ('A' for Active; 'I' for Inactive)
REMARK    1  A    between atoms: C_1  and  C_2
REMARK    2  A    between atoms: C_4  and  O_9
REMARK    3  A    between atoms: O_9  and  C_10
REMARK                            x       y       z     vdW  Elec       q    Type
REMARK                         _______ _______ _______ _____ _____    ______ ____
ROOT
ATOM      1  C   UNL     1      -0.023  -1.949  -3.574  0.00  0.00    +0.131 A 
ATOM      2  C   UNL     1       0.001  -0.551  -3.584  0.00  0.00    +0.048 A 
ATOM      3  C   UNL     1      -0.046   0.142  -4.753  0.00  0.00    +0.032 A 
ATOM      4  C   UNL     1      -0.121  -0.551  -5.975  0.00  0.00    +0.071 A 
ATOM      5  C   UNL     1      -0.146  -1.968  -5.965  0.00  0.00    +0.004 A 
ATOM      6  C   UNL     1      -0.090  -2.655  -4.742  0.00  0.00    +0.056 A 
ATOM      7  C   UNL     1      -0.222  -2.658  -7.189  0.00  0.00    +0.011 A 
ATOM      8  C   UNL     1      -0.268  -1.924  -8.341  0.00  0.00    +0.020 A 
ATOM      9  C   UNL     1      -0.239  -0.533  -8.280  0.00  0.00    +0.111 A 
ATOM     10  N   UNL     1      -0.169   0.107  -7.138  0.00  0.00    -0.255 NA
ENDROOT
BRANCH   1  11
ATOM     11  O   UNL     1       0.026  -2.613  -2.390  0.00  0.00    -0.438 OA
BRANCH  11  15
ATOM     12  C   UNL     1      -4.512  -1.300  -1.765  0.00  0.00    +0.088 C 
ATOM     13  C   UNL     1      -3.297  -2.062  -1.302  0.00  0.00    +0.131 A 
ATOM     14  N   UNL     1      -2.195  -2.010  -2.022  0.00  0.00    -0.198 NA
ATOM     15  C   UNL     1      -1.105  -2.670  -1.645  0.00  0.00    +0.225 A 
ATOM     16  C   UNL     1      -1.143  -3.421  -0.472  0.00  0.00    +0.107 A 
ATOM     17  C   UNL     1      -2.321  -3.448   0.254  0.00  0.00    +0.136 A 
ATOM     18  N   UNL     1      -3.365  -2.759  -0.185  0.00  0.00    -0.221 NA
ATOM     19 CL   UNL     1      -2.428  -4.366   1.723  0.00  0.00    -0.062 Cl
ENDBRANCH  11  15
ENDBRANCH   1  11
TORSDOF 2
