REMARK  Name = ZINC39500113
REMARK  2 active torsions:
REMARK  status: ('A' for Active; 'I' for Inactive)
REMARK    1  A    between atoms: C_13  and  C_15
REMARK    2  A    between atoms: C_24  and  C_26
REMARK                            x       y       z     vdW  Elec       q    Type
REMARK                         _______ _______ _______ _____ _____    ______ ____
ROOT
ATOM      1  C   UNL     1       0.086  -6.505   1.178  0.00  0.00    +0.082 C 
ATOM      2  C   UNL     1      -0.323  -7.216   2.470  0.00  0.00    +0.021 C 
ATOM      3  C   UNL     1       0.079  -8.032   1.241  0.00  0.00    -0.015 C 
ATOM      4  C   UNL     1      -1.029  -8.771   0.484  0.00  0.00    +0.026 C 
ATOM      5  C   UNL     1      -1.182 -10.175   1.081  0.00  0.00    +0.108 C 
ATOM      6  N   UNL     1       0.138 -10.816   1.129  0.00  0.00    -0.297 N 
ATOM      7  C   UNL     1       1.230 -10.155   1.855  0.00  0.00    +0.108 C 
ATOM      8  C   UNL     1       1.432  -8.750   1.275  0.00  0.00    +0.026 C 
ATOM      9  C   UNL     1       0.346 -11.996   0.513  0.00  0.00    +0.247 C 
ATOM     10  O   UNL     1      -0.532 -12.490  -0.169  0.00  0.00    -0.270 OA
ENDROOT
BRANCH   1  23
ATOM     11  C   UNL     1       5.888  -4.467  -4.645  0.00  0.00    +0.005 A 
ATOM     12  C   UNL     1       5.257  -4.877  -5.812  0.00  0.00    +0.018 A 
ATOM     13  C   UNL     1       4.092  -5.612  -5.729  0.00  0.00    +0.084 A 
ATOM     14  N   UNL     1       3.574  -5.928  -4.557  0.00  0.00    -0.350 N 
ATOM     15  C   UNL     1       4.144  -5.555  -3.422  0.00  0.00    +0.099 A 
ATOM     16  C   UNL     1       5.321  -4.812  -3.432  0.00  0.00    +0.042 A 
ATOM     17  N   UNL     1       3.563  -5.909  -2.210  0.00  0.00    -0.314 N 
ATOM     18  C   UNL     1       4.244  -5.617  -0.940  0.00  0.00    +0.125 C 
ATOM     19  C   UNL     1       3.296  -4.800  -0.053  0.00  0.00    +0.126 C 
ATOM     20  N   UNL     1       1.990  -5.473  -0.018  0.00  0.00    -0.298 N 
ATOM     21  C   UNL     1       1.309  -5.765  -1.287  0.00  0.00    +0.126 C 
ATOM     22  C   UNL     1       2.254  -6.576  -2.174  0.00  0.00    +0.125 C 
ATOM     23  C   UNL     1       1.426  -5.816   1.158  0.00  0.00    +0.219 C 
ATOM     24  O   UNL     1       1.998  -5.570   2.199  0.00  0.00    -0.275 OA
ATOM     25  H   UNL     1       2.754  -6.446  -4.526  0.00  0.00    +0.166 HD
ENDBRANCH   1  23
BRANCH   9  26
ATOM     26  C   UNL     1       1.639 -12.691   0.665  0.00  0.00    +0.037 C 
ATOM     27  C   UNL     1       1.940 -13.352   1.850  0.00  0.00    +0.019 C 
ATOM     28  C   UNL     1       3.177 -14.025   1.854  0.00  0.00    -0.014 C 
ATOM     29  C   UNL     1       4.060 -14.291   2.824  0.00  0.00    -0.021 C 
ATOM     30  C   UNL     1       3.905 -14.098   4.316  0.00  0.00    +0.037 C 
ATOM     31  C   UNL     1       5.017 -14.892   5.013  0.00  0.00    +0.005 C 
ATOM     32  C   UNL     1       6.372 -14.511   4.410  0.00  0.00    +0.006 C 
ATOM     33  C   UNL     1       6.519 -15.161   3.028  0.00  0.00    +0.055 C 
ATOM     34  C   UNL     1       5.298 -14.799   2.210  0.00  0.00    +0.040 C 
ATOM     35  N   UNL     1       5.165 -14.915   0.926  0.00  0.00    -0.276 NA
ATOM     36  C   UNL     1       3.797 -14.568   0.579  0.00  0.00    +0.159 C 
ATOM     37  C   UNL     1       3.644 -13.530  -0.490  0.00  0.00    +0.005 C 
ATOM     38  C   UNL     1       2.611 -12.691  -0.437  0.00  0.00    +0.011 C 
ENDBRANCH   9  26
TORSDOF 2
