REMARK  Name = ZINC22578658
REMARK  5 active torsions:
REMARK  status: ('A' for Active; 'I' for Inactive)
REMARK    1  A    between atoms: C_1  and  C_2
REMARK    2  A    between atoms: C_7  and  N_8
REMARK    3  A    between atoms: C_9  and  C_11
REMARK    4  A    between atoms: C_13  and  N_23
REMARK    5  A    between atoms: C_16  and  N_17
REMARK                            x       y       z     vdW  Elec       q    Type
REMARK                         _______ _______ _______ _____ _____    ______ ____
ROOT
ATOM      1  C   UNL     1      -2.036   2.660   3.279  0.00  0.00    +0.060 A 
ATOM      2  C   UNL     1      -2.613   3.169   4.446  0.00  0.00    +0.047 A 
ATOM      3  C   UNL     1      -2.624   4.528   4.672  0.00  0.00    +0.127 A 
ATOM      4  C   UNL     1      -2.060   5.395   3.749  0.00  0.00    +0.034 A 
ATOM      5  C   UNL     1      -1.482   4.909   2.595  0.00  0.00    +0.026 A 
ATOM      6  C   UNL     1      -1.462   3.541   2.349  0.00  0.00    +0.042 A 
ENDROOT
BRANCH   6   7
ATOM      7  N   UNL     1      -0.881   3.049   1.188  0.00  0.00    -0.325 N 
ATOM      8  C   UNL     1      -1.539   3.602  -0.005  0.00  0.00    +0.133 C 
ATOM      9  C   UNL     1      -0.909   2.990  -1.259  0.00  0.00    +0.178 C 
ATOM     10  O   UNL     1       0.499   3.241  -1.250  0.00  0.00    -0.377 OA
ATOM     11  C   UNL     1       1.171   2.714  -0.103  0.00  0.00    +0.178 C 
ATOM     12  C   UNL     1       0.562   3.325   1.163  0.00  0.00    +0.133 C 
ENDBRANCH   6   7
BRANCH   1  14
ATOM     13  N   UNL     1      -2.671   0.375   3.870  0.00  0.00    -0.281 N 
ATOM     14  C   UNL     1      -2.027   1.208   3.028  0.00  0.00    +0.250 C 
ATOM     15  O   UNL     1      -1.438   0.761   2.062  0.00  0.00    -0.270 OA
ATOM     16  H   UNL     1      -3.267   0.783   4.699  0.00  0.00    +0.155 HD
BRANCH  13  23
ATOM     17  C   UNL     1      -2.671  -1.285   6.181  0.00  0.00    +0.046 C 
ATOM     18  C   UNL     1      -2.577  -1.856   4.789  0.00  0.00    -0.028 A 
ATOM     19  C   UNL     1      -2.492  -3.223   4.607  0.00  0.00    +0.019 A 
ATOM     20  C   UNL     1      -2.400  -3.747   3.330  0.00  0.00    +0.014 A 
ATOM     21  C   UNL     1      -2.399  -2.906   2.232  0.00  0.00    +0.016 A 
ATOM     22  C   UNL     1      -2.488  -1.539   2.408  0.00  0.00    +0.024 A 
ATOM     23  C   UNL     1      -2.580  -1.009   3.689  0.00  0.00    +0.037 A 
ATOM     24  I   UNL     1      -2.263  -5.820   3.059  0.00  0.00    -0.044 I 
ENDBRANCH  13  23
ENDBRANCH   1  14
BRANCH   3  25
ATOM     25  N   UNL     1      -3.241   5.064   5.905  0.00  0.00    +0.056 N 
ATOM     26  O   UNL     1      -3.253   6.265   6.108  0.00  0.00    -0.126 OA
ATOM     27  O   UNL     1      -3.737   4.305   6.718  0.00  0.00    -0.126 OA
ENDBRANCH   3  25
TORSDOF 4
