REMARK  Name = ZINC23262393
REMARK  5 active torsions:
REMARK  status: ('A' for Active; 'I' for Inactive)
REMARK    1  A    between atoms: C_1  and  C_2
REMARK    2  A    between atoms: C_2  and  C_4
REMARK    3  A    between atoms: C_2  and  S_20
REMARK    4  A    between atoms: N_9  and  C_10
REMARK    5  A    between atoms: S_20  and  C_21
REMARK                            x       y       z     vdW  Elec       q    Type
REMARK                         _______ _______ _______ _____ _____    ______ ____
ROOT
ATOM      1  C   UNL     1      -0.748   2.025  -1.210  0.00  0.00    +0.233 C 
ATOM      2  O   UNL     1      -0.126   2.327  -2.206  0.00  0.00    -0.274 OA
ATOM      3  N   UNL     1      -2.091   2.135  -1.195  0.00  0.00    -0.239 N 
ATOM      4  C   UNL     1      -2.743   2.582  -2.287  0.00  0.00    +0.306 C 
ATOM      5  O   UNL     1      -2.119   2.885  -3.285  0.00  0.00    -0.252 OA
ATOM      6  N   UNL     1      -4.086   2.692  -2.272  0.00  0.00    -0.294 N 
ATOM      7  H   UNL     1      -2.655   1.861  -0.292  0.00  0.00    +0.159 HD
ATOM      8  H   UNL     1      -4.650   2.418  -1.368  0.00  0.00    +0.151 HD
ENDROOT
BRANCH   6   9
ATOM      9  C   UNL     1      -4.794   3.178  -3.459  0.00  0.00    +0.037 C 
ATOM     10  C   UNL     1      -4.311   4.589  -3.800  0.00  0.00    +0.029 C 
ATOM     11  C   UNL     1      -5.051   5.096  -5.039  0.00  0.00    -0.008 C 
ATOM     12  C   UNL     1      -6.555   5.125  -4.759  0.00  0.00    +0.007 C 
ATOM     13  C   UNL     1      -7.038   3.714  -4.418  0.00  0.00    -0.008 C 
ATOM     14  C   UNL     1      -6.298   3.207  -3.179  0.00  0.00    +0.029 C 
ATOM     15  C   UNL     1      -6.757   2.780  -5.597  0.00  0.00    +0.007 C 
ATOM     16  C   UNL     1      -5.253   2.751  -5.877  0.00  0.00    -0.008 C 
ATOM     17  C   UNL     1      -4.770   4.162  -6.218  0.00  0.00    +0.007 C 
ATOM     18  C   UNL     1      -4.513   2.244  -4.638  0.00  0.00    +0.029 C 
ENDBRANCH   6   9
BRANCH   1  20
ATOM     19  C   UNL     1       0.002  -0.004   0.002  0.00  0.00    +0.029 C 
ATOM     20  C   UNL     1      -0.019   1.526   0.010  0.00  0.00    +0.137 C 
BRANCH  20  21
ATOM     21  S   UNL     1       1.679   2.152  -0.002  0.00  0.00    -0.074 S 
BRANCH  21  22
ATOM     22  C   UNL     1       2.235   1.562   1.562  0.00  0.00    +0.192 A 
ATOM     23  N   UNL     1       1.534   0.871   2.433  0.00  0.00    -0.122 NA
ATOM     24  N   UNL     1       2.258   0.600   3.462  0.00  0.00    -0.134 NA
ATOM     25  C   UNL     1       3.448   1.101   3.311  0.00  0.00    +0.134 A 
ATOM     26  N   UNL     1       3.471   1.738   2.103  0.00  0.00    -0.306 N 
ATOM     27  C   UNL     1       4.600   2.469   1.526  0.00  0.00    +0.125 C 
ATOM     28  C   UNL     1       5.909   1.881   2.059  0.00  0.00    +0.022 C 
ATOM     29  C   UNL     1       6.306   2.592   3.352  0.00  0.00    +0.002 C 
ATOM     30  C   UNL     1       5.242   2.389   4.426  0.00  0.00    +0.008 C 
ATOM     31  C   UNL     1       4.608   1.003   4.268  0.00  0.00    +0.076 C 
ENDBRANCH  21  22
ENDBRANCH  20  21
ENDBRANCH   1  20
TORSDOF 4
