REMARK  Name = ZINC38547628
REMARK  9 active torsions:
REMARK  status: ('A' for Active; 'I' for Inactive)
REMARK    1  A    between atoms: C_1  and  C_2
REMARK    2  A    between atoms: C_5  and  C_8
REMARK    3  A    between atoms: C_8  and  C_10
REMARK    4  A    between atoms: C_8  and  N_25
REMARK    5  A    between atoms: C_11  and  C_24
REMARK    6  A    between atoms: C_12  and  C_23
REMARK    7  A    between atoms: C_14  and  N_15
REMARK    8  A    between atoms: C_16  and  C_18
REMARK    9  A    between atoms: C_28  and  C_32
REMARK                            x       y       z     vdW  Elec       q    Type
REMARK                         _______ _______ _______ _____ _____    ______ ____
ROOT
ATOM      1  C   UNL     1       0.233  -4.684   0.071  0.00  0.00    +0.135 C 
ENDROOT
BRANCH   1   2
ATOM      2  N   UNL     1       1.060  -5.077   1.214  0.00  0.00    -0.320 N 
ATOM      3  C   UNL     1       2.420  -5.308   1.043  0.00  0.00    +0.097 A 
ATOM      4  C   UNL     1       2.990  -5.159  -0.217  0.00  0.00    +0.045 A 
ATOM      5  C   UNL     1       4.345  -5.392  -0.374  0.00  0.00    -0.046 A 
ATOM      6  C   UNL     1       5.086  -5.768   0.739  0.00  0.00    +0.021 A 
ATOM      7  C   UNL     1       4.454  -5.897   1.959  0.00  0.00    +0.084 A 
ATOM      8  N   UNL     1       3.161  -5.663   2.080  0.00  0.00    -0.350 N 
ATOM      9  C   UNL     1       5.001  -5.241  -1.722  0.00  0.00    +0.044 C 
ATOM     10  H   UNL     1       0.658  -5.176   2.092  0.00  0.00    +0.148 HD
ATOM     11  H   UNL     1       2.743  -5.757   2.951  0.00  0.00    +0.166 HD
ENDBRANCH   1   2
BRANCH   1  16
ATOM     12  C   UNL     1       1.087   0.911  -1.093  0.00  0.00    +0.044 C 
ATOM     13  C   UNL     1       0.864  -0.548  -0.790  0.00  0.00    -0.050 A 
ATOM     14  C   UNL     1       0.498  -1.416  -1.801  0.00  0.00    +0.004 A 
ATOM     15  C   UNL     1       0.294  -2.755  -1.523  0.00  0.00    +0.006 A 
ATOM     16  C   UNL     1       0.456  -3.225  -0.233  0.00  0.00    -0.023 A 
ATOM     17  C   UNL     1       0.824  -2.357   0.778  0.00  0.00    +0.006 A 
ATOM     18  C   UNL     1       1.032  -1.019   0.499  0.00  0.00    +0.004 A 
ENDBRANCH   1  16
BRANCH   1  19
ATOM     19  C   UNL     1      -1.220  -4.912   0.399  0.00  0.00    +0.009 A 
ATOM     20  C   UNL     1      -2.072  -5.476  -0.533  0.00  0.00    -0.033 A 
ATOM     21  C   UNL     1      -3.373  -5.668  -0.205  0.00  0.00    -0.008 A 
ATOM     22  S   UNL     1      -3.432  -5.043   1.466  0.00  0.00    -0.078 S 
ATOM     23  C   UNL     1      -1.717  -4.572   1.621  0.00  0.00    +0.078 A 
ATOM     24  C   UNL     1      -4.483  -6.256  -1.037  0.00  0.00    +0.052 C 
ATOM     25  C   UNL     1      -1.562  -5.871  -1.894  0.00  0.00    +0.045 C 
BRANCH  23  26
ATOM     26  N   UNL     1      -1.056  -4.001   2.711  0.00  0.00    -0.273 N 
ATOM     27  C   UNL     1      -1.705  -3.836   3.881  0.00  0.00    +0.284 C 
ATOM     28  O   UNL     1      -2.866  -4.185   3.988  0.00  0.00    -0.266 OA
ATOM     29  H   UNL     1      -0.131  -3.723   2.626  0.00  0.00    +0.156 HD
BRANCH  27  30
ATOM     30  C   UNL     1      -1.011  -3.237   5.026  0.00  0.00    +0.189 A 
ATOM     31  C   UNL     1      -1.546  -3.019   6.263  0.00  0.00    +0.054 A 
ATOM     32  C   UNL     1      -0.536  -2.432   7.041  0.00  0.00    +0.042 A 
ATOM     33  C   UNL     1       0.557  -2.319   6.255  0.00  0.00    +0.196 A 
ATOM     34  O   UNL     1       0.268  -2.810   5.042  0.00  0.00    -0.458 OA
ENDBRANCH  27  30
ENDBRANCH  23  26
ENDBRANCH   1  19
TORSDOF 5
