REMARK  Name = ZINC35639078
REMARK  6 active torsions:
REMARK  status: ('A' for Active; 'I' for Inactive)
REMARK    1  A    between atoms: C_1  and  C_2
REMARK    2  A    between atoms: C_2  and  C_3
REMARK    3  A    between atoms: C_3  and  N_4
REMARK    4  A    between atoms: C_5  and  C_7
REMARK    5  A    between atoms: C_13  and  C_15
REMARK    6  A    between atoms: C_27  and  C_29
REMARK                            x       y       z     vdW  Elec       q    Type
REMARK                         _______ _______ _______ _____ _____    ______ ____
ROOT
ATOM      1  C   UNL     1      -3.093  -4.024  -1.915  0.00  0.00    +0.190 C 
ATOM      2  C   UNL     1      -3.003  -4.842  -3.227  0.00  0.00    +0.194 C 
ATOM      3  O   UNL     1      -3.179  -6.199  -2.759  0.00  0.00    -0.353 OA
ATOM      4  C   UNL     1      -4.152  -6.120  -1.706  0.00  0.00    +0.142 C 
ATOM      5  N   UNL     1      -4.110  -4.763  -1.133  0.00  0.00    -0.255 N 
ATOM      6  C   UNL     1      -4.847  -4.289  -0.109  0.00  0.00    +0.249 C 
ATOM      7  O   UNL     1      -5.680  -4.999   0.420  0.00  0.00    -0.270 OA
ATOM      8  C   UNL     1      -5.544  -6.400  -2.273  0.00  0.00    +0.074 C 
ATOM      9  C   UNL     1      -6.582  -6.283  -1.152  0.00  0.00    +0.112 C 
ATOM     10  N   UNL     1      -6.186  -7.167  -0.047  0.00  0.00    -0.297 N 
ATOM     11  C   UNL     1      -4.836  -7.033   0.516  0.00  0.00    +0.112 C 
ATOM     12  C   UNL     1      -3.814  -7.143  -0.620  0.00  0.00    +0.074 C 
ATOM     13  C   UNL     1      -7.045  -8.084   0.440  0.00  0.00    +0.247 C 
ATOM     14  O   UNL     1      -6.674  -8.877   1.283  0.00  0.00    -0.270 OA
ENDROOT
BRANCH  13  15
ATOM     15  C   UNL     1      -8.438  -8.126  -0.052  0.00  0.00    +0.038 A 
ATOM     16  C   UNL     1      -9.108  -6.940  -0.360  0.00  0.00    +0.014 A 
ATOM     17  C   UNL     1     -10.408  -6.984  -0.818  0.00  0.00    +0.022 A 
ATOM     18  C   UNL     1     -11.050  -8.202  -0.972  0.00  0.00    +0.059 A 
ATOM     19  C   UNL     1     -10.391  -9.382  -0.668  0.00  0.00    +0.060 A 
ATOM     20  C   UNL     1      -9.087  -9.351  -0.215  0.00  0.00    +0.034 A 
ATOM     21 CL   UNL     1     -11.203 -10.904  -0.865  0.00  0.00    -0.082 Cl
ATOM     22 CL   UNL     1     -12.687  -8.249  -1.549  0.00  0.00    -0.082 Cl
ENDBRANCH  13  15
BRANCH   6  23
ATOM     23  C   UNL     1      -4.644  -2.906   0.370  0.00  0.00    +0.037 A 
ATOM     24  C   UNL     1      -3.482  -2.211   0.029  0.00  0.00    +0.016 A 
ATOM     25  C   UNL     1      -3.297  -0.921   0.479  0.00  0.00    +0.039 A 
ATOM     26  C   UNL     1      -4.262  -0.314   1.268  0.00  0.00    +0.123 A 
ATOM     27  C   UNL     1      -5.418  -1.000   1.609  0.00  0.00    +0.039 A 
ATOM     28  C   UNL     1      -5.615  -2.288   1.159  0.00  0.00    +0.016 A 
ATOM     29  F   UNL     1      -4.075   0.950   1.706  0.00  0.00    -0.205 F 
ENDBRANCH   6  23
BRANCH   1  31
ATOM     30  N   UNL     1      -2.647  -1.643  -2.418  0.00  0.00    -0.314 N 
ATOM     31  C   UNL     1      -3.553  -2.616  -2.193  0.00  0.00    +0.236 C 
ATOM     32  O   UNL     1      -4.738  -2.358  -2.214  0.00  0.00    -0.274 OA
ATOM     33  H   UNL     1      -1.700  -1.850  -2.401  0.00  0.00    +0.149 HD
BRANCH  30  34
ATOM     34  C   UNL     1      -3.094  -0.275  -2.688  0.00  0.00    +0.104 C 
BRANCH  34  36
ATOM     35  C   UNL     1      -2.344   2.055  -3.190  0.00  0.00    +0.005 C 
ATOM     36  C   UNL     1      -1.877   0.625  -2.908  0.00  0.00    +0.015 C 
ENDBRANCH  34  36
ENDBRANCH  30  34
ENDBRANCH   1  31
TORSDOF 5
