REMARK  Name = ZINC40616720
REMARK  3 active torsions:
REMARK  status: ('A' for Active; 'I' for Inactive)
REMARK    1  A    between atoms: C_4  and  N_7
REMARK    2  A    between atoms: N_10  and  C_11
REMARK    3  A    between atoms: C_14  and  N_18
REMARK                            x       y       z     vdW  Elec       q    Type
REMARK                         _______ _______ _______ _____ _____    ______ ____
ROOT
ATOM      1  C   UNL     1       4.952  -4.044   0.103  0.00  0.00    +0.036 A 
ATOM      2  C   UNL     1       3.764  -4.763   0.103  0.00  0.00    +0.025 A 
ATOM      3  C   UNL     1       3.792  -6.143   0.091  0.00  0.00    +0.028 A 
ATOM      4  C   UNL     1       5.008  -6.813   0.078  0.00  0.00    +0.069 A 
ATOM      5  C   UNL     1       6.197  -6.095   0.078  0.00  0.00    +0.065 A 
ATOM      6  C   UNL     1       6.169  -4.713   0.085  0.00  0.00    +0.045 A 
ATOM      7 CL   UNL     1       7.718  -6.932   0.062  0.00  0.00    -0.082 Cl
ENDROOT
BRANCH   4   8
ATOM      8  N   UNL     1       5.036  -8.213   0.067  0.00  0.00    -0.206 N 
ATOM      9  C   UNL     1       4.940  -8.963  -1.195  0.00  0.00    +0.131 C 
ATOM     10  C   UNL     1       3.750  -9.918  -1.130  0.00  0.00    +0.022 C 
ATOM     11  C   UNL     1       3.966 -10.978  -0.052  0.00  0.00    +0.026 C 
ATOM     12  C   UNL     1       3.867 -10.334   1.335  0.00  0.00    +0.189 C 
ATOM     13  S   UNL     1       5.186  -9.081   1.479  0.00  0.00    +0.045 S 
ATOM     14  O   UNL     1       6.465  -9.693   1.402  0.00  0.00    -0.155 OA
ATOM     15  O   UNL     1       4.880  -8.156   2.514  0.00  0.00    -0.155 OA
ENDBRANCH   4   8
BRANCH   1  19
ATOM     16  N   UNL     1       3.849  -0.652   0.690  0.00  0.00    -0.269 N 
ATOM     17  C   UNL     1       3.937  -1.994   0.765  0.00  0.00    +0.308 C 
ATOM     18  O   UNL     1       3.126  -2.621   1.419  0.00  0.00    -0.252 OA
ATOM     19  N   UNL     1       4.924  -2.643   0.115  0.00  0.00    -0.269 N 
ATOM     20  H   UNL     1       4.449  -0.158   0.110  0.00  0.00    +0.156 HD
ATOM     21  H   UNL     1       5.614  -2.139  -0.344  0.00  0.00    +0.156 HD
BRANCH  16  25
ATOM     22  C   UNL     1       1.002   1.380   2.954  0.00  0.00    +0.000 A 
ATOM     23  C   UNL     1       1.582   0.226   3.449  0.00  0.00    +0.002 A 
ATOM     24  C   UNL     1       2.526  -0.450   2.701  0.00  0.00    +0.023 A 
ATOM     25  C   UNL     1       2.893   0.030   1.451  0.00  0.00    +0.035 A 
ATOM     26  C   UNL     1       2.308   1.189   0.956  0.00  0.00    +0.023 A 
ATOM     27  C   UNL     1       1.365   1.860   1.709  0.00  0.00    +0.002 A 
ENDBRANCH  16  25
ENDBRANCH   1  19
TORSDOF 3
