REMARK  Name = ZINC16607482
REMARK  14 active torsions:
REMARK  status: ('A' for Active; 'I' for Inactive)
REMARK    1  A    between atoms: C_1  and  C_2
REMARK    2  A    between atoms: C_2  and  C_3
REMARK    3  A    between atoms: C_3  and  C_5
REMARK    4  A    between atoms: C_3  and  C_6
REMARK    5  A    between atoms: C_6  and  C_8
REMARK    6  A    between atoms: C_6  and  N_25
REMARK    7  A    between atoms: C_14  and  C_16
REMARK    8  A    between atoms: C_19  and  N_22
REMARK    9  A    between atoms: N_22  and  C_23
REMARK   10  A    between atoms: N_22  and  C_24
REMARK   11  A    between atoms: N_28  and  C_29
REMARK   12  A    between atoms: C_32  and  C_35
REMARK   13  A    between atoms: C_35  and  C_36
REMARK   14  A    between atoms: C_35  and  C_37
REMARK                            x       y       z     vdW  Elec       q    Type
REMARK                         _______ _______ _______ _____ _____    ______ ____
ROOT
ATOM      1  C   UNL     1       2.349  -3.172   1.067  0.00  0.00    +0.163 C 
ENDROOT
BRANCH   1   2
ATOM      2  C   UNL     1       3.510  -2.807   0.179  0.00  0.00    +0.239 C 
ATOM      3  O   UNL     1       3.513  -1.747  -0.410  0.00  0.00    -0.273 OA
ATOM      4  N   UNL     1       4.546  -3.658   0.039  0.00  0.00    -0.262 N 
ATOM      5  C   UNL     1       5.663  -3.279  -0.695  0.00  0.00    +0.188 A 
ATOM      6  N   UNL     1       5.915  -2.147  -1.339  0.00  0.00    -0.125 NA
ATOM      7  N   UNL     1       6.997  -1.960  -1.961  0.00  0.00    -0.140 NA
ATOM      8  C   UNL     1       7.941  -2.891  -2.019  0.00  0.00    +0.134 A 
ATOM      9  S   UNL     1       7.168  -4.182  -1.048  0.00  0.00    -0.030 S 
ATOM     10  H   UNL     1       4.511  -4.536   0.452  0.00  0.00    +0.157 HD
BRANCH   8  11
ATOM     11  C   UNL     1       9.257  -2.869  -2.694  0.00  0.00    +0.009 A 
ATOM     12  C   UNL     1      10.102  -3.977  -2.615  0.00  0.00    +0.012 A 
ATOM     13  C   UNL     1      11.325  -3.955  -3.250  0.00  0.00    +0.024 A 
ATOM     14  C   UNL     1      11.722  -2.826  -3.958  0.00  0.00    +0.029 A 
ATOM     15  C   UNL     1      10.885  -1.719  -4.033  0.00  0.00    +0.024 A 
ATOM     16  C   UNL     1       9.658  -1.737  -3.406  0.00  0.00    +0.012 A 
BRANCH  14  17
ATOM     17  N   UNL     1      12.964  -2.805  -4.594  0.00  0.00    -0.336 N 
ATOM     18  C   UNL     1      13.384  -1.617  -5.340  0.00  0.00    +0.129 C 
ATOM     19  C   UNL     1      13.848  -3.971  -4.516  0.00  0.00    +0.129 C 
ENDBRANCH  14  17
ENDBRANCH   8  11
ENDBRANCH   1   2
BRANCH   1  20
ATOM     20  N   UNL     1       1.372  -2.081   1.067  0.00  0.00    -0.288 N 
ATOM     21  C   UNL     1       0.053  -2.357   1.089  0.00  0.00    +0.304 C 
ATOM     22  O   UNL     1      -0.325  -3.508   1.191  0.00  0.00    -0.252 OA
ATOM     23  N   UNL     1      -0.847  -1.358   0.997  0.00  0.00    -0.269 N 
ATOM     24  H   UNL     1       1.674  -1.159   1.052  0.00  0.00    +0.151 HD
ATOM     25  H   UNL     1      -0.548  -0.435   0.991  0.00  0.00    +0.156 HD
BRANCH  23  26
ATOM     26  C   UNL     1      -2.212  -1.652   0.905  0.00  0.00    +0.035 A 
ATOM     27  C   UNL     1      -2.635  -2.789   0.231  0.00  0.00    +0.023 A 
ATOM     28  C   UNL     1      -3.983  -3.079   0.146  0.00  0.00    +0.006 A 
ATOM     29  C   UNL     1      -4.911  -2.232   0.722  0.00  0.00    -0.045 A 
ATOM     30  C   UNL     1      -4.493  -1.095   1.390  0.00  0.00    +0.006 A 
ATOM     31  C   UNL     1      -3.147  -0.803   1.483  0.00  0.00    +0.023 A 
BRANCH  29  32
ATOM     32  C   UNL     1      -6.381  -2.548   0.623  0.00  0.00    +0.013 C 
ATOM     33  C   UNL     1      -6.793  -2.601  -0.849  0.00  0.00    +0.012 C 
ATOM     34  C   UNL     1      -6.657  -3.902   1.279  0.00  0.00    +0.012 C 
ENDBRANCH  29  32
ENDBRANCH  23  26
ENDBRANCH   1  20
BRANCH   1  35
ATOM     35  C   UNL     1       2.852  -3.406   2.493  0.00  0.00    +0.015 C 
ATOM     36  C   UNL     1       1.707  -3.941   3.357  0.00  0.00    +0.010 C 
BRANCH  35  38
ATOM     37  C   UNL     1       4.611  -1.641   2.321  0.00  0.00    +0.004 C 
ATOM     38  C   UNL     1       3.359  -2.087   3.079  0.00  0.00    +0.002 C 
ENDBRANCH  35  38
ENDBRANCH   1  35
TORSDOF 8
