REMARK  Name = ZINC52636734
REMARK  4 active torsions:
REMARK  status: ('A' for Active; 'I' for Inactive)
REMARK    1  A    between atoms: C_1  and  C_2
REMARK    2  A    between atoms: N_8  and  S_9
REMARK    3  A    between atoms: S_9  and  C_12
REMARK    4  A    between atoms: C_23  and  C_25
REMARK                            x       y       z     vdW  Elec       q    Type
REMARK                         _______ _______ _______ _____ _____    ______ ____
ROOT
ATOM      1  C   UNL     1      -0.232   2.386   0.595  0.00  0.00    +0.027 C 
ATOM      2  C   UNL     1       0.144   0.916   0.398  0.00  0.00    +0.094 C 
ATOM      3  C   UNL     1      -1.125   0.088   0.159  0.00  0.00    +0.128 C 
ATOM      4  N   UNL     1      -1.886   0.021   1.414  0.00  0.00    -0.295 N 
ATOM      5  C   UNL     1      -1.217  -0.482   2.622  0.00  0.00    +0.125 C 
ATOM      6  C   UNL     1       0.051   0.346   2.862  0.00  0.00    +0.129 C 
ATOM      7  N   UNL     1       0.816   0.414   1.605  0.00  0.00    -0.171 NA
ATOM      8  C   UNL     1      -3.174   0.415   1.457  0.00  0.00    +0.247 C 
ATOM      9  O   UNL     1      -3.814   0.291   2.483  0.00  0.00    -0.270 OA
ENDROOT
BRANCH   8  10
ATOM     10  C   UNL     1      -3.809   0.998   0.256  0.00  0.00    +0.037 A 
ATOM     11  C   UNL     1      -3.738   0.331  -0.968  0.00  0.00    +0.013 A 
ATOM     12  C   UNL     1      -4.333   0.880  -2.085  0.00  0.00    +0.001 A 
ATOM     13  C   UNL     1      -4.999   2.090  -1.994  0.00  0.00    +0.000 A 
ATOM     14  C   UNL     1      -5.073   2.756  -0.784  0.00  0.00    +0.001 A 
ATOM     15  C   UNL     1      -4.487   2.215   0.342  0.00  0.00    +0.013 A 
ENDBRANCH   8  10
BRANCH   7  16
ATOM     16  S   UNL     1       2.399  -0.070   1.548  0.00  0.00    +0.060 S 
ATOM     17  O   UNL     1       2.584  -0.980   2.623  0.00  0.00    -0.153 OA
ATOM     18  O   UNL     1       2.668  -0.421   0.198  0.00  0.00    -0.153 OA
BRANCH  16  19
ATOM     19  C   UNL     1       3.389   1.343   1.908  0.00  0.00    +0.111 C 
ATOM     20  C   UNL     1       4.120   1.560   3.022  0.00  0.00    +0.028 A 
ATOM     21  C   UNL     1       4.359   0.790   4.248  0.00  0.00    +0.051 A 
ATOM     22  C   UNL     1       5.171   1.313   5.196  0.00  0.00    +0.132 A 
ATOM     23  N   UNL     1       5.768   2.495   5.074  0.00  0.00    -0.222 NA
ATOM     24  C   UNL     1       5.645   3.282   4.042  0.00  0.00    +0.154 A 
ATOM     25  C   UNL     1       4.797   2.875   2.910  0.00  0.00    +0.082 A 
ATOM     26  N   UNL     1       4.496   3.445   1.776  0.00  0.00    -0.376 N 
ATOM     27  C   UNL     1       3.597   2.557   1.028  0.00  0.00    +0.170 C 
ATOM     28 CL   UNL     1       6.477   4.805   4.003  0.00  0.00    -0.060 Cl
ATOM     29 CL   UNL     1       5.447   0.396   6.643  0.00  0.00    -0.062 Cl
ATOM     30  H   UNL     1       4.816   4.310   1.474  0.00  0.00    +0.160 HD
ENDBRANCH  16  19
ENDBRANCH   7  16
TORSDOF 3
