REMARK  Name = ZINC44441780
REMARK  10 active torsions:
REMARK  status: ('A' for Active; 'I' for Inactive)
REMARK    1  A    between atoms: C_1  and  S_2
REMARK    2  A    between atoms: S_2  and  N_5
REMARK    3  A    between atoms: N_5  and  C_6
REMARK    4  A    between atoms: C_10  and  N_12
REMARK    5  A    between atoms: C_13  and  C_15
REMARK    6  A    between atoms: C_15  and  C_16
REMARK    7  A    between atoms: C_19  and  S_21
REMARK    8  A    between atoms: S_21  and  C_22
REMARK    9  A    between atoms: C_22  and  C_23
REMARK   10  A    between atoms: N_25  and  C_26
REMARK                            x       y       z     vdW  Elec       q    Type
REMARK                         _______ _______ _______ _____ _____    ______ ____
ROOT
ATOM      1  C   UNL     1       8.930  -1.358  -3.683  0.00  0.00    +0.058 A 
ATOM      2  C   UNL     1      10.004  -2.094  -3.307  0.00  0.00    +0.071 A 
ATOM      3  S   UNL     1      11.325  -0.930  -3.603  0.00  0.00    -0.069 S 
ATOM      4  C   UNL     1      10.387   0.350  -4.165  0.00  0.00    +0.135 A 
ATOM      5  N   UNL     1       9.163  -0.132  -4.115  0.00  0.00    -0.237 NA
ENDROOT
BRANCH   1   6
ATOM      6  C   UNL     1       7.532  -1.917  -3.616  0.00  0.00    +0.152 C 
BRANCH   6   8
ATOM      7  N   UNL     1       5.363  -1.297  -2.602  0.00  0.00    -0.285 N 
ATOM      8  C   UNL     1       6.662  -0.998  -2.798  0.00  0.00    +0.223 C 
ATOM      9  O   UNL     1       7.131   0.012  -2.316  0.00  0.00    -0.275 OA
ATOM     10  H   UNL     1       5.006  -2.140  -2.922  0.00  0.00    +0.155 HD
BRANCH   7  15
ATOM     11  C   UNL     1       2.664   0.042  -0.486  0.00  0.00    +0.049 A 
ATOM     12  C   UNL     1       2.882   1.408  -0.620  0.00  0.00    +0.024 A 
ATOM     13  C   UNL     1       3.919   1.869  -1.408  0.00  0.00    +0.004 A 
ATOM     14  C   UNL     1       4.742   0.974  -2.066  0.00  0.00    +0.023 A 
ATOM     15  C   UNL     1       4.529  -0.392  -1.936  0.00  0.00    +0.035 A 
ATOM     16  C   UNL     1       3.492  -0.859  -1.140  0.00  0.00    +0.047 A 
BRANCH  11  17
ATOM     17  N   UNL     1       1.615  -0.423   0.311  0.00  0.00    -0.221 N 
ATOM     18  H   UNL     1       1.029  -1.122  -0.019  0.00  0.00    +0.173 HD
BRANCH  17  20
ATOM     19  C   UNL     1       2.882  -0.184   2.743  0.00  0.00    +0.218 C 
ATOM     20  S   UNL     1       1.374   0.217   1.819  0.00  0.00    +0.040 S 
ATOM     21  O   UNL     1       0.270  -0.505   2.346  0.00  0.00    -0.155 OA
ATOM     22  O   UNL     1       1.288   1.620   1.607  0.00  0.00    -0.155 OA
ENDBRANCH  17  20
ENDBRANCH  11  17
ENDBRANCH   7  15
ENDBRANCH   6   8
ENDBRANCH   1   6
BRANCH   4  23
ATOM     23  S   UNL     1      10.916   1.944  -4.697  0.00  0.00    -0.089 S 
BRANCH  23  24
ATOM     24  C   UNL     1      12.719   1.896  -4.502  0.00  0.00    +0.172 C 
BRANCH  24  25
ATOM     25  C   UNL     1      13.306   3.217  -4.929  0.00  0.00    +0.227 C 
ATOM     26  O   UNL     1      12.580   4.104  -5.325  0.00  0.00    -0.275 OA
ATOM     27  N   UNL     1      14.638   3.413  -4.870  0.00  0.00    -0.285 N 
ATOM     28  H   UNL     1      15.226   2.680  -4.627  0.00  0.00    +0.155 HD
BRANCH  27  29
ATOM     29  C   UNL     1      15.174   4.674  -5.159  0.00  0.00    +0.034 A 
ATOM     30  C   UNL     1      16.416   4.778  -5.770  0.00  0.00    +0.026 A 
ATOM     31  C   UNL     1      16.942   6.023  -6.054  0.00  0.00    +0.040 A 
ATOM     32  C   UNL     1      16.233   7.167  -5.729  0.00  0.00    +0.124 A 
ATOM     33  C   UNL     1      14.994   7.065  -5.119  0.00  0.00    +0.040 A 
ATOM     34  C   UNL     1      14.461   5.822  -4.839  0.00  0.00    +0.026 A 
ATOM     35  F   UNL     1      16.750   8.384  -6.007  0.00  0.00    -0.205 F 
ENDBRANCH  27  29
ENDBRANCH  24  25
ENDBRANCH  23  24
ENDBRANCH   4  23
TORSDOF 9
