REMARK  Name = ZINC05004354
REMARK  10 active torsions:
REMARK  status: ('A' for Active; 'I' for Inactive)
REMARK    1  A    between atoms: C_3  and  O_36
REMARK    2  A    between atoms: C_4  and  O_35
REMARK    3  A    between atoms: C_6  and  C_7
REMARK    4  A    between atoms: C_9  and  O_34
REMARK    5  A    between atoms: C_13  and  O_33
REMARK    6  A    between atoms: C_15  and  O_19
REMARK    7  A    between atoms: O_19  and  C_20
REMARK    8  A    between atoms: C_22  and  O_32
REMARK    9  A    between atoms: C_24  and  O_31
REMARK   10  A    between atoms: C_26  and  O_30
REMARK                            x       y       z     vdW  Elec       q    Type
REMARK                         _______ _______ _______ _____ _____    ______ ____
ROOT
ATOM      1  C   UNL     1      -1.294  -0.774   0.010  0.00  0.00    +0.232 C 
ATOM      2  C   UNL     1      -1.822  -0.910  -1.423  0.00  0.00    +0.164 C 
ATOM      3  C   UNL     1      -3.076  -1.788  -1.391  0.00  0.00    +0.078 C 
ATOM      4  C   UNL     1      -4.004  -1.308  -0.304  0.00  0.00    +0.038 A 
ATOM      5  C   UNL     1      -5.336  -1.705  -0.341  0.00  0.00    +0.127 A 
ATOM      6  C   UNL     1      -6.217  -1.286   0.643  0.00  0.00    +0.091 A 
ATOM      7  C   UNL     1      -5.767  -0.469   1.670  0.00  0.00    +0.131 A 
ATOM      8  C   UNL     1      -4.441  -0.073   1.706  0.00  0.00    +0.092 A 
ATOM      9  C   UNL     1      -3.556  -0.490   0.717  0.00  0.00    +0.132 A 
ATOM     10  O   UNL     1      -2.266  -0.070   0.785  0.00  0.00    -0.481 OA
ENDROOT
BRANCH   1  16
ATOM     11  C   UNL     1      -0.017   1.378   0.010  0.00  0.00    +0.011 A 
ATOM     12  C   UNL     1       1.170   2.089   0.002  0.00  0.00    +0.049 A 
ATOM     13  C   UNL     1       2.380   1.415  -0.013  0.00  0.00    +0.158 A 
ATOM     14  C   UNL     1       2.399   0.024  -0.021  0.00  0.00    +0.159 A 
ATOM     15  C   UNL     1       1.207  -0.682  -0.013  0.00  0.00    +0.056 A 
ATOM     16  C   UNL     1       0.002  -0.004   0.002  0.00  0.00    -0.001 A 
BRANCH  14  17
ATOM     17  O   UNL     1       3.585  -0.642  -0.036  0.00  0.00    -0.503 OA
ATOM     18  H   UNL     1       3.937  -0.839   0.843  0.00  0.00    +0.292 HD
ENDBRANCH  14  17
BRANCH  13  19
ATOM     19  O   UNL     1       3.548   2.113  -0.021  0.00  0.00    -0.503 OA
ATOM     20  H   UNL     1       3.894   2.310   0.860  0.00  0.00    +0.292 HD
ENDBRANCH  13  19
ENDBRANCH   1  16
BRANCH   5  21
ATOM     21  O   UNL     1      -5.777  -2.506  -1.346  0.00  0.00    -0.506 OA
ATOM     22  H   UNL     1      -5.705  -3.452  -1.156  0.00  0.00    +0.292 HD
ENDBRANCH   5  21
BRANCH   2  23
ATOM     23  O   UNL     1      -0.827  -1.520  -2.248  0.00  0.00    -0.387 OA
ATOM     24  H   UNL     1      -1.097  -1.637  -3.169  0.00  0.00    +0.210 HD
ENDBRANCH   2  23
BRANCH   7  25
ATOM     25  O   UNL     1      -6.627  -0.057   2.638  0.00  0.00    -0.461 OA
BRANCH  25  26
ATOM     26  C   UNL     1      -7.981  -0.504   2.537  0.00  0.00    +0.339 C 
ATOM     27  C   UNL     1      -8.845   0.248   3.552  0.00  0.00    +0.214 C 
ATOM     28  C   UNL     1     -10.281  -0.279   3.479  0.00  0.00    +0.180 C 
ATOM     29  C   UNL     1     -10.272  -1.790   3.730  0.00  0.00    +0.171 C 
ATOM     30  C   UNL     1      -9.353  -2.464   2.707  0.00  0.00    +0.198 C 
ATOM     31  O   UNL     1      -8.041  -1.906   2.807  0.00  0.00    -0.337 OA
BRANCH  29  32
ATOM     32  O   UNL     1      -9.792  -2.053   5.050  0.00  0.00    -0.387 OA
ATOM     33  H   UNL     1      -9.760  -2.992   5.277  0.00  0.00    +0.210 HD
ENDBRANCH  29  32
BRANCH  28  34
ATOM     34  O   UNL     1     -11.079   0.367   4.473  0.00  0.00    -0.386 OA
ATOM     35  H   UNL     1     -12.002   0.080   4.484  0.00  0.00    +0.210 HD
ENDBRANCH  28  34
BRANCH  27  36
ATOM     36  O   UNL     1      -8.325   0.041   4.867  0.00  0.00    -0.383 OA
ATOM     37  H   UNL     1      -7.416   0.348   4.984  0.00  0.00    +0.210 HD
ENDBRANCH  27  36
ENDBRANCH  25  26
ENDBRANCH   7  25
TORSDOF 10
