REMARK  Name = ZINC36702637
REMARK  12 active torsions:
REMARK  status: ('A' for Active; 'I' for Inactive)
REMARK    1  A    between atoms: C_1  and  C_2
REMARK    2  A    between atoms: C_2  and  N_3
REMARK    3  A    between atoms: N_3  and  C_4
REMARK    4  A    between atoms: N_3  and  C_6
REMARK    5  A    between atoms: C_4  and  C_5
REMARK    6  A    between atoms: C_6  and  C_7
REMARK    7  A    between atoms: C_7  and  N_8
REMARK    8  A    between atoms: C_12  and  O_19
REMARK    9  A    between atoms: O_19  and  C_20
REMARK   10  A    between atoms: C_21  and  C_23
REMARK   11  A    between atoms: C_32  and  O_33
REMARK   12  A    between atoms: O_33  and  C_34
REMARK                            x       y       z     vdW  Elec       q    Type
REMARK                         _______ _______ _______ _____ _____    ______ ____
ROOT
ATOM      1  N   UNL     1       1.837  -3.815  -3.421  0.00  0.00    -0.248 N 
ATOM      2  C   UNL     1       0.894  -4.390  -4.256  0.00  0.00    +0.168 A 
ATOM      3  N   UNL     1       0.403  -5.607  -4.228  0.00  0.00    -0.221 NA
ATOM      4  C   UNL     1      -0.522  -6.037  -5.114  0.00  0.00    +0.123 A 
ATOM      5  C   UNL     1      -1.129  -7.316  -5.195  0.00  0.00    +0.147 A 
ATOM      6  C   UNL     1      -2.061  -7.590  -6.168  0.00  0.00    +0.049 A 
ATOM      7  C   UNL     1      -2.438  -6.633  -7.099  0.00  0.00    +0.025 A 
ATOM      8  C   UNL     1      -1.865  -5.375  -7.048  0.00  0.00    +0.057 A 
ATOM      9  C   UNL     1      -0.932  -5.091  -6.078  0.00  0.00    +0.063 A 
ATOM     10  S   UNL     1       0.029  -3.662  -5.640  0.00  0.00    -0.050 S 
ATOM     11 CL   UNL     1      -2.321  -4.161  -8.202  0.00  0.00    -0.082 Cl
ATOM     12  C   UNL     1       2.381  -4.536  -2.420  0.00  0.00    +0.256 C 
ATOM     13  O   UNL     1       2.067  -5.701  -2.270  0.00  0.00    -0.269 OA
ENDROOT
BRANCH  12  14
ATOM     14  C   UNL     1       3.358  -3.912  -1.508  0.00  0.00    +0.079 A 
ATOM     15  C   UNL     1       3.233  -2.572  -1.177  0.00  0.00    +0.025 A 
ATOM     16  C   UNL     1       4.164  -1.985  -0.309  0.00  0.00    -0.017 A 
ATOM     17  C   UNL     1       4.067  -0.628   0.049  0.00  0.00    +0.008 A 
ATOM     18  C   UNL     1       4.986  -0.087   0.894  0.00  0.00    +0.001 A 
ATOM     19  C   UNL     1       6.026  -0.857   1.413  0.00  0.00    +0.001 A 
ATOM     20  C   UNL     1       6.152  -2.173   1.089  0.00  0.00    +0.008 A 
ATOM     21  C   UNL     1       5.222  -2.770   0.220  0.00  0.00    -0.014 A 
ATOM     22  C   UNL     1       5.327  -4.126  -0.132  0.00  0.00    +0.055 A 
ATOM     23  C   UNL     1       4.411  -4.685  -0.973  0.00  0.00    +0.133 A 
BRANCH  23  24
ATOM     24  O   UNL     1       4.516  -5.997  -1.304  0.00  0.00    -0.494 OA
ATOM     25  C   UNL     1       5.603  -6.726  -0.730  0.00  0.00    +0.277 C 
ENDBRANCH  23  24
ENDBRANCH  12  14
BRANCH   5  26
ATOM     26  O   UNL     1      -0.786  -8.282  -4.301  0.00  0.00    -0.493 OA
ATOM     27  C   UNL     1      -1.432  -9.549  -4.435  0.00  0.00    +0.277 C 
ENDBRANCH   5  26
BRANCH   1  28
ATOM     28  C   UNL     1       2.244  -2.422  -3.625  0.00  0.00    +0.097 C 
BRANCH  28  29
ATOM     29  C   UNL     1       1.075  -1.495  -3.288  0.00  0.00    -0.059 C 
BRANCH  29  30
ATOM     30  N   UNL     1       1.507  -0.097  -3.414  0.00  0.00    +0.380 N 
ATOM     31  H   UNL     1       2.301   0.066  -2.813  0.00  0.00    -0.082 HD
BRANCH  30  33
ATOM     32  C   UNL     1       2.452   1.593  -4.915  0.00  0.00    -0.017 C 
ATOM     33  C   UNL     1       1.884   0.176  -4.807  0.00  0.00    -0.082 C 
ENDBRANCH  30  33
BRANCH  30  34
ATOM     34  C   UNL     1       0.406   0.793  -3.022  0.00  0.00    -0.082 C 
ATOM     35  C   UNL     1       0.117   0.620  -1.529  0.00  0.00    -0.017 C 
ENDBRANCH  30  34
ENDBRANCH  29  30
ENDBRANCH  28  29
ENDBRANCH   1  28
TORSDOF 8
