REMARK  Name = ZINC20208021
REMARK  6 active torsions:
REMARK  status: ('A' for Active; 'I' for Inactive)
REMARK    1  A    between atoms: C_1  and  S_2
REMARK    2  A    between atoms: S_2  and  C_5
REMARK    3  A    between atoms: C_11  and  C_12
REMARK    4  A    between atoms: C_15  and  O_19
REMARK    5  A    between atoms: O_19  and  C_20
REMARK    6  A    between atoms: C_20  and  C_21
REMARK                            x       y       z     vdW  Elec       q    Type
REMARK                         _______ _______ _______ _____ _____    ______ ____
ROOT
ATOM      1  C   UNL     1       8.117   2.799  -8.804  0.00  0.00    +0.235 C 
ATOM      2  N   UNL     1       7.841   2.440  -7.583  0.00  0.00    -0.145 NA
ATOM      3  N   UNL     1       6.782   1.602  -7.307  0.00  0.00    -0.150 N 
ATOM      4  C   UNL     1       6.342   1.224  -6.019  0.00  0.00    +0.153 C 
ATOM      5  N   UNL     1       6.593   1.920  -4.943  0.00  0.00    -0.283 NA
ATOM      6  C   UNL     1       5.563  -0.046  -6.010  0.00  0.00    +0.081 C 
ATOM      7  C   UNL     1       5.612  -0.919  -4.947  0.00  0.00    +0.024 C 
ATOM      8  C   UNL     1       4.733  -0.320  -7.209  0.00  0.00    +0.273 C 
ATOM      9  O   UNL     1       3.750  -1.040  -7.141  0.00  0.00    -0.268 OA
ATOM     10  N   UNL     1       5.095   0.249  -8.375  0.00  0.00    -0.152 NA
ATOM     11  C   UNL     1       6.077   1.116  -8.387  0.00  0.00    +0.182 C 
ATOM     12  S   UNL     1       6.854   1.952  -9.744  0.00  0.00    -0.015 S 
ATOM     13  H   UNL     1       7.165   2.702  -4.993  0.00  0.00    +0.188 HD
ENDROOT
BRANCH   7  14
ATOM     14  C   UNL     1       6.578  -0.705  -3.867  0.00  0.00    -0.023 A 
ATOM     15  C   UNL     1       6.238  -1.022  -2.544  0.00  0.00    +0.011 A 
ATOM     16  C   UNL     1       7.141  -0.821  -1.540  0.00  0.00    +0.048 A 
ATOM     17  C   UNL     1       8.400  -0.303  -1.822  0.00  0.00    +0.139 A 
ATOM     18  C   UNL     1       8.750   0.016  -3.131  0.00  0.00    +0.083 A 
ATOM     19  C   UNL     1       7.850  -0.187  -4.153  0.00  0.00    +0.031 A 
ATOM     20 CL   UNL     1      10.324   0.663  -3.475  0.00  0.00    -0.080 Cl
BRANCH  17  21
ATOM     21  O   UNL     1       9.291  -0.107  -0.817  0.00  0.00    -0.486 OA
BRANCH  21  22
ATOM     22  C   UNL     1       8.867  -0.455   0.503  0.00  0.00    +0.266 C 
BRANCH  22  23
ATOM     23  C   UNL     1       9.980  -0.171   1.479  0.00  0.00    +0.008 A 
ATOM     24  C   UNL     1      11.177   0.354   1.029  0.00  0.00    +0.008 A 
ATOM     25  C   UNL     1      12.197   0.614   1.924  0.00  0.00    +0.000 A 
ATOM     26  C   UNL     1      12.022   0.351   3.270  0.00  0.00    +0.001 A 
ATOM     27  C   UNL     1      10.825  -0.174   3.721  0.00  0.00    +0.020 A 
ATOM     28  C   UNL     1       9.801  -0.430   2.826  0.00  0.00    +0.047 A 
ATOM     29 CL   UNL     1       8.296  -1.082   3.393  0.00  0.00    -0.083 Cl
ENDBRANCH  22  23
ENDBRANCH  21  22
ENDBRANCH  17  21
ENDBRANCH   7  14
BRANCH   1  31
ATOM     30  C   UNL     1      10.751   2.736  -9.852  0.00  0.00    +0.202 C 
ATOM     31  S   UNL     1       9.404   3.856  -9.382  0.00  0.00    +0.019 S 
ATOM     32  O   UNL     1       9.780   4.623  -8.246  0.00  0.00    -0.168 OA
ATOM     33  O   UNL     1       8.865   4.485 -10.536  0.00  0.00    -0.168 OA
ENDBRANCH   1  31
TORSDOF 5
