REMARK  Name = ZINC40804683
REMARK  5 active torsions:
REMARK  status: ('A' for Active; 'I' for Inactive)
REMARK    1  A    between atoms: C_1  and  C_2
REMARK    2  A    between atoms: C_5  and  C_8
REMARK    3  A    between atoms: N_10  and  N_11
REMARK    4  A    between atoms: C_18  and  C_31
REMARK    5  A    between atoms: C_19  and  C_21
REMARK                            x       y       z     vdW  Elec       q    Type
REMARK                         _______ _______ _______ _____ _____    ______ ____
ROOT
ATOM      1  N   UNL     1       0.086  -6.332   1.137  0.00  0.00    -0.184 NA
ATOM      2  C   UNL     1       0.101  -6.987   2.257  0.00  0.00    +0.070 C 
ATOM      3  C   UNL     1       0.091  -6.291   3.610  0.00  0.00    +0.058 C 
ATOM      4  C   UNL     1       1.085  -7.011   4.527  0.00  0.00    +0.014 C 
ATOM      5  C   UNL     1       0.630  -8.448   4.795  0.00  0.00    +0.075 C 
ATOM      6  C   UNL     1       0.371  -9.143   3.483  0.00  0.00    +0.115 A 
ATOM      7  C   UNL     1       0.124  -8.465   2.311  0.00  0.00    +0.042 A 
ATOM      8  C   UNL     1      -0.073  -9.419   1.305  0.00  0.00    +0.009 A 
ATOM      9  C   UNL     1       0.056 -10.640   1.906  0.00  0.00    +0.193 A 
ATOM     10  O   UNL     1       0.330 -10.447   3.219  0.00  0.00    -0.454 OA
ATOM     11  C   UNL     1      -0.367  -9.153  -0.149  0.00  0.00    +0.048 C 
ENDROOT
BRANCH   9  12
ATOM     12  C   UNL     1      -0.070 -11.941   1.239  0.00  0.00    +0.285 C 
ATOM     13  O   UNL     1      -0.309 -11.993   0.047  0.00  0.00    -0.266 OA
ATOM     14  N   UNL     1       0.080 -13.078   1.946  0.00  0.00    -0.264 N 
ATOM     15  C   UNL     1      -0.143 -14.312   1.338  0.00  0.00    +0.125 A 
ATOM     16  C   UNL     1      -0.091 -15.475   2.098  0.00  0.00    +0.045 A 
ATOM     17  C   UNL     1      -0.315 -16.693   1.482  0.00  0.00    +0.025 A 
ATOM     18  C   UNL     1      -0.584 -16.706   0.119  0.00  0.00    +0.059 A 
ATOM     19  C   UNL     1      -0.621 -15.512  -0.575  0.00  0.00    +0.132 A 
ATOM     20  N   UNL     1      -0.409 -14.365   0.042  0.00  0.00    -0.239 NA
ATOM     21 CL   UNL     1      -0.872 -18.208  -0.704  0.00  0.00    -0.082 Cl
ATOM     22  H   UNL     1       0.343 -13.038   2.879  0.00  0.00    +0.157 HD
ENDBRANCH   9  12
BRANCH   1  25
ATOM     23  C   UNL     1       0.049  -4.250  -0.018  0.00  0.00    +0.263 C 
ATOM     24  O   UNL     1       0.053  -4.852  -1.075  0.00  0.00    -0.268 OA
ATOM     25  N   UNL     1       0.065  -4.931   1.145  0.00  0.00    -0.203 N 
ATOM     26  H   UNL     1       0.062  -4.451   1.988  0.00  0.00    +0.178 HD
BRANCH  23  31
ATOM     27  C   UNL     1      -0.037   1.503   0.015  0.00  0.00    +0.044 C 
ATOM     28  C   UNL     1      -0.015  -0.004   0.007  0.00  0.00    -0.050 A 
ATOM     29  C   UNL     1      -0.010  -0.685  -1.197  0.00  0.00    +0.004 A 
ATOM     30  C   UNL     1       0.011  -2.064  -1.213  0.00  0.00    +0.013 A 
ATOM     31  C   UNL     1       0.028  -2.772  -0.010  0.00  0.00    +0.038 A 
ATOM     32  C   UNL     1       0.023  -2.078   1.202  0.00  0.00    +0.013 A 
ATOM     33  C   UNL     1       0.007  -0.699   1.203  0.00  0.00    +0.004 A 
ENDBRANCH  23  31
ENDBRANCH   1  25
TORSDOF 3
