REMARK  Name = ZINC42356208
REMARK  4 active torsions:
REMARK  status: ('A' for Active; 'I' for Inactive)
REMARK    1  A    between atoms: C_1  and  C_2
REMARK    2  A    between atoms: C_3  and  S_18
REMARK    3  A    between atoms: C_10  and  C_13
REMARK    4  A    between atoms: S_18  and  N_21
REMARK                            x       y       z     vdW  Elec       q    Type
REMARK                         _______ _______ _______ _____ _____    ______ ____
ROOT
ATOM      1  C   UNL     1      -0.018   1.503   0.010  0.00  0.00    +0.068 C 
ATOM      2  C   UNL     1       0.002  -0.004   0.002  0.00  0.00    +0.070 A 
ATOM      3  C   UNL     1       0.008  -0.797  -1.094  0.00  0.00    +0.146 A 
ATOM      4  C   UNL     1       0.028  -2.128  -0.664  0.00  0.00    +0.163 A 
ATOM      5  N   UNL     1       0.034  -2.139   0.644  0.00  0.00    -0.171 NA
ATOM      6  N   UNL     1       0.024  -0.812   1.094  0.00  0.00    -0.216 N 
ATOM      7  C   UNL     1       0.031  -0.394   2.428  0.00  0.00    +0.173 A 
ATOM      8  C   UNL     1       0.060  -1.340   3.446  0.00  0.00    +0.086 A 
ATOM      9  C   UNL     1       0.068  -0.912   4.764  0.00  0.00    +0.037 A 
ATOM     10  C   UNL     1       0.046   0.452   5.016  0.00  0.00    +0.074 A 
ATOM     11  C   UNL     1       0.018   1.336   3.955  0.00  0.00    +0.125 A 
ATOM     12  N   UNL     1       0.017   0.898   2.710  0.00  0.00    -0.234 NA
ATOM     13 CL   UNL     1       0.086  -3.035   3.072  0.00  0.00    -0.080 Cl
ENDROOT
BRANCH  10  14
ATOM     14  C   UNL     1       0.053   0.965   6.433  0.00  0.00    +0.419 C 
ATOM     15  F   UNL     1       1.374   1.147   6.857  0.00  0.00    -0.166 F 
ATOM     16  F   UNL     1      -0.628   2.186   6.491  0.00  0.00    -0.166 F 
ATOM     17  F   UNL     1      -0.581   0.038   7.267  0.00  0.00    -0.166 F 
ENDBRANCH  10  14
BRANCH   3  18
ATOM     18  S   UNL     1      -0.007  -0.249  -2.769  0.00  0.00    +0.059 S 
ATOM     19  O   UNL     1       1.005   0.742  -2.881  0.00  0.00    -0.153 OA
ATOM     20  O   UNL     1      -0.022  -1.418  -3.578  0.00  0.00    -0.153 OA
BRANCH  18  21
ATOM     21  N   UNL     1      -1.452   0.519  -3.020  0.00  0.00    -0.203 NA
ATOM     22  H   UNL     1      -1.513   1.240  -3.666  0.00  0.00    +0.144 HD
ATOM     23  H   UNL     1      -2.239   0.247  -2.521  0.00  0.00    +0.144 HD
ENDBRANCH  18  21
ENDBRANCH   3  18
TORSDOF 3
