REMARK  Name = ZINC40629957
REMARK  8 active torsions:
REMARK  status: ('A' for Active; 'I' for Inactive)
REMARK    1  A    between atoms: C_1  and  C_2
REMARK    2  A    between atoms: C_2  and  C_29
REMARK    3  A    between atoms: C_4  and  N_10
REMARK    4  A    between atoms: C_6  and  C_8
REMARK    5  A    between atoms: C_6  and  C_9
REMARK    6  A    between atoms: C_12  and  N_26
REMARK    7  A    between atoms: C_13  and  N_17
REMARK    8  A    between atoms: N_17  and  C_18
REMARK                            x       y       z     vdW  Elec       q    Type
REMARK                         _______ _______ _______ _____ _____    ______ ____
ROOT
ATOM      1  N   UNL     1       0.931  -2.188  -3.014  0.00  0.00    -0.324 N 
ATOM      2  C   UNL     1       1.039  -3.534  -3.329  0.00  0.00    +0.155 A 
ATOM      3  C   UNL     1       1.830  -3.948  -4.397  0.00  0.00    +0.205 A 
ATOM      4  C   UNL     1       1.905  -5.310  -4.671  0.00  0.00    +0.159 A 
ATOM      5  N   UNL     1       1.223  -6.162  -3.908  0.00  0.00    -0.218 NA
ATOM      6  C   UNL     1       0.485  -5.730  -2.905  0.00  0.00    +0.225 A 
ATOM      7  N   UNL     1       0.392  -4.450  -2.610  0.00  0.00    -0.218 NA
ATOM      8  H   UNL     1       1.406  -1.527  -3.542  0.00  0.00    +0.148 HD
ENDROOT
BRANCH   1  12
ATOM      9  C   UNL     1      -1.396   1.683  -1.089  0.00  0.00    -0.010 C 
ATOM     10  C   UNL     1      -1.198   0.158  -0.925  0.00  0.00    -0.072 C 
ATOM     11  C   UNL     1      -0.357  -0.321  -2.104  0.00  0.00    +0.009 C 
ATOM     12  C   UNL     1       0.099  -1.763  -1.881  0.00  0.00    +0.069 C 
ATOM     13  C   UNL     1       0.932  -1.807  -0.600  0.00  0.00    +0.009 C 
ATOM     14  C   UNL     1       0.100  -1.340   0.590  0.00  0.00    -0.072 C 
ATOM     15  N   UNL     1      -0.566  -0.070   0.362  0.00  0.00    +0.386 N 
ATOM     16  C   UNL     1       1.065  -1.158   1.785  0.00  0.00    -0.010 C 
ATOM     17  C   UNL     1      -0.901  -2.432   0.984  0.00  0.00    -0.010 C 
ATOM     18  C   UNL     1      -2.588  -0.484  -0.985  0.00  0.00    -0.010 C 
ATOM     19  H   UNL     1       0.113   0.681   0.523  0.00  0.00    -0.084 HD
ATOM     20  H   UNL     1      -1.273   0.058   1.094  0.00  0.00    -0.084 HD
ENDBRANCH   1  12
BRANCH   3  21
ATOM     21  N   UNL     1       2.571  -2.965  -5.219  0.00  0.00    +0.063 N 
ATOM     22  O   UNL     1       3.696  -2.647  -4.913  0.00  0.00    -0.126 OA
ATOM     23  O   UNL     1       2.050  -2.481  -6.197  0.00  0.00    -0.126 OA
ENDBRANCH   3  21
BRANCH   4  24
ATOM     24  N   UNL     1       2.679  -5.774  -5.725  0.00  0.00    -0.296 N 
ATOM     25  H   UNL     1       3.246  -5.159  -6.218  0.00  0.00    +0.154 HD
BRANCH  24  26
ATOM     26  C   UNL     1       2.642  -7.126  -6.078  0.00  0.00    +0.052 A 
ATOM     27  C   UNL     1       1.519  -7.891  -5.788  0.00  0.00    +0.025 A 
ATOM     28  C   UNL     1       1.485  -9.226  -6.138  0.00  0.00    +0.003 A 
ATOM     29  C   UNL     1       2.567  -9.804  -6.776  0.00  0.00    +0.021 A 
ATOM     30  C   UNL     1       3.688  -9.047  -7.066  0.00  0.00    +0.061 A 
ATOM     31  C   UNL     1       3.727  -7.707  -6.723  0.00  0.00    +0.080 A 
ATOM     32 CL   UNL     1       5.130  -6.755  -7.093  0.00  0.00    -0.080 Cl
ATOM     33 CL   UNL     1       5.044  -9.777  -7.867  0.00  0.00    -0.082 Cl
ENDBRANCH  24  26
ENDBRANCH   4  24
TORSDOF 4
