REMARK  Name = ZINC39620947
REMARK  4 active torsions:
REMARK  status: ('A' for Active; 'I' for Inactive)
REMARK    1  A    between atoms: C_8  and  C_21
REMARK    2  A    between atoms: C_11  and  S_12
REMARK    3  A    between atoms: S_12  and  N_15
REMARK    4  A    between atoms: C_27  and  C_29
REMARK                            x       y       z     vdW  Elec       q    Type
REMARK                         _______ _______ _______ _____ _____    ______ ____
ROOT
ATOM      1  C   UNL     1      -0.767   1.087  -0.917  0.00  0.00    +0.030 A 
ATOM      2  C   UNL     1       0.265   1.946  -1.095  0.00  0.00    +0.026 A 
ATOM      3  C   UNL     1       1.598   1.486  -1.032  0.00  0.00    +0.041 A 
ATOM      4  N   UNL     1       2.603   2.332  -1.206  0.00  0.00    -0.285 N 
ATOM      5  C   UNL     1       3.879   1.969  -1.161  0.00  0.00    +0.222 C 
ATOM      6  O   UNL     1       4.753   2.796  -1.329  0.00  0.00    -0.275 OA
ATOM      7  C   UNL     1       4.243   0.525  -0.900  0.00  0.00    +0.137 C 
ATOM      8  C   UNL     1       3.104  -0.456  -0.699  0.00  0.00    +0.032 C 
ATOM      9  C   UNL     1       1.822   0.048  -0.770  0.00  0.00    +0.007 A 
ATOM     10  C   UNL     1       0.659  -0.821  -0.589  0.00  0.00    +0.038 A 
ATOM     11  C   UNL     1      -0.581  -0.279  -0.668  0.00  0.00    +0.106 A 
ATOM     12  H   UNL     1       2.395   3.265  -1.375  0.00  0.00    +0.155 HD
ENDROOT
BRANCH   8  13
ATOM     13  C   UNL     1       3.356  -1.888  -0.438  0.00  0.00    +0.244 C 
ATOM     14  O   UNL     1       3.559  -2.273   0.696  0.00  0.00    -0.270 OA
ATOM     15  N   UNL     1       3.361  -2.768  -1.459  0.00  0.00    -0.294 N 
ATOM     16  C   UNL     1       3.252  -2.426  -2.889  0.00  0.00    +0.108 C 
ATOM     17  C   UNL     1       3.912  -3.614  -3.633  0.00  0.00    +0.021 C 
ATOM     18  C   UNL     1       3.466  -4.815  -2.759  0.00  0.00    +0.025 C 
ATOM     19  C   UNL     1       3.484  -4.228  -1.332  0.00  0.00    +0.090 C 
BRANCH  19  20
ATOM     20  C   UNL     1       2.305  -4.781  -0.529  0.00  0.00    +0.075 C 
ATOM     21  C   UNL     1       2.359  -4.322   0.952  0.00  0.00    +0.044 C 
ATOM     22  C   UNL     1       1.929  -5.425   1.864  0.00  0.00    -0.019 C 
ATOM     23  C   UNL     1       1.919  -6.670   1.429  0.00  0.00    +0.036 C 
ATOM     24  S   UNL     1       2.457  -6.599  -0.271  0.00  0.00    -0.128 S 
ENDBRANCH  19  20
ENDBRANCH   8  13
BRANCH  11  25
ATOM     25  S   UNL     1      -1.990  -1.315  -0.452  0.00  0.00    +0.061 S 
ATOM     26  O   UNL     1      -1.557  -2.435   0.309  0.00  0.00    -0.153 OA
ATOM     27  O   UNL     1      -3.053  -0.472  -0.029  0.00  0.00    -0.153 OA
BRANCH  25  28
ATOM     28  N   UNL     1      -2.408  -1.891  -1.947  0.00  0.00    -0.172 NA
ATOM     29  C   UNL     1      -3.352  -1.157  -2.804  0.00  0.00    +0.137 C 
ATOM     30  C   UNL     1      -2.723  -1.001  -4.193  0.00  0.00    +0.177 C 
ATOM     31  O   UNL     1      -2.301  -2.283  -4.665  0.00  0.00    -0.377 OA
ATOM     32  C   UNL     1      -1.290  -2.899  -3.863  0.00  0.00    +0.177 C 
ATOM     33  C   UNL     1      -1.842  -3.149  -2.459  0.00  0.00    +0.137 C 
ENDBRANCH  25  28
ENDBRANCH  11  25
TORSDOF 4
