REMARK  Name = ZINC21123380
REMARK  14 active torsions:
REMARK  status: ('A' for Active; 'I' for Inactive)
REMARK    1  A    between atoms: C_1  and  C_2
REMARK    2  A    between atoms: C_2  and  C_4
REMARK    3  A    between atoms: C_2  and  S_17
REMARK    4  A    between atoms: N_6  and  C_7
REMARK    5  A    between atoms: C_10  and  S_13
REMARK    6  A    between atoms: S_13  and  N_16
REMARK    7  A    between atoms: S_17  and  C_18
REMARK    8  A    between atoms: C_21  and  C_26
REMARK    9  A    between atoms: N_22  and  C_23
REMARK   10  A    between atoms: C_23  and  C_24
REMARK   11  A    between atoms: C_29  and  C_32
REMARK   12  A    between atoms: C_32  and  C_33
REMARK   13  A    between atoms: C_32  and  C_34
REMARK   14  A    between atoms: C_32  and  C_35
REMARK                            x       y       z     vdW  Elec       q    Type
REMARK                         _______ _______ _______ _____ _____    ______ ____
ROOT
ATOM      1  S   UNL     1       1.260   1.702  -0.506  0.00  0.00    -0.073 S 
ENDROOT
BRANCH   1   2
ATOM      2  C   UNL     1       2.100   0.912  -1.838  0.00  0.00    +0.193 A 
ATOM      3  N   UNL     1       1.570   0.091  -2.718  0.00  0.00    -0.122 NA
ATOM      4  N   UNL     1       2.465  -0.299  -3.553  0.00  0.00    -0.128 NA
ATOM      5  C   UNL     1       3.623   0.241  -3.254  0.00  0.00    +0.165 A 
ATOM      6  N   UNL     1       3.425   1.033  -2.146  0.00  0.00    -0.298 N 
BRANCH   5   7
ATOM      7  C   UNL     1       4.900   0.037  -3.971  0.00  0.00    +0.019 A 
ATOM      8  C   UNL     1       6.112   0.325  -3.341  0.00  0.00    +0.012 A 
ATOM      9  C   UNL     1       7.300   0.127  -4.013  0.00  0.00    +0.005 A 
ATOM     10  C   UNL     1       7.291  -0.345  -5.314  0.00  0.00    -0.042 A 
ATOM     11  C   UNL     1       6.093  -0.627  -5.947  0.00  0.00    +0.005 A 
ATOM     12  C   UNL     1       4.899  -0.439  -5.283  0.00  0.00    +0.012 A 
BRANCH  10  13
ATOM     13  C   UNL     1       8.593  -0.553  -6.045  0.00  0.00    -0.013 C 
ATOM     14  C   UNL     1       8.619   0.324  -7.299  0.00  0.00    +0.015 C 
ATOM     15  C   UNL     1       9.758  -0.170  -5.131  0.00  0.00    +0.015 C 
ATOM     16  C   UNL     1       8.722  -2.023  -6.448  0.00  0.00    +0.015 C 
ENDBRANCH  10  13
ENDBRANCH   5   7
BRANCH   6  17
ATOM     17  C   UNL     1       4.427   1.839  -1.444  0.00  0.00    +0.152 C 
BRANCH  17  18
ATOM     18  C   UNL     1       4.964   1.062  -0.270  0.00  0.00    -0.013 C 
ATOM     19  C   UNL     1       6.256   0.899  -0.129  0.00  0.00    +0.005 C 
ENDBRANCH  17  18
ENDBRANCH   6  17
ENDBRANCH   1   2
BRANCH   1  21
ATOM     20  C   UNL     1      -0.960   1.575  -2.094  0.00  0.00    +0.029 C 
ATOM     21  C   UNL     1      -0.412   1.056  -0.763  0.00  0.00    +0.137 C 
BRANCH  21  22
ATOM     22  C   UNL     1      -1.305   1.515   0.361  0.00  0.00    +0.230 C 
ATOM     23  O   UNL     1      -1.036   2.525   0.976  0.00  0.00    -0.274 OA
ATOM     24  N   UNL     1      -2.402   0.802   0.683  0.00  0.00    -0.285 N 
ATOM     25  H   UNL     1      -2.600  -0.159   0.185  0.00  0.00    +0.155 HD
BRANCH  24  26
ATOM     26  C   UNL     1      -3.290   1.283   1.652  0.00  0.00    +0.034 A 
ATOM     27  C   UNL     1      -3.952   0.396   2.491  0.00  0.00    +0.025 A 
ATOM     28  C   UNL     1      -4.824   0.875   3.449  0.00  0.00    +0.030 A 
ATOM     29  C   UNL     1      -5.046   2.235   3.567  0.00  0.00    +0.105 A 
ATOM     30  C   UNL     1      -4.392   3.120   2.729  0.00  0.00    +0.030 A 
ATOM     31  C   UNL     1      -3.515   2.648   1.772  0.00  0.00    +0.025 A 
BRANCH  29  32
ATOM     32  S   UNL     1      -6.163   2.841   4.787  0.00  0.00    +0.056 S 
ATOM     33  O   UNL     1      -6.231   1.850   5.803  0.00  0.00    -0.153 OA
ATOM     34  O   UNL     1      -5.782   4.183   5.056  0.00  0.00    -0.153 OA
BRANCH  32  35
ATOM     35  N   UNL     1      -7.663   2.906   4.088  0.00  0.00    -0.204 NA
ATOM     36  H   UNL     1      -8.393   3.281   4.820  0.00  0.00    +0.144 HD
ATOM     37  H   UNL     1      -7.958   1.898   3.759  0.00  0.00    +0.144 HD
ENDBRANCH  32  35
ENDBRANCH  29  32
ENDBRANCH  24  26
ENDBRANCH  21  22
ENDBRANCH   1  21
TORSDOF 10
