REMARK  Name = ZINC39352343
REMARK  2 active torsions:
REMARK  status: ('A' for Active; 'I' for Inactive)
REMARK    1  A    between atoms: C_1  and  C_2
REMARK    2  A    between atoms: C_5  and  C_7
REMARK                            x       y       z     vdW  Elec       q    Type
REMARK                         _______ _______ _______ _____ _____    ______ ____
ROOT
ATOM      1  C   UNL     1       1.684  -3.245  -0.023  0.00  0.00    +0.132 C 
ATOM      2  C   UNL     1       2.694  -3.125   1.127  0.00  0.00    +0.128 C 
ATOM      3  C   UNL     1       3.168  -1.679   1.200  0.00  0.00    +0.057 C 
ATOM      4  C   UNL     1       3.918  -1.444   2.476  0.00  0.00    +0.001 A 
ATOM      5  C   UNL     1       4.830  -0.406   2.551  0.00  0.00    +0.022 A 
ATOM      6  C   UNL     1       5.522  -0.168   3.723  0.00  0.00    +0.018 A 
ATOM      7  C   UNL     1       5.303  -0.969   4.830  0.00  0.00    +0.019 A 
ATOM      8  C   UNL     1       4.397  -2.007   4.760  0.00  0.00    +0.048 A 
ATOM      9  C   UNL     1       3.702  -2.255   3.581  0.00  0.00    +0.135 A 
ATOM     10  O   UNL     1       2.838  -3.307   3.546  0.00  0.00    -0.425 OA
ATOM     11  C   UNL     1       2.063  -3.481   2.452  0.00  0.00    +0.318 C 
ATOM     12  O   UNL     1       0.926  -3.884   2.530  0.00  0.00    -0.250 OA
ATOM     13 BR   UNL     1       6.769   1.251   3.814  0.00  0.00    -0.050 Br
ATOM     14  C   UNL     1       3.905  -1.218  -0.027  0.00  0.00    +0.117 C 
ATOM     15  C   UNL     1       4.001  -2.313  -1.089  0.00  0.00    +0.082 C 
ATOM     16  N   UNL     1       5.198  -2.485  -1.562  0.00  0.00    -0.168 NA
ATOM     17  C   UNL     1       6.297  -1.847  -1.118  0.00  0.00    +0.296 C 
ATOM     18  O   UNL     1       7.418  -1.839  -1.595  0.00  0.00    -0.261 OA
ATOM     19  S   UNL     1       5.692  -0.985   0.356  0.00  0.00    -0.055 S 
ATOM     20  S   UNL     1       2.674  -3.247  -1.558  0.00  0.00    -0.099 S 
ENDROOT
BRANCH   1  25
ATOM     21  C   UNL     1      -0.093   1.448  -0.534  0.00  0.00    +0.086 C 
ATOM     22  C   UNL     1      -0.030  -0.028  -0.235  0.00  0.00    +0.102 A 
ATOM     23  C   UNL     1      -1.049  -0.784   0.213  0.00  0.00    +0.044 A 
ATOM     24  C   UNL     1      -0.551  -2.099   0.356  0.00  0.00    +0.046 A 
ATOM     25  C   UNL     1       0.742  -2.069  -0.013  0.00  0.00    +0.119 A 
ATOM     26  O   UNL     1       1.051  -0.813  -0.375  0.00  0.00    -0.464 OA
ENDBRANCH   1  25
TORSDOF 1
