REMARK  Name = ZINC00711712
REMARK  4 active torsions:
REMARK  status: ('A' for Active; 'I' for Inactive)
REMARK    1  A    between atoms: C_3  and  C_27
REMARK    2  A    between atoms: C_5  and  N_7
REMARK    3  A    between atoms: C_12  and  N_49
REMARK    4  A    between atoms: N_17  and  C_20
REMARK                            x       y       z     vdW  Elec       q    Type
REMARK                         _______ _______ _______ _____ _____    ______ ____
ROOT
ATOM      1  N   UNL     1       1.256  -2.024  -0.163  0.00  0.00    -0.333 N 
ATOM      2  C   UNL     1       2.032  -2.578  -1.282  0.00  0.00    +0.086 C 
ATOM      3  C   UNL     1       2.082  -4.103  -1.159  0.00  0.00    -0.059 C 
ATOM      4  C   UNL     1      -0.063  -4.083  -0.037  0.00  0.00    -0.059 C 
ATOM      5  C   UNL     1      -0.113  -2.558  -0.160  0.00  0.00    +0.086 C 
ATOM      6  N   UNL     1       0.700  -4.628  -1.179  0.00  0.00    +0.390 N 
ATOM      7  H   UNL     1       0.245  -4.338  -2.053  0.00  0.00    -0.081 HD
ENDROOT
BRANCH   6   8
ATOM      8  C   UNL     1       0.719  -6.105  -1.115  0.00  0.00    +0.029 C 
ATOM      9  C   UNL     1       1.441  -6.679  -2.352  0.00  0.00    +0.090 C 
ATOM     10  C   UNL     1       0.367  -7.486  -3.047  0.00  0.00    +0.225 C 
ATOM     11  O   UNL     1       0.513  -8.111  -4.075  0.00  0.00    -0.275 OA
ATOM     12  N   UNL     1      -0.771  -7.399  -2.347  0.00  0.00    -0.212 N 
ATOM     13  C   UNL     1      -0.687  -6.648  -1.242  0.00  0.00    +0.213 C 
ATOM     14  O   UNL     1      -1.594  -6.436  -0.466  0.00  0.00    -0.277 OA
BRANCH  12  15
ATOM     15  C   UNL     1      -1.954  -8.043  -2.739  0.00  0.00    +0.044 A 
ATOM     16  C   UNL     1      -2.462  -9.087  -1.978  0.00  0.00    +0.025 A 
ATOM     17  C   UNL     1      -3.630  -9.716  -2.364  0.00  0.00    +0.022 A 
ATOM     18  C   UNL     1      -4.288  -9.313  -3.512  0.00  0.00    +0.041 A 
ATOM     19  C   UNL     1      -3.780  -8.276  -4.275  0.00  0.00    +0.022 A 
ATOM     20  C   UNL     1      -2.615  -7.641  -3.891  0.00  0.00    +0.025 A 
ATOM     21 CL   UNL     1      -5.752 -10.110  -3.998  0.00  0.00    -0.084 Cl
ENDBRANCH  12  15
ENDBRANCH   6   8
BRANCH   1  26
ATOM     22  C   UNL     1       0.040   1.442  -0.270  0.00  0.00    +0.002 A 
ATOM     23  C   UNL     1       1.236   2.138  -0.279  0.00  0.00    +0.012 A 
ATOM     24  C   UNL     1       2.437   1.454  -0.250  0.00  0.00    +0.057 A 
ATOM     25  C   UNL     1       2.448   0.074  -0.211  0.00  0.00    +0.035 A 
ATOM     26  C   UNL     1       1.249  -0.628  -0.202  0.00  0.00    +0.030 A 
ATOM     27  C   UNL     1       0.044   0.061  -0.231  0.00  0.00    +0.023 A 
BRANCH  24  28
ATOM     28  C   UNL     1       3.737   2.217  -0.260  0.00  0.00    +0.417 C 
ATOM     29  F   UNL     1       4.150   2.416  -1.582  0.00  0.00    -0.166 F 
ATOM     30  F   UNL     1       3.556   3.456   0.363  0.00  0.00    -0.166 F 
ATOM     31  F   UNL     1       4.712   1.486   0.428  0.00  0.00    -0.166 F 
ENDBRANCH  24  28
ENDBRANCH   1  26
TORSDOF 4
