REMARK  Name = ZINC35867598
REMARK  9 active torsions:
REMARK  status: ('A' for Active; 'I' for Inactive)
REMARK    1  A    between atoms: C_1  and  C_2
REMARK    2  A    between atoms: C_11  and  N_19
REMARK    3  A    between atoms: C_13  and  C_15
REMARK    4  A    between atoms: C_15  and  C_16
REMARK    5  A    between atoms: C_16  and  C_17
REMARK    6  A    between atoms: C_16  and  C_18
REMARK    7  A    between atoms: N_27  and  C_28
REMARK    8  A    between atoms: C_31  and  S_34
REMARK    9  A    between atoms: S_34  and  C_35
REMARK                            x       y       z     vdW  Elec       q    Type
REMARK                         _______ _______ _______ _____ _____    ______ ____
ROOT
ATOM      1  C   UNL     1       0.233   0.889   0.136  0.00  0.00    +0.008 C 
ATOM      2  C   UNL     1       0.222  -0.639   0.061  0.00  0.00    -0.009 C 
ATOM      3  C   UNL     1       0.975  -1.098  -1.191  0.00  0.00    +0.008 C 
ATOM      4  C   UNL     1       0.759  -2.596  -1.405  0.00  0.00    +0.037 C 
ATOM      5  C   UNL     1       1.116  -3.337  -0.119  0.00  0.00    -0.025 A 
ATOM      6  C   UNL     1       1.175  -2.677   1.060  0.00  0.00    -0.004 A 
ATOM      7  S   UNL     1       1.617  -3.907   2.262  0.00  0.00    -0.073 S 
ATOM      8  C   UNL     1       1.722  -5.301   1.188  0.00  0.00    +0.114 A 
ATOM      9  C   UNL     1       1.407  -4.761  -0.085  0.00  0.00    +0.051 A 
ATOM     10  C   UNL     1       1.410  -5.665  -1.186  0.00  0.00    +0.133 A 
ATOM     11  N   UNL     1       1.712  -6.929  -0.898  0.00  0.00    -0.217 NA
ATOM     12  C   UNL     1       1.995  -7.361   0.315  0.00  0.00    +0.133 A 
ATOM     13  N   UNL     1       2.010  -6.572   1.383  0.00  0.00    -0.225 NA
ATOM     14  C   UNL     1       0.919  -1.220   1.299  0.00  0.00    +0.046 C 
ENDROOT
BRANCH  10  15
ATOM     15  N   UNL     1       1.118  -5.254  -2.474  0.00  0.00    -0.312 N 
ATOM     16  C   UNL     1       2.193  -5.045  -3.455  0.00  0.00    +0.125 C 
ATOM     17  C   UNL     1       1.899  -5.900  -4.694  0.00  0.00    +0.128 C 
ATOM     18  N   UNL     1       0.508  -5.666  -5.107  0.00  0.00    -0.282 N 
ATOM     19  C   UNL     1      -0.566  -5.875  -4.127  0.00  0.00    +0.128 C 
ATOM     20  C   UNL     1      -0.273  -5.025  -2.889  0.00  0.00    +0.125 C 
ATOM     21  C   UNL     1       0.224  -5.266  -6.362  0.00  0.00    +0.307 C 
ATOM     22  O   UNL     1       1.105  -5.216  -7.199  0.00  0.00    -0.252 OA
ATOM     23  N   UNL     1      -1.037  -4.922  -6.690  0.00  0.00    -0.269 N 
ATOM     24  H   UNL     1      -1.715  -4.848  -6.000  0.00  0.00    +0.156 HD
BRANCH  23  25
ATOM     25  C   UNL     1      -1.370  -4.672  -8.029  0.00  0.00    +0.035 A 
ATOM     26  C   UNL     1      -0.390  -4.257  -8.921  0.00  0.00    +0.024 A 
ATOM     27  C   UNL     1      -0.717  -4.011 -10.240  0.00  0.00    +0.016 A 
ATOM     28  C   UNL     1      -2.026  -4.177 -10.674  0.00  0.00    +0.008 A 
ATOM     29  C   UNL     1      -3.006  -4.592  -9.780  0.00  0.00    +0.016 A 
ATOM     30  C   UNL     1      -2.678  -4.843  -8.463  0.00  0.00    +0.024 A 
BRANCH  28  31
ATOM     31  S   UNL     1      -2.444  -3.862 -12.356  0.00  0.00    -0.129 S 
ATOM     32  C   UNL     1      -4.223  -4.209 -12.439  0.00  0.00    +0.090 C 
ENDBRANCH  28  31
ENDBRANCH  23  25
ENDBRANCH  10  15
BRANCH  12  33
ATOM     33  C   UNL     1       2.318  -8.821   0.498  0.00  0.00    +0.079 C 
BRANCH  33  34
ATOM     34  C   UNL     1       3.824  -9.035   0.334  0.00  0.00    -0.010 C 
ATOM     35  C   UNL     1       4.568  -8.312   1.458  0.00  0.00    +0.007 C 
ATOM     36  C   UNL     1       4.136 -10.531   0.396  0.00  0.00    +0.007 C 
ENDBRANCH  33  34
ENDBRANCH  12  33
TORSDOF 5
