REMARK  Name = ZINC34762479
REMARK  11 active torsions:
REMARK  status: ('A' for Active; 'I' for Inactive)
REMARK    1  A    between atoms: C_1  and  C_2
REMARK    2  A    between atoms: C_2  and  C_3
REMARK    3  A    between atoms: C_4  and  C_36
REMARK    4  A    between atoms: C_8  and  N_21
REMARK    5  A    between atoms: C_10  and  S_12
REMARK    6  A    between atoms: S_12  and  C_13
REMARK    7  A    between atoms: C_13  and  C_14
REMARK    8  A    between atoms: N_24  and  C_27
REMARK    9  A    between atoms: C_27  and  C_28
REMARK   10  A    between atoms: C_30  and  C_35
REMARK   11  A    between atoms: C_33  and  C_34
REMARK                            x       y       z     vdW  Elec       q    Type
REMARK                         _______ _______ _______ _____ _____    ______ ____
ROOT
ATOM      1  C   UNL     1      -1.366  -0.631   0.140  0.00  0.00    -0.025 A 
ATOM      2  C   UNL     1      -1.910  -0.812   1.352  0.00  0.00    -0.007 A 
ATOM      3  S   UNL     1      -3.549  -1.412   0.989  0.00  0.00    -0.073 S 
ATOM      4  C   UNL     1      -3.460  -1.404  -0.782  0.00  0.00    +0.115 A 
ATOM      5  C   UNL     1      -2.156  -0.928  -1.044  0.00  0.00    +0.051 A 
ATOM      6  C   UNL     1      -1.810  -0.815  -2.418  0.00  0.00    +0.134 A 
ATOM      7  N   UNL     1      -2.698  -1.145  -3.340  0.00  0.00    -0.206 NA
ATOM      8  C   UNL     1      -3.912  -1.583  -3.025  0.00  0.00    +0.191 A 
ATOM      9  N   UNL     1      -4.287  -1.718  -1.760  0.00  0.00    -0.214 NA
ATOM     10  C   UNL     1      -1.284  -0.567   2.701  0.00  0.00    +0.052 C 
ENDROOT
BRANCH   6  11
ATOM     11  N   UNL     1      -0.556  -0.363  -2.788  0.00  0.00    -0.318 N 
ATOM     12  C   UNL     1       0.545  -1.306  -3.039  0.00  0.00    +0.088 C 
ATOM     13  C   UNL     1       1.175  -0.968  -4.394  0.00  0.00    -0.059 C 
ATOM     14  N   UNL     1       1.573   0.445  -4.409  0.00  0.00    +0.384 N 
ATOM     15  C   UNL     1       0.385   1.301  -4.301  0.00  0.00    -0.059 C 
ATOM     16  C   UNL     1      -0.286   1.075  -2.947  0.00  0.00    +0.088 C 
ATOM     17  H   UNL     1       2.189   0.628  -3.631  0.00  0.00    -0.081 HD
BRANCH  14  18
ATOM     18  C   UNL     1       2.275   0.741  -5.665  0.00  0.00    -0.043 C 
BRANCH  18  19
ATOM     19  C   UNL     1       2.792   2.156  -5.630  0.00  0.00    -0.061 A 
ATOM     20  C   UNL     1       2.096   3.162  -6.274  0.00  0.00    +0.005 A 
ATOM     21  C   UNL     1       2.570   4.460  -6.243  0.00  0.00    -0.050 A 
ATOM     22  C   UNL     1       3.739   4.753  -5.566  0.00  0.00    +0.003 A 
ATOM     23  C   UNL     1       4.434   3.748  -4.920  0.00  0.00    +0.004 A 
ATOM     24  C   UNL     1       3.958   2.450  -4.949  0.00  0.00    -0.049 A 
ATOM     25  C   UNL     1       4.713   1.355  -4.240  0.00  0.00    +0.044 C 
ATOM     26  C   UNL     1       1.812   5.556  -6.946  0.00  0.00    +0.044 C 
ENDBRANCH  18  19
ENDBRANCH  14  18
ENDBRANCH   6  11
BRANCH   1  28
ATOM     27  C   UNL     1       0.044   1.408   0.093  0.00  0.00    +0.009 C 
ATOM     28  C   UNL     1       0.045  -0.120   0.006  0.00  0.00    +0.033 C 
ENDBRANCH   1  28
BRANCH   8  29
ATOM     29  S   UNL     1      -5.040  -2.004  -4.311  0.00  0.00    -0.077 S 
BRANCH  29  30
ATOM     30  C   UNL     1      -6.532  -2.537  -3.429  0.00  0.00    +0.173 C 
BRANCH  30  31
ATOM     31  C   UNL     1      -7.592  -2.930  -4.425  0.00  0.00    +0.226 C 
ATOM     32  O   UNL     1      -7.363  -2.858  -5.614  0.00  0.00    -0.275 OA
ATOM     33  N   UNL     1      -8.794  -3.363  -3.996  0.00  0.00    -0.301 N 
ATOM     34  C   UNL     1      -9.206  -3.492  -2.591  0.00  0.00    +0.108 C 
ATOM     35  C   UNL     1     -10.647  -4.046  -2.584  0.00  0.00    +0.020 C 
ATOM     36  C   UNL     1     -10.762  -4.730  -3.972  0.00  0.00    +0.020 C 
ATOM     37  C   UNL     1      -9.916  -3.777  -4.858  0.00  0.00    +0.108 C 
ENDBRANCH  30  31
ENDBRANCH  29  30
ENDBRANCH   8  29
TORSDOF 7
