REMARK  Name = ZINC28392082
REMARK  7 active torsions:
REMARK  status: ('A' for Active; 'I' for Inactive)
REMARK    1  A    between atoms: C_1  and  C_2
REMARK    2  A    between atoms: C_2  and  C_3
REMARK    3  A    between atoms: C_3  and  C_5
REMARK    4  A    between atoms: C_3  and  N_20
REMARK    5  A    between atoms: C_5  and  N_6
REMARK    6  A    between atoms: N_9  and  C_10
REMARK    7  A    between atoms: C_10  and  C_11
REMARK                            x       y       z     vdW  Elec       q    Type
REMARK                         _______ _______ _______ _____ _____    ______ ____
ROOT
ATOM      1  N   UNL     1      -2.710  -2.592   0.235  0.00  0.00    -0.301 N 
ATOM      2  C   UNL     1      -2.927  -3.893   0.509  0.00  0.00    +0.300 C 
ATOM      3  O   UNL     1      -2.008  -4.598   0.881  0.00  0.00    -0.253 OA
ATOM      4  N   UNL     1      -4.162  -4.415   0.370  0.00  0.00    -0.295 N 
ATOM      5  H   UNL     1      -3.443  -2.030  -0.061  0.00  0.00    +0.150 HD
ATOM      6  H   UNL     1      -4.895  -3.853   0.073  0.00  0.00    +0.151 HD
ENDROOT
BRANCH   1   7
ATOM      7  C   UNL     1      -1.368  -2.025   0.386  0.00  0.00    +0.090 C 
BRANCH   7   8
ATOM      8  C   UNL     1      -1.354  -0.594  -0.155  0.00  0.00    -0.051 C 
BRANCH   8   9
ATOM      9  N   UNL     1      -1.493  -0.622  -1.617  0.00  0.00    +0.385 N 
ATOM     10  C   UNL     1      -2.766  -1.264  -1.978  0.00  0.00    -0.073 C 
ATOM     11  C   UNL     1      -3.035  -1.012  -3.463  0.00  0.00    +0.017 C 
ATOM     12  C   UNL     1      -1.822  -1.392  -4.273  0.00  0.00    -0.048 A 
ATOM     13  C   UNL     1      -1.965  -1.569  -5.640  0.00  0.00    +0.004 A 
ATOM     14  C   UNL     1      -0.875  -1.914  -6.415  0.00  0.00    +0.000 A 
ATOM     15  C   UNL     1       0.363  -2.083  -5.824  0.00  0.00    +0.000 A 
ATOM     16  C   UNL     1       0.506  -1.908  -4.463  0.00  0.00    +0.002 A 
ATOM     17  C   UNL     1      -0.588  -1.563  -3.682  0.00  0.00    -0.061 A 
ATOM     18  C   UNL     1      -0.389  -1.390  -2.200  0.00  0.00    -0.042 C 
ATOM     19  H   UNL     1      -1.475   0.321  -1.976  0.00  0.00    -0.081 HD
ENDBRANCH   8   9
BRANCH   8  21
ATOM     20  C   UNL     1      -0.050   1.535  -0.255  0.00  0.00    +0.002 C 
ATOM     21  C   UNL     1      -0.033   0.080   0.219  0.00  0.00    -0.017 C 
ENDBRANCH   8  21
ENDBRANCH   7   8
ENDBRANCH   1   7
BRANCH   4  22
ATOM     22  C   UNL     1      -4.398  -5.830   0.668  0.00  0.00    +0.141 C 
BRANCH  22  23
ATOM     23  C   UNL     1      -5.850  -6.157   0.434  0.00  0.00    -0.027 A 
ATOM     24  C   UNL     1      -6.762  -6.021   1.464  0.00  0.00    +0.009 A 
ATOM     25  C   UNL     1      -8.095  -6.320   1.255  0.00  0.00    +0.050 A 
ATOM     26  C   UNL     1      -8.521  -6.757   0.011  0.00  0.00    +0.166 A 
ATOM     27  C   UNL     1      -7.602  -6.894  -1.027  0.00  0.00    +0.167 A 
ATOM     28  C   UNL     1      -6.269  -6.587  -0.811  0.00  0.00    +0.054 A 
ATOM     29  O   UNL     1      -8.262  -7.334  -2.138  0.00  0.00    -0.453 OA
ATOM     30  C   UNL     1      -9.516  -7.855  -1.659  0.00  0.00    +0.466 C 
ATOM     31  O   UNL     1      -9.756  -7.111  -0.450  0.00  0.00    -0.453 OA
ENDBRANCH  22  23
ENDBRANCH   4  22
TORSDOF 6
