REMARK  Name = ZINC35362814
REMARK  5 active torsions:
REMARK  status: ('A' for Active; 'I' for Inactive)
REMARK    1  A    between atoms: C_6  and  C_7
REMARK    2  A    between atoms: C_7  and  N_8
REMARK    3  A    between atoms: C_12  and  C_13
REMARK    4  A    between atoms: C_16  and  O_22
REMARK    5  A    between atoms: C_17  and  N_19
REMARK                            x       y       z     vdW  Elec       q    Type
REMARK                         _______ _______ _______ _____ _____    ______ ____
ROOT
ATOM      1  N   UNL     1      -2.099  -1.266  -1.262  0.00  0.00    -0.224 N 
ATOM      2  C   UNL     1      -2.868  -0.375  -1.865  0.00  0.00    +0.261 C 
ATOM      3  O   UNL     1      -3.455   0.489  -1.241  0.00  0.00    -0.269 OA
ATOM      4  C   UNL     1      -2.978  -0.482  -3.333  0.00  0.00    +0.080 C 
ATOM      5  C   UNL     1      -3.683   0.282  -4.206  0.00  0.00    +0.028 C 
ATOM      6  S   UNL     1      -1.926  -1.893  -3.647  0.00  0.00    -0.026 S 
ATOM      7  C   UNL     1      -1.446  -2.219  -1.958  0.00  0.00    +0.286 C 
ATOM      8  O   UNL     1      -0.710  -3.091  -1.537  0.00  0.00    -0.262 OA
ENDROOT
BRANCH   5   9
ATOM      9  C   UNL     1      -4.350   1.504  -3.739  0.00  0.00    -0.021 A 
ATOM     10  C   UNL     1      -3.716   2.340  -2.811  0.00  0.00    +0.011 A 
ATOM     11  C   UNL     1      -4.346   3.484  -2.377  0.00  0.00    +0.048 A 
ATOM     12  C   UNL     1      -5.609   3.811  -2.857  0.00  0.00    +0.147 A 
ATOM     13  C   UNL     1      -6.243   2.985  -3.778  0.00  0.00    +0.168 A 
ATOM     14  C   UNL     1      -5.620   1.841  -4.224  0.00  0.00    +0.044 A 
BRANCH  13  15
ATOM     15  N   UNL     1      -7.588   3.338  -4.284  0.00  0.00    +0.060 N 
ATOM     16  O   UNL     1      -8.141   2.620  -5.085  0.00  0.00    -0.126 OA
ATOM     17  O   UNL     1      -8.134   4.345  -3.897  0.00  0.00    -0.126 OA
ENDBRANCH  13  15
BRANCH  12  18
ATOM     18  O   UNL     1      -6.226   4.941  -2.425  0.00  0.00    -0.504 OA
ATOM     19  H   UNL     1      -6.036   5.722  -2.962  0.00  0.00    +0.292 HD
ENDBRANCH  12  18
ENDBRANCH   5   9
BRANCH   1  20
ATOM     20  C   UNL     1      -1.948  -1.214   0.194  0.00  0.00    +0.152 C 
BRANCH  20  26
ATOM     21  C   UNL     1      -0.982   1.027   0.750  0.00  0.00    +0.006 A 
ATOM     22  C   UNL     1       0.087   1.842   1.073  0.00  0.00    +0.015 A 
ATOM     23  C   UNL     1       1.355   1.303   1.194  0.00  0.00    +0.018 A 
ATOM     24  C   UNL     1       1.554  -0.050   0.991  0.00  0.00    +0.015 A 
ATOM     25  C   UNL     1       0.484  -0.864   0.667  0.00  0.00    +0.006 A 
ATOM     26  C   UNL     1      -0.783  -0.326   0.547  0.00  0.00    -0.030 A 
ATOM     27 BR   UNL     1       2.818   2.418   1.636  0.00  0.00    -0.050 Br
ENDBRANCH  20  26
ENDBRANCH   1  20
TORSDOF 5
