REMARK  Name = ZINC33342817
REMARK  8 active torsions:
REMARK  status: ('A' for Active; 'I' for Inactive)
REMARK    1  A    between atoms: C_1  and  C_2
REMARK    2  A    between atoms: C_2  and  N_3
REMARK    3  A    between atoms: N_8  and  C_14
REMARK    4  A    between atoms: C_9  and  C_13
REMARK    5  A    between atoms: C_10  and  C_12
REMARK    6  A    between atoms: C_14  and  C_15
REMARK    7  A    between atoms: N_21  and  C_26
REMARK    8  A    between atoms: N_24  and  C_25
REMARK                            x       y       z     vdW  Elec       q    Type
REMARK                         _______ _______ _______ _____ _____    ______ ____
ROOT
ATOM      1  N   UNL     1       1.177   2.569   5.093  0.00  0.00    -0.301 N 
ATOM      2  C   UNL     1       0.699   2.565   3.862  0.00  0.00    +0.268 A 
ATOM      3  O   UNL     1       1.418   2.275   2.918  0.00  0.00    -0.266 OA
ATOM      4  C   UNL     1      -0.649   2.898   3.655  0.00  0.00    +0.107 A 
ATOM      5  C   UNL     1      -1.369   2.962   2.463  0.00  0.00    +0.092 C 
ATOM      6  N   UNL     1      -1.087   2.395   1.244  0.00  0.00    -0.297 N 
ATOM      7  C   UNL     1      -1.949   2.598   0.214  0.00  0.00    +0.018 C 
ATOM      8  C   UNL     1      -3.045   3.342   0.392  0.00  0.00    +0.005 C 
ATOM      9  S   UNL     1      -2.905   3.803   2.111  0.00  0.00    -0.076 S 
ATOM     10  C   UNL     1      -4.121   3.698  -0.602  0.00  0.00    +0.053 C 
ATOM     11  C   UNL     1      -1.665   1.988  -1.135  0.00  0.00    +0.062 C 
ATOM     12  S   UNL     1      -1.194   3.227   5.324  0.00  0.00    -0.062 S 
ATOM     13  C   UNL     1       0.355   2.897   6.150  0.00  0.00    +0.110 A 
ATOM     14  C   UNL     1       0.656   2.962   7.505  0.00  0.00    +0.129 C 
ATOM     15  C   UNL     1      -0.179   2.600   8.570  0.00  0.00    +0.273 C 
ATOM     16  O   UNL     1      -1.316   2.165   8.481  0.00  0.00    -0.268 OA
ATOM     17  N   UNL     1       0.505   2.817   9.710  0.00  0.00    -0.216 N 
ATOM     18  C   UNL     1       1.723   3.305   9.421  0.00  0.00    +0.151 C 
ATOM     19  S   UNL     1       2.917   3.728  10.573  0.00  0.00    -0.017 S 
ATOM     20  N   UNL     1       1.859   3.411   8.085  0.00  0.00    -0.279 N 
ATOM     21  C   UNL     1       3.039   3.901   7.368  0.00  0.00    +0.137 C 
ENDROOT
BRANCH  17  22
ATOM     22  C   UNL     1       0.017   2.576  11.001  0.00  0.00    +0.043 A 
ATOM     23  C   UNL     1      -0.260   1.278  11.409  0.00  0.00    +0.024 A 
ATOM     24  C   UNL     1      -0.737   1.044  12.684  0.00  0.00    +0.002 A 
ATOM     25  C   UNL     1      -0.947   2.101  13.551  0.00  0.00    +0.000 A 
ATOM     26  C   UNL     1      -0.676   3.395  13.146  0.00  0.00    +0.002 A 
ATOM     27  C   UNL     1      -0.195   3.635  11.873  0.00  0.00    +0.024 A 
ENDBRANCH  17  22
BRANCH   1  29
ATOM     28  C   UNL     1       2.879   0.849   4.737  0.00  0.00    +0.027 C 
ATOM     29  C   UNL     1       2.581   2.225   5.335  0.00  0.00    +0.122 C 
ENDBRANCH   1  29
BRANCH   6  30
ATOM     30  C   UNL     1       0.120   1.585   1.059  0.00  0.00    +0.108 C 
ATOM     31  C   UNL     1       1.232   2.455   0.469  0.00  0.00    +0.024 C 
ENDBRANCH   6  30
TORSDOF 3
