REMARK  Name = ZINC38478068
REMARK  1 active torsions:
REMARK  status: ('A' for Active; 'I' for Inactive)
REMARK    1  A    between atoms: C_6  and  N_7
REMARK                            x       y       z     vdW  Elec       q    Type
REMARK                         _______ _______ _______ _____ _____    ______ ____
ROOT
ATOM      1  N   UNL     1      -1.197  -0.723   0.010  0.00  0.00    -0.327 N 
ATOM      2  C   UNL     1      -2.484  -0.025   0.134  0.00  0.00    +0.124 C 
ATOM      3  C   UNL     1      -3.374  -0.424  -1.050  0.00  0.00    +0.125 C 
ATOM      4  N   UNL     1      -3.372  -1.889  -1.165  0.00  0.00    -0.312 N 
ATOM      5  C   UNL     1      -2.085  -2.588  -1.289  0.00  0.00    +0.125 C 
ATOM      6  C   UNL     1      -1.195  -2.188  -0.111  0.00  0.00    +0.124 C 
ATOM      7  C   UNL     1      -4.562  -2.599  -1.157  0.00  0.00    +0.126 A 
ATOM      8  C   UNL     1      -5.785  -1.934  -1.252  0.00  0.00    +0.083 A 
ATOM      9  C   UNL     1      -6.944  -2.688  -1.239  0.00  0.00    +0.134 A 
ATOM     10  N   UNL     1      -6.856  -4.008  -1.139  0.00  0.00    -0.224 NA
ATOM     11  C   UNL     1      -5.685  -4.605  -1.051  0.00  0.00    +0.224 A 
ATOM     12  N   UNL     1      -4.556  -3.926  -1.065  0.00  0.00    -0.221 NA
ATOM     13 CL   UNL     1      -8.495  -1.916  -1.353  0.00  0.00    -0.062 Cl
ENDROOT
BRANCH   1  19
ATOM     14  C   UNL     1       1.217  -0.682   0.000  0.00  0.00    +0.026 A 
ATOM     15  C   UNL     1       2.401   0.028  -0.008  0.00  0.00    +0.040 A 
ATOM     16  C   UNL     1       2.380   1.412  -0.015  0.00  0.00    +0.124 A 
ATOM     17  C   UNL     1       1.172   2.088  -0.013  0.00  0.00    +0.040 A 
ATOM     18  C   UNL     1      -0.015   1.382  -0.004  0.00  0.00    +0.026 A 
ATOM     19  C   UNL     1       0.004  -0.006   0.002  0.00  0.00    +0.030 A 
ATOM     20  F   UNL     1       3.540   2.104  -0.023  0.00  0.00    -0.205 F 
ENDBRANCH   1  19
TORSDOF 1
