REMARK  Name = ZINC50733934
REMARK  3 active torsions:
REMARK  status: ('A' for Active; 'I' for Inactive)
REMARK    1  A    between atoms: C_1  and  C_2
REMARK    2  A    between atoms: C_10  and  C_13
REMARK    3  A    between atoms: C_21  and  C_29
REMARK                            x       y       z     vdW  Elec       q    Type
REMARK                         _______ _______ _______ _____ _____    ______ ____
ROOT
ATOM      1  C   UNL     1       0.142   1.585   0.999  0.00  0.00    +0.044 C 
ATOM      2  C   UNL     1       0.129   0.097   0.762  0.00  0.00    -0.050 A 
ATOM      3  C   UNL     1       0.137  -0.397  -0.533  0.00  0.00    +0.007 A 
ATOM      4  C   UNL     1       0.130  -1.758  -0.770  0.00  0.00    +0.046 A 
ATOM      5  C   UNL     1       0.113  -2.650   0.292  0.00  0.00    +0.130 A 
ATOM      6  C   UNL     1       0.096  -2.147   1.606  0.00  0.00    +0.039 A 
ATOM      7  C   UNL     1       0.114  -0.771   1.833  0.00  0.00    +0.016 A 
ATOM      8  C   UNL     1       0.056  -3.110   2.712  0.00  0.00    +0.065 C 
ATOM      9  C   UNL     1       0.454  -4.541   2.382  0.00  0.00    +0.113 C 
ATOM     10  C   UNL     1      -0.295  -4.880   1.094  0.00  0.00    +0.215 C 
ATOM     11  O   UNL     1       0.117  -3.984   0.059  0.00  0.00    -0.483 OA
ATOM     12  C   UNL     1       0.103  -5.587   3.454  0.00  0.00    +0.155 C 
ATOM     13  N   UNL     1      -0.341  -5.042   4.746  0.00  0.00    -0.221 N 
ATOM     14  C   UNL     1      -0.490  -3.703   4.913  0.00  0.00    +0.249 A 
ATOM     15  N   UNL     1      -0.849  -3.513   6.178  0.00  0.00    -0.198 NA
ATOM     16  C   UNL     1      -0.956  -4.682   6.800  0.00  0.00    +0.247 A 
ATOM     17  N   UNL     1      -0.666  -5.646   5.965  0.00  0.00    -0.156 NA
ATOM     18  N   UNL     1      -0.314  -2.806   3.911  0.00  0.00    -0.215 NA
ENDROOT
BRANCH  10  19
ATOM     19  C   UNL     1      -1.778  -4.738   1.322  0.00  0.00    -0.005 A 
ATOM     20  C   UNL     1      -2.397  -3.521   1.107  0.00  0.00    +0.009 A 
ATOM     21  C   UNL     1      -3.757  -3.390   1.317  0.00  0.00    +0.022 A 
ATOM     22  C   UNL     1      -4.500  -4.477   1.741  0.00  0.00    +0.059 A 
ATOM     23  C   UNL     1      -3.880  -5.696   1.956  0.00  0.00    +0.060 A 
ATOM     24  C   UNL     1      -2.520  -5.827   1.741  0.00  0.00    +0.028 A 
ATOM     25 CL   UNL     1      -4.810  -7.062   2.489  0.00  0.00    -0.082 Cl
ATOM     26 CL   UNL     1      -6.208  -4.313   2.005  0.00  0.00    -0.082 Cl
ENDBRANCH  10  19
BRANCH  12  27
ATOM     27  C   UNL     1       1.320  -6.441   3.697  0.00  0.00    -0.004 A 
ATOM     28  C   UNL     1       1.275  -7.809   3.472  0.00  0.00    +0.009 A 
ATOM     29  C   UNL     1       2.419  -8.555   3.710  0.00  0.00    +0.020 A 
ATOM     30  C   UNL     1       3.558  -7.916   4.161  0.00  0.00    +0.111 A 
ATOM     31  N   UNL     1       3.565  -6.613   4.365  0.00  0.00    -0.263 NA
ATOM     32  C   UNL     1       2.497  -5.871   4.143  0.00  0.00    +0.116 A 
ENDBRANCH  12  27
TORSDOF 2
