REMARK  Name = ZINC09915656
REMARK  13 active torsions:
REMARK  status: ('A' for Active; 'I' for Inactive)
REMARK    1  A    between atoms: C_1  and  C_2
REMARK    2  A    between atoms: N_4  and  C_5
REMARK    3  A    between atoms: C_5  and  C_32
REMARK    4  A    between atoms: C_6  and  C_30
REMARK    5  A    between atoms: C_6  and  O_31
REMARK    6  A    between atoms: C_7  and  C_28
REMARK    7  A    between atoms: C_7  and  O_29
REMARK    8  A    between atoms: C_8  and  C_25
REMARK    9  A    between atoms: C_8  and  C_26
REMARK   10  A    between atoms: C_10  and  C_11
REMARK   11  A    between atoms: C_10  and  O_12
REMARK   12  A    between atoms: O_12  and  C_13
REMARK   13  A    between atoms: C_26  and  O_27
REMARK                            x       y       z     vdW  Elec       q    Type
REMARK                         _______ _______ _______ _____ _____    ______ ____
ROOT
ATOM      1  C   UNL     1       1.256   2.101   0.001  0.00  0.00    +0.128 C 
ATOM      2  C   UNL     1       0.917   3.582   0.028  0.00  0.00    +0.121 C 
ATOM      3  C   UNL     1       2.041   4.500  -0.416  0.00  0.00    +0.124 C 
ATOM      4  C   UNL     1       2.787   3.998  -1.646  0.00  0.00    +0.125 C 
ATOM      5  O   UNL     1       3.010   2.610  -1.633  0.00  0.00    -0.326 OA
ATOM      6  C   UNL     1       2.037   1.679  -1.236  0.00  0.00    +0.234 C 
ATOM      7  C   UNL     1       1.063   1.361  -2.377  0.00  0.00    +0.091 C 
ATOM      8  C   UNL     1       2.040   4.433  -2.913  0.00  0.00    +0.047 C 
ATOM      9  C   UNL     1       3.036   4.742   0.725  0.00  0.00    +0.047 C 
ATOM     10  C   UNL     1       0.525   3.961   1.472  0.00  0.00    +0.047 C 
ATOM     11  C   UNL     1       2.031   1.696   1.261  0.00  0.00    +0.041 C 
ENDROOT
BRANCH   1  15
ATOM     12  C   UNL     1      -1.293  -0.775   0.010  0.00  0.00    +0.109 C 
ATOM     13  C   UNL     1       0.002  -0.004   0.002  0.00  0.00    +0.211 C 
ATOM     14  O   UNL     1       1.060  -0.596  -0.011  0.00  0.00    -0.276 OA
ATOM     15  N   UNL     1      -0.016   1.344   0.009  0.00  0.00    -0.302 N 
ATOM     16  H   UNL     1      -0.863   1.817   0.016  0.00  0.00    +0.150 HD
ENDBRANCH   1  15
BRANCH   3  17
ATOM     17  O   UNL     1       1.461   5.781  -0.751  0.00  0.00    -0.383 OA
ATOM     18  H   UNL     1       2.109   6.452  -1.007  0.00  0.00    +0.210 HD
ENDBRANCH   3  17
BRANCH   2  19
ATOM     19  O   UNL     1      -0.238   3.816  -0.797  0.00  0.00    -0.384 OA
ATOM     20  H   UNL     1      -0.516   4.741  -0.831  0.00  0.00    +0.210 HD
ENDBRANCH   2  19
BRANCH   6  21
ATOM     21  O   UNL     1       2.716   0.441  -0.912  0.00  0.00    -0.457 OA
BRANCH  21  22
ATOM     22  C   UNL     1       3.563  -0.063  -1.852  0.00  0.00    +0.151 A 
ATOM     23  C   UNL     1       3.835   0.473  -3.055  0.00  0.00    +0.130 A 
ATOM     24  N   UNL     1       4.737  -0.319  -3.725  0.00  0.00    -0.358 N 
ATOM     25  H   UNL     1       5.086  -0.139  -4.612  0.00  0.00    +0.165 HD
ATOM     26  C   UNL     1       5.071  -1.406  -2.948  0.00  0.00    +0.052 A 
ATOM     27  C   UNL     1       4.357  -1.292  -1.742  0.00  0.00    +0.061 A 
ATOM     28  C   UNL     1       4.497  -2.269  -0.754  0.00  0.00    +0.068 A 
ATOM     29  C   UNL     1       5.343  -3.337  -0.966  0.00  0.00    +0.037 A 
ATOM     30  C   UNL     1       6.051  -3.445  -2.155  0.00  0.00    +0.019 A 
ATOM     31  C   UNL     1       5.920  -2.492  -3.140  0.00  0.00    +0.027 A 
ATOM     32 BR   UNL     1       5.541  -4.660   0.371  0.00  0.00    -0.049 Br
ATOM     33 CL   UNL     1       3.614  -2.138   0.735  0.00  0.00    -0.082 Cl
ENDBRANCH  21  22
ENDBRANCH   6  21
BRANCH   4  34
ATOM     34  C   UNL     1       4.165   4.701  -1.673  0.00  0.00    +0.193 C 
BRANCH  34  35
ATOM     35  O   UNL     1       4.831   4.397  -2.900  0.00  0.00    -0.392 OA
ATOM     36  H   UNL     1       5.704   4.806  -2.985  0.00  0.00    +0.210 HD
ENDBRANCH  34  35
ENDBRANCH   4  34
TORSDOF 7
