REMARK  Name = ZINC13139593
REMARK  6 active torsions:
REMARK  status: ('A' for Active; 'I' for Inactive)
REMARK    1  A    between atoms: C_1  and  C_2
REMARK    2  A    between atoms: C_5  and  C_33
REMARK    3  A    between atoms: N_8  and  S_10
REMARK    4  A    between atoms: S_10  and  C_13
REMARK    5  A    between atoms: C_17  and  C_19
REMARK    6  A    between atoms: C_28  and  N_32
REMARK                            x       y       z     vdW  Elec       q    Type
REMARK                         _______ _______ _______ _____ _____    ______ ____
ROOT
ATOM      1  C   UNL     1       2.160  -3.099  -0.514  0.00  0.00    +0.106 A 
ATOM      2  C   UNL     1       2.118  -4.434  -0.875  0.00  0.00    +0.028 A 
ATOM      3  C   UNL     1       2.956  -4.918  -1.863  0.00  0.00    +0.003 A 
ATOM      4  C   UNL     1       3.842  -4.070  -2.497  0.00  0.00    +0.013 A 
ATOM      5  C   UNL     1       3.890  -2.721  -2.138  0.00  0.00    +0.040 A 
ATOM      6  C   UNL     1       3.036  -2.239  -1.143  0.00  0.00    +0.041 A 
ENDROOT
BRANCH   5   7
ATOM      7  C   UNL     1       4.835  -1.808  -2.812  0.00  0.00    +0.260 C 
ATOM      8  O   UNL     1       5.573  -1.103  -2.152  0.00  0.00    -0.269 OA
ATOM      9  N   UNL     1       4.878  -1.756  -4.158  0.00  0.00    -0.167 N 
ATOM     10  C   UNL     1       4.025  -2.403  -4.972  0.00  0.00    +0.261 C 
ATOM     11  O   UNL     1       3.108  -3.115  -4.618  0.00  0.00    -0.269 OA
ATOM     12  C   UNL     1       4.392  -2.100  -6.371  0.00  0.00    +0.052 A 
ATOM     13  C   UNL     1       3.888  -2.472  -7.605  0.00  0.00    +0.014 A 
ATOM     14  C   UNL     1       4.481  -1.997  -8.767  0.00  0.00    +0.003 A 
ATOM     15  C   UNL     1       5.572  -1.156  -8.706  0.00  0.00    +0.023 A 
ATOM     16  C   UNL     1       6.097  -0.769  -7.471  0.00  0.00    +0.038 A 
ATOM     17  C   UNL     1       5.509  -1.239  -6.298  0.00  0.00    +0.070 A 
ATOM     18  C   UNL     1       5.777  -1.045  -4.863  0.00  0.00    +0.262 C 
ATOM     19  O   UNL     1       6.663  -0.360  -4.395  0.00  0.00    -0.269 OA
BRANCH  16  20
ATOM     20  N   UNL     1       7.195   0.076  -7.413  0.00  0.00    -0.357 N 
ATOM     21  H   UNL     1       7.601   0.401  -8.232  0.00  0.00    +0.142 HD
ATOM     22  H   UNL     1       7.556   0.343  -6.553  0.00  0.00    +0.142 HD
ENDBRANCH  16  20
ENDBRANCH   5   7
BRANCH   1  23
ATOM     23  S   UNL     1       1.087  -2.494   0.746  0.00  0.00    +0.061 S 
ATOM     24  O   UNL     1       1.699  -1.325   1.273  0.00  0.00    -0.153 OA
ATOM     25  O   UNL     1       0.747  -3.608   1.559  0.00  0.00    -0.153 OA
BRANCH  23  31
ATOM     26  C   UNL     1      -1.152   0.770  -2.432  0.00  0.00    +0.009 C 
ATOM     27  C   UNL     1      -0.862  -0.653  -1.952  0.00  0.00    +0.002 C 
ATOM     28  C   UNL     1      -2.117  -1.514  -2.115  0.00  0.00    +0.009 C 
ATOM     29  C   UNL     1      -1.818  -2.946  -1.666  0.00  0.00    +0.002 C 
ATOM     30  C   UNL     1      -1.425  -2.940  -0.185  0.00  0.00    +0.112 C 
ATOM     31  N   UNL     1      -0.310  -2.003   0.005  0.00  0.00    -0.176 NA
ATOM     32  C   UNL     1      -0.458  -0.622  -0.474  0.00  0.00    +0.112 C 
ATOM     33  C   UNL     1      -3.064  -3.813  -1.861  0.00  0.00    +0.009 C 
ENDBRANCH  23  31
ENDBRANCH   1  23
TORSDOF 4
