REMARK  Name = ZINC63899937
REMARK  3 active torsions:
REMARK  status: ('A' for Active; 'I' for Inactive)
REMARK    1  A    between atoms: C_6  and  C_7
REMARK    2  A    between atoms: N_8  and  N_9
REMARK    3  A    between atoms: N_9  and  C_10
REMARK                            x       y       z     vdW  Elec       q    Type
REMARK                         _______ _______ _______ _____ _____    ______ ____
ROOT
ATOM      1  N   UNL     1      -2.443  -2.781   0.010  0.00  0.00    -0.239 N 
ATOM      2  H   UNL     1      -3.291  -2.310   0.021  0.00  0.00    +0.174 HD
ENDROOT
BRANCH   1   3
ATOM      3  C   UNL     1      -2.421  -4.133   0.003  0.00  0.00    +0.068 C 
ATOM      4  C   UNL     1      -1.235  -4.841  -0.006  0.00  0.00    +0.154 C 
ATOM      5  N   UNL     1      -1.223  -6.159  -0.014  0.00  0.00    -0.164 NA
ATOM      6  N   UNL     1      -2.247  -6.921  -0.013  0.00  0.00    -0.079 NA
ATOM      7  C   UNL     1      -3.506  -6.460  -0.005  0.00  0.00    +0.273 C 
ATOM      8  O   UNL     1      -4.455  -7.219  -0.005  0.00  0.00    -0.271 OA
ATOM      9  C   UNL     1      -3.700  -4.954   0.011  0.00  0.00    +0.193 C 
ATOM     10 BR   UNL     1      -4.731  -4.476   1.614  0.00  0.00    -0.072 Br
ENDBRANCH   1   3
BRANCH   1  12
ATOM     11  C   UNL     1      -1.262  -0.761   0.010  0.00  0.00    +0.138 C 
ATOM     12  N   UNL     1      -1.241  -2.061   0.003  0.00  0.00    -0.190 NA
BRANCH  11  18
ATOM     13  C   UNL     1      -0.017   1.393   0.010  0.00  0.00    +0.010 A 
ATOM     14  C   UNL     1       1.170   2.096   0.002  0.00  0.00    +0.016 A 
ATOM     15  C   UNL     1       2.378   1.420  -0.013  0.00  0.00    +0.018 A 
ATOM     16  C   UNL     1       2.404   0.035  -0.021  0.00  0.00    +0.016 A 
ATOM     17  C   UNL     1       1.225  -0.680  -0.014  0.00  0.00    +0.010 A 
ATOM     18  C   UNL     1       0.002  -0.004   0.002  0.00  0.00    -0.005 A 
ATOM     19 BR   UNL     1       4.000   2.392  -0.023  0.00  0.00    -0.050 Br
ENDBRANCH  11  18
ENDBRANCH   1  12
TORSDOF 3
