REMARK  Name = ZINC33052246
REMARK  4 active torsions:
REMARK  status: ('A' for Active; 'I' for Inactive)
REMARK    1  A    between atoms: C_1  and  C_2
REMARK    2  A    between atoms: N_5  and  C_7
REMARK    3  A    between atoms: C_18  and  C_32
REMARK    4  A    between atoms: N_24  and  C_25
REMARK                            x       y       z     vdW  Elec       q    Type
REMARK                         _______ _______ _______ _____ _____    ______ ____
ROOT
ATOM      1  C   UNL     1       5.387   4.712  -2.228  0.00  0.00    +0.068 C 
ATOM      2  C   UNL     1       4.132   4.816  -1.401  0.00  0.00    +0.067 A 
ATOM      3  C   UNL     1       3.172   3.820  -1.249  0.00  0.00    +0.035 A 
ATOM      4  C   UNL     1       2.216   4.298  -0.399  0.00  0.00    +0.146 A 
ATOM      5  N   UNL     1       2.537   5.564  -0.074  0.00  0.00    -0.215 N 
ATOM      6  N   UNL     1       3.759   5.861  -0.700  0.00  0.00    -0.169 NA
ATOM      7  N   UNL     1       1.170   3.473   0.030  0.00  0.00    -0.303 N 
ATOM      8  C   UNL     1      -0.158   3.715   0.128  0.00  0.00    +0.093 A 
ATOM      9  C   UNL     1      -0.764   2.562   0.493  0.00  0.00    +0.020 A 
ATOM     10  C   UNL     1       0.242   1.585   0.657  0.00  0.00    +0.025 A 
ATOM     11  C   UNL     1       1.420   2.173   0.393  0.00  0.00    +0.050 A 
ATOM     12  C   UNL     1       2.802   1.594   0.474  0.00  0.00    +0.155 C 
ATOM     13  N   UNL     1       3.389   1.393  -0.871  0.00  0.00    -0.268 N 
ATOM     14  C   UNL     1       3.116   2.455  -1.869  0.00  0.00    +0.151 C 
ATOM     15  C   UNL     1       4.130   0.308  -1.171  0.00  0.00    +0.308 C 
ATOM     16  O   UNL     1       4.333  -0.542  -0.326  0.00  0.00    -0.252 OA
ATOM     17  N   UNL     1       4.646   0.165  -2.408  0.00  0.00    -0.267 N 
ATOM     18  H   UNL     1       4.529   0.969  -3.149  0.00  0.00    +0.156 HD
ENDROOT
BRANCH  17  19
ATOM     19  C   UNL     1       5.331  -1.008  -2.749  0.00  0.00    +0.070 A 
ATOM     20  C   UNL     1       6.080  -1.679  -1.793  0.00  0.00    +0.026 A 
ATOM     21  C   UNL     1       6.751  -2.839  -2.131  0.00  0.00    +0.002 A 
ATOM     22  C   UNL     1       6.686  -3.326  -3.424  0.00  0.00    +0.003 A 
ATOM     23  C   UNL     1       5.946  -2.658  -4.382  0.00  0.00    +0.040 A 
ATOM     24  C   UNL     1       5.268  -1.499  -4.049  0.00  0.00    +0.145 A 
ATOM     25  F   UNL     1       4.544  -0.846  -4.984  0.00  0.00    -0.204 F 
ENDBRANCH  17  19
BRANCH  12  26
ATOM     26  C   UNL     1       3.683   2.531   1.259  0.00  0.00    -0.020 A 
ATOM     27  C   UNL     1       3.158   3.249   2.317  0.00  0.00    +0.006 A 
ATOM     28  C   UNL     1       3.965   4.109   3.038  0.00  0.00    +0.002 A 
ATOM     29  C   UNL     1       5.298   4.251   2.702  0.00  0.00    +0.020 A 
ATOM     30  C   UNL     1       5.824   3.533   1.643  0.00  0.00    +0.041 A 
ATOM     31  C   UNL     1       5.017   2.669   0.925  0.00  0.00    +0.025 A 
ATOM     32 CL   UNL     1       7.498   3.711   1.220  0.00  0.00    -0.084 Cl
ENDBRANCH  12  26
BRANCH   5  33
ATOM     33  C   UNL     1       1.790   6.426   0.741  0.00  0.00    +0.068 A 
ATOM     34  C   UNL     1       1.724   7.780   0.443  0.00  0.00    +0.028 A 
ATOM     35  C   UNL     1       0.984   8.627   1.244  0.00  0.00    +0.002 A 
ATOM     36  C   UNL     1       0.316   8.129   2.348  0.00  0.00    +0.000 A 
ATOM     37  C   UNL     1       0.384   6.781   2.650  0.00  0.00    +0.002 A 
ATOM     38  C   UNL     1       1.119   5.928   1.849  0.00  0.00    +0.028 A 
ENDBRANCH   5  33
TORSDOF 3
