REMARK  Name = ZINC40778279
REMARK  7 active torsions:
REMARK  status: ('A' for Active; 'I' for Inactive)
REMARK    1  A    between atoms: C_4  and  C_7
REMARK    2  A    between atoms: C_7  and  C_8
REMARK    3  A    between atoms: C_7  and  C_14
REMARK    4  A    between atoms: N_16  and  N_17
REMARK    5  A    between atoms: C_19  and  N_33
REMARK    6  A    between atoms: C_20  and  N_24
REMARK    7  A    between atoms: N_24  and  C_25
REMARK                            x       y       z     vdW  Elec       q    Type
REMARK                         _______ _______ _______ _____ _____    ______ ____
ROOT
ATOM      1  N   UNL     1       4.285  -1.959  -3.359  0.00  0.00    -0.247 N 
ATOM      2  C   UNL     1       4.160  -1.530  -4.675  0.00  0.00    +0.161 A 
ATOM      3  C   UNL     1       4.236  -2.444  -5.729  0.00  0.00    +0.107 A 
ATOM      4  C   UNL     1       4.104  -1.961  -7.031  0.00  0.00    +0.149 A 
ATOM      5  N   UNL     1       3.911  -0.657  -7.219  0.00  0.00    -0.219 NA
ATOM      6  C   UNL     1       3.845   0.172  -6.197  0.00  0.00    +0.225 A 
ATOM      7  N   UNL     1       3.960  -0.244  -4.951  0.00  0.00    -0.217 NA
ATOM      8  H   UNL     1       4.430  -2.898  -3.167  0.00  0.00    +0.172 HD
ENDROOT
BRANCH   1  11
ATOM      9  C   UNL     1       4.321  -1.449  -1.034  0.00  0.00    +0.241 C 
ATOM     10  O   UNL     1       4.503  -2.623  -0.793  0.00  0.00    -0.273 OA
ATOM     11  N   UNL     1       4.200  -1.033  -2.311  0.00  0.00    -0.235 N 
ATOM     12  H   UNL     1       4.054  -0.094  -2.503  0.00  0.00    +0.173 HD
BRANCH   9  13
ATOM     13  C   UNL     1       4.230  -0.453   0.094  0.00  0.00    +0.136 C 
BRANCH  13  17
ATOM     14  C   UNL     1       0.417   1.470  -0.006  0.00  0.00    +0.000 A 
ATOM     15  C   UNL     1       0.502   0.096  -0.131  0.00  0.00    +0.000 A 
ATOM     16  C   UNL     1       1.736  -0.526  -0.099  0.00  0.00    +0.005 A 
ATOM     17  C   UNL     1       2.885   0.225   0.058  0.00  0.00    -0.031 A 
ATOM     18  C   UNL     1       2.801   1.599   0.183  0.00  0.00    +0.005 A 
ATOM     19  C   UNL     1       1.567   2.222   0.152  0.00  0.00    +0.000 A 
ENDBRANCH  13  17
BRANCH  13  20
ATOM     20  C   UNL     1       4.397  -1.169   1.410  0.00  0.00    -0.031 A 
ATOM     21  C   UNL     1       3.489  -2.139   1.789  0.00  0.00    +0.005 A 
ATOM     22  C   UNL     1       3.642  -2.796   2.996  0.00  0.00    +0.000 A 
ATOM     23  C   UNL     1       4.703  -2.482   3.824  0.00  0.00    +0.000 A 
ATOM     24  C   UNL     1       5.612  -1.512   3.444  0.00  0.00    +0.000 A 
ATOM     25  C   UNL     1       5.462  -0.859   2.235  0.00  0.00    +0.005 A 
ENDBRANCH  13  20
ENDBRANCH   9  13
ENDBRANCH   1  11
BRANCH   3  26
ATOM     26  N   UNL     1       4.441  -3.812  -5.484  0.00  0.00    -0.353 N 
ATOM     27  H   UNL     1       4.532  -4.133  -4.573  0.00  0.00    +0.143 HD
ATOM     28  H   UNL     1       4.493  -4.435  -6.225  0.00  0.00    +0.143 HD
ENDBRANCH   3  26
BRANCH   4  29
ATOM     29  N   UNL     1       4.173  -2.828  -8.116  0.00  0.00    -0.297 N 
ATOM     30  H   UNL     1       4.225  -3.785  -7.970  0.00  0.00    +0.154 HD
BRANCH  29  31
ATOM     31  C   UNL     1       4.166  -2.319  -9.419  0.00  0.00    +0.052 A 
ATOM     32  C   UNL     1       4.503  -0.992  -9.649  0.00  0.00    +0.044 A 
ATOM     33  C   UNL     1       4.495  -0.492 -10.938  0.00  0.00    +0.043 A 
ATOM     34  C   UNL     1       4.152  -1.314 -11.998  0.00  0.00    +0.021 A 
ATOM     35  C   UNL     1       3.816  -2.635 -11.772  0.00  0.00    +0.023 A 
ATOM     36  C   UNL     1       3.828  -3.143 -10.486  0.00  0.00    +0.062 A 
ATOM     37 CL   UNL     1       3.413  -4.805 -10.204  0.00  0.00    -0.082 Cl
ATOM     38 CL   UNL     1       4.916   1.167 -11.227  0.00  0.00    -0.083 Cl
ENDBRANCH  29  31
ENDBRANCH   4  29
TORSDOF 7
