REMARK  Name = ZINC08964849
REMARK  11 active torsions:
REMARK  status: ('A' for Active; 'I' for Inactive)
REMARK    1  A    between atoms: C_1  and  O_2
REMARK    2  A    between atoms: O_2  and  C_3
REMARK    3  A    between atoms: C_6  and  C_11
REMARK    4  A    between atoms: C_8  and  O_9
REMARK    5  A    between atoms: O_9  and  C_10
REMARK    6  A    between atoms: N_12  and  N_13
REMARK    7  A    between atoms: N_22  and  C1*_23
REMARK    8  A    between atoms: C2*_25  and  O2*_35
REMARK    9  A    between atoms: C3*_27  and  O3*_34
REMARK   10  A    between atoms: C4*_29  and  C5*_32
REMARK   11  A    between atoms: C5*_32  and  O5*_33
REMARK                            x       y       z     vdW  Elec       q    Type
REMARK                         _______ _______ _______ _____ _____    ______ ____
ROOT
ATOM      1  N   UNL     1      -1.049   4.713  -0.137  0.00  0.00    -0.206 N 
ATOM      2  C   UNL     1      -0.394   3.501  -0.056  0.00  0.00    +0.220 A 
ATOM      3  N   UNL     1       0.907   3.345  -0.053  0.00  0.00    -0.208 NA
ATOM      4  C   UNL     1       1.202   2.025   0.039  0.00  0.00    +0.149 A 
ATOM      5  C   UNL     1       2.394   1.283   0.083  0.00  0.00    +0.147 A 
ATOM      6  N   UNL     1       2.314  -0.040   0.178  0.00  0.00    -0.219 NA
ATOM      7  C   UNL     1       1.145  -0.652   0.229  0.00  0.00    +0.225 A 
ATOM      8  N   UNL     1       0.003   0.002   0.190  0.00  0.00    -0.216 NA
ATOM      9  C   UNL     1      -0.015   1.327   0.097  0.00  0.00    +0.169 A 
ATOM     10  N   UNL     1      -1.006   2.280   0.030  0.00  0.00    -0.266 N 
ATOM     11  N   UNL     1       3.626   1.916   0.031  0.00  0.00    -0.341 N 
ATOM     12  H   UNL     1      -2.015   4.738  -0.215  0.00  0.00    +0.177 HD
ATOM     13  H   UNL     1       4.143   1.708   0.861  0.00  0.00    +0.144 HD
ATOM     14  H   UNL     1       3.671   2.883  -0.038  0.00  0.00    +0.144 HD
ENDROOT
BRANCH  10  15
ATOM     15  C1* UNL     1      -2.450   2.032   0.050  0.00  0.00    +0.255 C 
ATOM     16  C2* UNL     1      -2.892   1.405  -1.286  0.00  0.00    +0.195 C 
ATOM     17  C3* UNL     1      -3.438   0.012  -0.889  0.00  0.00    +0.178 C 
ATOM     18  C4* UNL     1      -2.766  -0.220   0.488  0.00  0.00    +0.177 C 
ATOM     19  O4* UNL     1      -2.771   1.093   1.090  0.00  0.00    -0.346 OA
BRANCH  17  20
ATOM     20  O3* UNL     1      -4.861   0.038  -0.765  0.00  0.00    -0.386 OA
ATOM     21  H3* UNL     1      -5.242  -0.786  -0.432  0.00  0.00    +0.210 HD
ENDBRANCH  17  20
BRANCH  16  22
ATOM     22  O2* UNL     1      -1.777   1.272  -2.170  0.00  0.00    -0.385 OA
ATOM     23  H2* UNL     1      -1.998   0.882  -3.027  0.00  0.00    +0.210 HD
ENDBRANCH  16  22
BRANCH  18  24
ATOM     24  C5* UNL     1      -3.586  -1.200   1.329  0.00  0.00    +0.190 C 
BRANCH  24  25
ATOM     25  O5* UNL     1      -2.939  -1.405   2.587  0.00  0.00    -0.392 OA
ATOM     26  H5* UNL     1      -3.405  -2.017   3.174  0.00  0.00    +0.210 HD
ENDBRANCH  24  25
ENDBRANCH  18  24
ENDBRANCH  10  15
BRANCH   1  28
ATOM     27  C   UNL     1      -0.933   7.048  -0.185  0.00  0.00    +0.138 C 
ATOM     28  N   UNL     1      -0.317   5.908  -0.108  0.00  0.00    -0.188 NA
BRANCH  27  32
ATOM     29  C   UNL     1       1.291  10.667  -0.097  0.00  0.00    +0.162 A 
ATOM     30  C   UNL     1       1.948   9.448  -0.014  0.00  0.00    +0.050 A 
ATOM     31  C   UNL     1       1.229   8.271  -0.043  0.00  0.00    +0.013 A 
ATOM     32  C   UNL     1      -0.163   8.305  -0.154  0.00  0.00    -0.002 A 
ATOM     33  C   UNL     1      -0.824   9.533  -0.242  0.00  0.00    +0.059 A 
ATOM     34  C   UNL     1      -0.097  10.709  -0.208  0.00  0.00    +0.162 A 
BRANCH  29  36
ATOM     35  C   UNL     1       3.423  11.709   0.048  0.00  0.00    +0.277 C 
ATOM     36  O   UNL     1       2.004  11.824  -0.068  0.00  0.00    -0.491 OA
ENDBRANCH  29  36
BRANCH  34  37
ATOM     37  O   UNL     1      -0.737  11.906  -0.289  0.00  0.00    -0.491 OA
ATOM     38  C   UNL     1      -2.161  11.874  -0.401  0.00  0.00    +0.277 C 
ENDBRANCH  34  37
ENDBRANCH  27  32
ENDBRANCH   1  28
TORSDOF 9
