REMARK  Name = ZINC21750370
REMARK  10 active torsions:
REMARK  status: ('A' for Active; 'I' for Inactive)
REMARK    1  A    between atoms: C_1  and  C_2
REMARK    2  A    between atoms: C_5  and  C_32
REMARK    3  A    between atoms: C_10  and  C_12
REMARK    4  A    between atoms: C_12  and  C_14
REMARK    5  A    between atoms: C_12  and  S_15
REMARK    6  A    between atoms: S_15  and  C_16
REMARK    7  A    between atoms: C_19  and  C_22
REMARK    8  A    between atoms: N_20  and  N_21
REMARK    9  A    between atoms: C_25  and  O_28
REMARK   10  A    between atoms: O_28  and  C_29
REMARK                            x       y       z     vdW  Elec       q    Type
REMARK                         _______ _______ _______ _____ _____    ______ ____
ROOT
ATOM      1  C   UNL     1      -4.869   5.990   2.831  0.00  0.00    +0.209 A 
ATOM      2  N   UNL     1      -4.212   5.905   3.965  0.00  0.00    -0.121 NA
ATOM      3  N   UNL     1      -5.015   6.072   4.955  0.00  0.00    -0.127 NA
ATOM      4  C   UNL     1      -6.236   6.265   4.513  0.00  0.00    +0.182 A 
ATOM      5  N   UNL     1      -6.181   6.219   3.139  0.00  0.00    -0.224 N 
ENDROOT
BRANCH   4   6
ATOM      6  C   UNL     1      -7.443   6.490   5.336  0.00  0.00    +0.021 A 
ATOM      7  C   UNL     1      -7.317   6.860   6.676  0.00  0.00    +0.015 A 
ATOM      8  C   UNL     1      -8.445   7.074   7.439  0.00  0.00    +0.046 A 
ATOM      9  C   UNL     1      -9.705   6.912   6.880  0.00  0.00    +0.127 A 
ATOM     10  C   UNL     1      -9.835   6.539   5.548  0.00  0.00    +0.046 A 
ATOM     11  C   UNL     1      -8.712   6.328   4.777  0.00  0.00    +0.015 A 
BRANCH   9  12
ATOM     12  O   UNL     1     -10.815   7.118   7.636  0.00  0.00    -0.434 OA
BRANCH  12  13
ATOM     13  C   UNL     1     -10.609   7.500   8.998  0.00  0.00    +0.541 C 
ATOM     14  F   UNL     1      -9.884   6.503   9.658  0.00  0.00    -0.166 F 
ATOM     15  F   UNL     1      -9.895   8.703   9.042  0.00  0.00    -0.166 F 
ENDBRANCH  12  13
ENDBRANCH   9  12
ENDBRANCH   4   6
BRANCH   5  16
ATOM     16  N   UNL     1      -7.220   6.369   2.265  0.00  0.00    -0.295 N 
ATOM     17  H   UNL     1      -8.236   6.549   2.645  0.00  0.00    +0.163 HD
ATOM     18  H   UNL     1      -7.040   6.309   1.182  0.00  0.00    +0.163 HD
ENDBRANCH   5  16
BRANCH   1  19
ATOM     19  S   UNL     1      -4.188   5.832   1.214  0.00  0.00    -0.072 S 
BRANCH  19  20
ATOM     20  C   UNL     1      -2.449   5.553   1.631  0.00  0.00    +0.137 C 
ATOM     21  C   UNL     1      -1.879   6.801   2.307  0.00  0.00    +0.029 C 
BRANCH  20  29
ATOM     22  C   UNL     1       1.387   2.438  -2.055  0.00  0.00    +0.009 C 
ATOM     23  C   UNL     1       0.473   2.747  -0.867  0.00  0.00    +0.004 C 
ATOM     24  C   UNL     1       1.133   2.260   0.425  0.00  0.00    +0.009 C 
ATOM     25  C   UNL     1       0.205   2.539   1.610  0.00  0.00    +0.004 C 
ATOM     26  C   UNL     1      -0.030   4.048   1.726  0.00  0.00    +0.111 C 
ATOM     27  N   UNL     1      -0.529   4.549   0.438  0.00  0.00    -0.300 N 
ATOM     28  C   UNL     1       0.241   4.258  -0.780  0.00  0.00    +0.111 C 
ATOM     29  C   UNL     1      -1.671   5.262   0.374  0.00  0.00    +0.229 C 
ATOM     30  O   UNL     1      -2.072   5.671  -0.695  0.00  0.00    -0.274 OA
ATOM     31  C   UNL     1      -1.133   1.830   1.389  0.00  0.00    +0.009 C 
ENDBRANCH  20  29
ENDBRANCH  19  20
ENDBRANCH   1  19
TORSDOF 7
