REMARK  Name = ZINC66166040
REMARK  14 active torsions:
REMARK  status: ('A' for Active; 'I' for Inactive)
REMARK    1  A    between atoms: C_1  and  C_2
REMARK    2  A    between atoms: C_2  and  C_3
REMARK    3  A    between atoms: C_3  and  C_5
REMARK    4  A    between atoms: C_3  and  C_6
REMARK    5  A    between atoms: C_11  and  O_12
REMARK    6  A    between atoms: O_12  and  C_13
REMARK    7  A    between atoms: C_13  and  C_15
REMARK    8  A    between atoms: C_13  and  C_17
REMARK    9  A    between atoms: C_15  and  C_16
REMARK   10  A    between atoms: C_17  and  N_18
REMARK   11  A    between atoms: N_18  and  C_19
REMARK   12  A    between atoms: C_22  and  O_25
REMARK   13  A    between atoms: O_25  and  C_26
REMARK   14  A    between atoms: C_26  and  C_27
REMARK                            x       y       z     vdW  Elec       q    Type
REMARK                         _______ _______ _______ _____ _____    ______ ____
ROOT
ATOM      1  N   UNL     1       5.196  -1.455  -3.311  0.00  0.00    -0.340 N 
ATOM      2  H   UNL     1       4.380  -1.848  -3.660  0.00  0.00    +0.146 HD
ENDROOT
BRANCH   1   3
ATOM      3  C   UNL     1       6.032  -0.714  -4.152  0.00  0.00    +0.027 A 
ATOM      4  C   UNL     1       7.202  -0.156  -3.654  0.00  0.00    +0.026 A 
ATOM      5  C   UNL     1       8.027   0.575  -4.485  0.00  0.00    +0.047 A 
ATOM      6  C   UNL     1       7.687   0.753  -5.818  0.00  0.00    +0.121 A 
ATOM      7  C   UNL     1       6.518   0.198  -6.317  0.00  0.00    +0.047 A 
ATOM      8  C   UNL     1       5.695  -0.539  -5.488  0.00  0.00    +0.026 A 
BRANCH   6   9
ATOM      9  O   UNL     1       8.500   1.474  -6.636  0.00  0.00    -0.487 OA
BRANCH   9  10
ATOM     10  C   UNL     1       8.089   1.617  -7.997  0.00  0.00    +0.264 C 
BRANCH  10  11
ATOM     11  C   UNL     1       9.106   2.440  -8.745  0.00  0.00    -0.010 A 
ATOM     12  C   UNL     1       8.979   3.816  -8.798  0.00  0.00    +0.007 A 
ATOM     13  C   UNL     1       9.912   4.570  -9.485  0.00  0.00    +0.000 A 
ATOM     14  C   UNL     1      10.972   3.949 -10.118  0.00  0.00    +0.000 A 
ATOM     15  C   UNL     1      11.100   2.574 -10.064  0.00  0.00    +0.000 A 
ATOM     16  C   UNL     1      10.169   1.819  -9.374  0.00  0.00    +0.007 A 
ENDBRANCH  10  11
ENDBRANCH   9  10
ENDBRANCH   6   9
ENDBRANCH   1   3
BRANCH   1  17
ATOM     17  C   UNL     1       5.551  -1.639  -1.901  0.00  0.00    +0.146 C 
BRANCH  17  18
ATOM     18  C   UNL     1       4.477  -2.482  -1.210  0.00  0.00    +0.190 C 
BRANCH  18  19
ATOM     19  C   UNL     1       4.849  -2.674   0.262  0.00  0.00    +0.043 C 
ATOM     20  C   UNL     1       3.843  -3.618   0.923  0.00  0.00    +0.007 C 
ENDBRANCH  18  19
BRANCH  18  21
ATOM     21  O   UNL     1       3.217  -1.814  -1.300  0.00  0.00    -0.487 OA
BRANCH  21  27
ATOM     22  C   UNL     1       0.852  -2.016  -1.460  0.00  0.00    -0.003 A 
ATOM     23  C   UNL     1      -0.269  -2.813  -1.590  0.00  0.00    +0.007 A 
ATOM     24  C   UNL     1      -0.137  -4.186  -1.676  0.00  0.00    +0.001 A 
ATOM     25  C   UNL     1       1.118  -4.766  -1.632  0.00  0.00    +0.004 A 
ATOM     26  C   UNL     1       2.242  -3.975  -1.503  0.00  0.00    +0.046 A 
ATOM     27  C   UNL     1       2.112  -2.595  -1.422  0.00  0.00    +0.124 A 
BRANCH  22  28
ATOM     28  C   UNL     1       0.707  -0.519  -1.366  0.00  0.00    +0.019 C 
ATOM     29  C   UNL     1       0.019   0.007  -2.627  0.00  0.00    +0.012 C 
BRANCH  28  31
ATOM     30  C   UNL     1      -0.179   1.356   0.028  0.00  0.00    +0.004 C 
ATOM     31  C   UNL     1      -0.136  -0.165  -0.139  0.00  0.00    +0.004 C 
ENDBRANCH  28  31
ENDBRANCH  22  28
ENDBRANCH  21  27
ENDBRANCH  18  21
ENDBRANCH  17  18
ENDBRANCH   1  17
TORSDOF 11
