REMARK  Name = ZINC15997113
REMARK  3 active torsions:
REMARK  status: ('A' for Active; 'I' for Inactive)
REMARK    1  A    between atoms: C_1  and  C_2
REMARK    2  A    between atoms: C_3  and  N_11
REMARK    3  A    between atoms: C_7  and  N_8
REMARK                            x       y       z     vdW  Elec       q    Type
REMARK                         _______ _______ _______ _____ _____    ______ ____
ROOT
ATOM      1  N   UNL     1       1.762   1.910  -0.174  0.00  0.00    -0.210 N 
ATOM      2  C   UNL     1       0.619   1.216  -0.145  0.00  0.00    +0.228 C 
ATOM      3  O   UNL     1      -0.490   1.696  -0.043  0.00  0.00    -0.275 OA
ATOM      4  C   UNL     1       0.923  -0.260  -0.266  0.00  0.00    +0.074 C 
ATOM      5  C   UNL     1       0.594  -0.961   1.065  0.00  0.00    -0.054 C 
ATOM      6  C   UNL     1      -0.551  -1.971   0.838  0.00  0.00    -0.016 C 
ATOM      7  C   UNL     1       0.149  -3.164   0.151  0.00  0.00    -0.020 C 
ATOM      8  C   UNL     1       1.636  -3.026   0.519  0.00  0.00    -0.076 C 
ATOM      9  N   UNL     1       1.780  -1.820   1.359  0.00  0.00    +0.395 N 
ATOM     10  C   UNL     1       2.931  -1.022   0.900  0.00  0.00    +0.053 C 
ATOM     11  C   UNL     1       2.473  -0.298  -0.371  0.00  0.00    +0.089 C 
ATOM     12  C   UNL     1       2.864   1.160  -0.298  0.00  0.00    +0.229 C 
ATOM     13  O   UNL     1       3.998   1.585  -0.345  0.00  0.00    -0.275 OA
ATOM     14  C   UNL     1       4.130  -1.888   0.637  0.00  0.00    -0.026 A 
ATOM     15  C   UNL     1       4.364  -2.950  -0.209  0.00  0.00    +0.024 A 
ATOM     16  C   UNL     1       5.607  -3.561  -0.226  0.00  0.00    +0.041 A 
ATOM     17  C   UNL     1       6.611  -3.101   0.609  0.00  0.00    +0.022 A 
ATOM     18  C   UNL     1       6.380  -2.038   1.457  0.00  0.00    +0.025 A 
ATOM     19  C   UNL     1       5.133  -1.418   1.480  0.00  0.00    +0.036 A 
ATOM     20  N   UNL     1       4.661  -0.343   2.237  0.00  0.00    -0.286 N 
ATOM     21  C   UNL     1       3.378  -0.047   1.956  0.00  0.00    +0.212 C 
ATOM     22  O   UNL     1       2.711   0.834   2.457  0.00  0.00    -0.277 OA
ATOM     23 CL   UNL     1       5.904  -4.899  -1.290  0.00  0.00    -0.084 Cl
ATOM     24  H   UNL     1       5.325   0.153   2.960  0.00  0.00    +0.155 HD
ATOM     25  H   UNL     1       1.899  -2.120   2.410  0.00  0.00    -0.079 HD
ENDROOT
BRANCH   1  28
ATOM     26  C   UNL     1       1.635   3.422  -2.582  0.00  0.00    +0.048 C 
ATOM     27  C   UNL     1       1.743   4.083  -1.232  0.00  0.00    +0.002 A 
ATOM     28  C   UNL     1       1.803   3.308  -0.082  0.00  0.00    +0.049 A 
ATOM     29  C   UNL     1       1.897   3.921   1.160  0.00  0.00    +0.024 A 
ATOM     30  C   UNL     1       1.943   5.299   1.247  0.00  0.00    +0.004 A 
ATOM     31  C   UNL     1       1.884   6.068   0.100  0.00  0.00    +0.033 A 
ATOM     32  C   UNL     1       1.784   5.460  -1.138  0.00  0.00    +0.131 A 
BRANCH  32  33
ATOM     33  N   UNL     1       1.721   6.287  -2.365  0.00  0.00    +0.057 N 
ATOM     34  O   UNL     1       2.375   7.312  -2.442  0.00  0.00    -0.126 OA
ATOM     35  O   UNL     1       1.015   5.943  -3.296  0.00  0.00    -0.126 OA
ENDBRANCH  32  33
ENDBRANCH   1  28
TORSDOF 2
