REMARK  Name = ZINC21477962
REMARK  5 active torsions:
REMARK  status: ('A' for Active; 'I' for Inactive)
REMARK    1  A    between atoms: C_1  and  N_2
REMARK    2  A    between atoms: N_2  and  C_3
REMARK    3  A    between atoms: C_4  and  C_6
REMARK    4  A    between atoms: C_17  and  C_19
REMARK    5  A    between atoms: N_22  and  C_24
REMARK                            x       y       z     vdW  Elec       q    Type
REMARK                         _______ _______ _______ _____ _____    ______ ____
ROOT
ATOM      1  C   UNL     1       4.644  -6.661   1.808  0.00  0.00    +0.276 C 
ATOM      2  C   UNL     1       5.620  -5.511   2.069  0.00  0.00    +0.168 C 
ATOM      3  N   UNL     1       5.010  -4.276   1.547  0.00  0.00    -0.259 N 
ATOM      4  C   UNL     1       3.638  -4.077   1.777  0.00  0.00    +0.079 A 
ATOM      5  C   UNL     1       3.071  -2.830   1.565  0.00  0.00    +0.027 A 
ATOM      6  C   UNL     1       1.720  -2.641   1.790  0.00  0.00    +0.002 A 
ATOM      7  C   UNL     1       0.936  -3.694   2.226  0.00  0.00    +0.004 A 
ATOM      8  C   UNL     1       1.497  -4.939   2.440  0.00  0.00    +0.047 A 
ATOM      9  C   UNL     1       2.852  -5.138   2.219  0.00  0.00    +0.143 A 
ATOM     10  O   UNL     1       3.396  -6.363   2.439  0.00  0.00    -0.476 OA
ATOM     11  C   UNL     1       5.741  -3.370   0.867  0.00  0.00    +0.271 C 
ATOM     12  O   UNL     1       5.224  -2.341   0.478  0.00  0.00    -0.268 OA
ENDROOT
BRANCH  11  13
ATOM     13  C   UNL     1       7.168  -3.629   0.594  0.00  0.00    +0.151 A 
ATOM     14  C   UNL     1       8.030  -2.838  -0.201  0.00  0.00    +0.006 A 
ATOM     15  C   UNL     1       9.233  -3.449  -0.160  0.00  0.00    +0.049 A 
ATOM     16  N   UNL     1       9.090  -4.558   0.616  0.00  0.00    -0.236 N 
ATOM     17  N   UNL     1       7.883  -4.641   1.047  0.00  0.00    -0.161 NA
ATOM     18  C   UNL     1      10.237  -2.681  -0.991  0.00  0.00    +0.056 C 
ATOM     19  C   UNL     1       9.390  -1.749  -1.885  0.00  0.00    +0.011 C 
ATOM     20  C   UNL     1       8.097  -1.593  -1.052  0.00  0.00    +0.040 C 
BRANCH  16  21
ATOM     21  C   UNL     1      10.112  -5.472   0.907  0.00  0.00    +0.066 A 
ATOM     22  C   UNL     1      10.165  -6.082   2.153  0.00  0.00    +0.030 A 
ATOM     23  C   UNL     1      11.172  -6.983   2.437  0.00  0.00    +0.040 A 
ATOM     24  C   UNL     1      12.130  -7.277   1.481  0.00  0.00    +0.124 A 
ATOM     25  C   UNL     1      12.079  -6.669   0.238  0.00  0.00    +0.040 A 
ATOM     26  C   UNL     1      11.073  -5.768  -0.051  0.00  0.00    +0.030 A 
ATOM     27  F   UNL     1      13.118  -8.153   1.764  0.00  0.00    -0.205 F 
ENDBRANCH  16  21
ENDBRANCH  11  13
BRANCH   1  31
ATOM     28  C   UNL     1       6.874  -9.714   2.408  0.00  0.00    +0.131 C 
ATOM     29  N   UNL     1       6.329  -8.471   1.857  0.00  0.00    -0.305 N 
ATOM     30  C   UNL     1       7.006  -7.806   0.741  0.00  0.00    +0.131 C 
ATOM     31  C   UNL     1       5.204  -7.940   2.375  0.00  0.00    +0.257 C 
ATOM     32  O   UNL     1       4.643  -8.491   3.299  0.00  0.00    -0.271 OA
ENDBRANCH   1  31
TORSDOF 3
