REMARK  Name = ZINC31047369
REMARK  10 active torsions:
REMARK  status: ('A' for Active; 'I' for Inactive)
REMARK    1  A    between atoms: C_1  and  C_2
REMARK    2  A    between atoms: C_2  and  C_3
REMARK    3  A    between atoms: C_3  and  C_5
REMARK    4  A    between atoms: C_3  and  N_13
REMARK    5  A    between atoms: C_8  and  C_12
REMARK    6  A    between atoms: C_10  and  C_11
REMARK    7  A    between atoms: C_14  and  C_16
REMARK    8  A    between atoms: N_21  and  C_23
REMARK    9  A    between atoms: C_23  and  C_24
REMARK   10  A    between atoms: C_26  and  C_29
REMARK                            x       y       z     vdW  Elec       q    Type
REMARK                         _______ _______ _______ _____ _____    ______ ____
ROOT
ATOM      1  C   UNL     1      -1.816  -1.069  -5.690  0.00  0.00    +0.058 C 
ATOM      2  C   UNL     1      -2.919  -1.941  -5.084  0.00  0.00    +0.009 C 
ATOM      3  C   UNL     1      -3.568  -2.774  -6.193  0.00  0.00    -0.018 C 
ATOM      4  C   UNL     1      -4.117  -1.838  -7.273  0.00  0.00    -0.078 C 
ATOM      5  N   UNL     1      -3.023  -1.026  -7.821  0.00  0.00    +0.386 N 
ATOM      6  C   UNL     1      -2.415  -0.183  -6.784  0.00  0.00    -0.065 C 
ATOM      7  H   UNL     1      -2.248  -1.714  -8.190  0.00  0.00    -0.081 HD
ENDROOT
BRANCH   1   9
ATOM      8  N   UNL     1      -0.622  -0.771  -3.544  0.00  0.00    -0.308 N 
ATOM      9  C   UNL     1      -1.212  -0.203  -4.615  0.00  0.00    +0.215 C 
ATOM     10  O   UNL     1      -1.256   1.005  -4.714  0.00  0.00    -0.276 OA
ATOM     11  H   UNL     1      -0.582  -1.866  -3.455  0.00  0.00    +0.149 HD
BRANCH   8  12
ATOM     12  C   UNL     1      -0.035   0.072  -2.499  0.00  0.00    +0.103 C 
BRANCH  12  13
ATOM     13  C   UNL     1      -0.006  -0.689  -1.199  0.00  0.00    -0.024 A 
ATOM     14  C   UNL     1       0.018  -2.071  -1.206  0.00  0.00    +0.006 A 
ATOM     15  C   UNL     1       0.039  -2.768  -0.013  0.00  0.00    +0.004 A 
ATOM     16  C   UNL     1       0.041  -2.084   1.188  0.00  0.00    -0.050 A 
ATOM     17  C   UNL     1       0.023  -0.702   1.196  0.00  0.00    +0.007 A 
ATOM     18  C   UNL     1       0.002  -0.004   0.002  0.00  0.00    -0.045 A 
ATOM     19  C   UNL     1      -0.018   1.503   0.010  0.00  0.00    +0.044 C 
ATOM     20  C   UNL     1       0.063  -2.844   2.489  0.00  0.00    +0.044 C 
ENDBRANCH  12  13
BRANCH  12  22
ATOM     21  C   UNL     1       1.353   1.335  -4.149  0.00  0.00    +0.006 C 
ATOM     22  C   UNL     1       1.392   0.457  -2.897  0.00  0.00    +0.024 C 
ENDBRANCH  12  22
ENDBRANCH   8  12
ENDBRANCH   1   9
BRANCH   5  23
ATOM     23  C   UNL     1      -3.486  -0.215  -8.955  0.00  0.00    +0.022 C 
BRANCH  23  24
ATOM     24  C   UNL     1      -4.315  -1.070  -9.878  0.00  0.00    +0.211 A 
ATOM     25  N   UNL     1      -5.610  -1.257  -9.812  0.00  0.00    -0.193 NA
ATOM     26  C   UNL     1      -5.909  -2.088 -10.836  0.00  0.00    +0.202 A 
ATOM     27  N   UNL     1      -4.789  -2.361 -11.453  0.00  0.00    -0.056 NA
ATOM     28  O   UNL     1      -3.867  -1.784 -10.915  0.00  0.00    -0.340 OA
BRANCH  26  29
ATOM     29  C   UNL     1      -7.257  -2.600 -11.190  0.00  0.00    +0.023 A 
ATOM     30  C   UNL     1      -8.367  -2.227 -10.435  0.00  0.00    +0.013 A 
ATOM     31  C   UNL     1      -9.618  -2.699 -10.773  0.00  0.00    +0.021 A 
ATOM     32  C   UNL     1      -9.771  -3.553 -11.852  0.00  0.00    +0.041 A 
ATOM     33  C   UNL     1      -8.670  -3.932 -12.601  0.00  0.00    +0.021 A 
ATOM     34  C   UNL     1      -7.415  -3.459 -12.276  0.00  0.00    +0.013 A 
ATOM     35 CL   UNL     1     -11.347  -4.151 -12.267  0.00  0.00    -0.084 Cl
ENDBRANCH  26  29
ENDBRANCH  23  24
ENDBRANCH   5  23
TORSDOF 7
