REMARK  Name = ZINC37858625
REMARK  3 active torsions:
REMARK  status: ('A' for Active; 'I' for Inactive)
REMARK    1  A    between atoms: C_1  and  C_2
REMARK    2  A    between atoms: C_10  and  C_11
REMARK    3  A    between atoms: N_13  and  C_14
REMARK                            x       y       z     vdW  Elec       q    Type
REMARK                         _______ _______ _______ _____ _____    ______ ____
ROOT
ATOM      1  C   UNL     1       0.019   1.390  -0.068  0.00  0.00    +0.007 C 
ATOM      2  C   UNL     1       0.037  -0.139  -0.024  0.00  0.00    -0.012 C 
ATOM      3  C   UNL     1      -1.399  -0.656  -0.029  0.00  0.00    +0.008 C 
ATOM      4  C   UNL     1      -2.181  -0.092   1.166  0.00  0.00    +0.033 C 
ATOM      5  C   UNL     1      -1.352  -0.411   2.408  0.00  0.00    -0.042 C 
ATOM      6  C   UNL     1       0.111   0.033   2.449  0.00  0.00    +0.080 C 
ATOM      7  S   UNL     1       0.707  -0.740   3.997  0.00  0.00    -0.098 S 
ATOM      8  C   UNL     1      -0.852  -1.400   4.570  0.00  0.00    +0.101 C 
ATOM      9  C   UNL     1      -1.783  -1.073   3.467  0.00  0.00    +0.068 C 
ATOM     10  N   UNL     1      -1.107  -2.020   5.689  0.00  0.00    -0.292 NA
ATOM     11  C   UNL     1       0.787  -0.596   1.232  0.00  0.00    +0.022 C 
ATOM     12  H   UNL     1      -0.397  -2.171   6.332  0.00  0.00    +0.187 HD
ENDROOT
BRANCH   9  13
ATOM     13  C   UNL     1      -3.197  -1.487   3.551  0.00  0.00    +0.251 C 
ATOM     14  O   UNL     1      -3.990  -1.117   2.707  0.00  0.00    -0.270 OA
ATOM     15  N   UNL     1      -3.610  -2.276   4.563  0.00  0.00    -0.281 N 
ATOM     16  H   UNL     1      -2.996  -2.509   5.277  0.00  0.00    +0.155 HD
BRANCH  15  17
ATOM     17  C   UNL     1      -4.923  -2.759   4.583  0.00  0.00    +0.034 A 
ATOM     18  C   UNL     1      -5.588  -2.915   5.792  0.00  0.00    +0.025 A 
ATOM     19  C   UNL     1      -6.884  -3.391   5.809  0.00  0.00    +0.022 A 
ATOM     20  C   UNL     1      -7.520  -3.714   4.623  0.00  0.00    +0.041 A 
ATOM     21  C   UNL     1      -6.859  -3.560   3.417  0.00  0.00    +0.022 A 
ATOM     22  C   UNL     1      -5.565  -3.078   3.394  0.00  0.00    +0.025 A 
ATOM     23 CL   UNL     1      -9.149  -4.313   4.648  0.00  0.00    -0.084 Cl
ENDBRANCH  15  17
ENDBRANCH   9  13
TORSDOF 2
