REMARK  Name = ZINC65322873
REMARK  7 active torsions:
REMARK  status: ('A' for Active; 'I' for Inactive)
REMARK    1  A    between atoms: C_1  and  C_2
REMARK    2  A    between atoms: C_6  and  N_9
REMARK    3  A    between atoms: C_7  and  C_8
REMARK    4  A    between atoms: N_9  and  C_10
REMARK    5  A    between atoms: C_10  and  C_11
REMARK    6  A    between atoms: N_21  and  C_22
REMARK    7  A    between atoms: C_22  and  C_23
REMARK                            x       y       z     vdW  Elec       q    Type
REMARK                         _______ _______ _______ _____ _____    ______ ____
ROOT
ATOM      1  C   UNL     1       0.084  -4.774   3.796  0.00  0.00    +0.067 A 
ATOM      2  C   UNL     1       0.110  -6.147   4.036  0.00  0.00    +0.097 A 
ATOM      3  C   UNL     1       0.122  -6.598   5.328  0.00  0.00    +0.276 A 
ATOM      4  O   UNL     1       0.146  -7.924   5.593  0.00  0.00    -0.266 OA
ATOM      5  N   UNL     1       0.109  -5.690   6.343  0.00  0.00    -0.158 N 
ATOM      6  C   UNL     1       0.084  -4.351   6.068  0.00  0.00    +0.258 A 
ATOM      7  N   UNL     1       0.078  -3.923   4.801  0.00  0.00    -0.214 NA
ATOM      8  N   UNL     1       0.076  -3.708   7.231  0.00  0.00    -0.176 NA
ATOM      9  C   UNL     1       0.095  -4.588   8.230  0.00  0.00    +0.237 A 
ATOM     10  N   UNL     1       0.115  -5.809   7.739  0.00  0.00    -0.125 NA
ATOM     11  N   UNL     1       0.093  -4.266   9.585  0.00  0.00    -0.308 N 
ATOM     12  H   UNL     1       0.108  -4.971  10.251  0.00  0.00    +0.149 HD
ENDROOT
BRANCH   1  13
ATOM     13  C   UNL     1       0.071  -4.261   2.379  0.00  0.00    +0.157 C 
BRANCH  13  14
ATOM     14  N   UNL     1       0.051  -2.796   2.390  0.00  0.00    -0.338 N 
ATOM     15  H   UNL     1       0.049  -2.318   3.234  0.00  0.00    +0.146 HD
BRANCH  14  21
ATOM     16  C   UNL     1      -0.018   1.503   0.010  0.00  0.00    +0.044 C 
ATOM     17  C   UNL     1       0.002  -0.004   0.002  0.00  0.00    -0.046 A 
ATOM     18  C   UNL     1       0.006  -0.688  -1.200  0.00  0.00    +0.004 A 
ATOM     19  C   UNL     1       0.024  -2.071  -1.212  0.00  0.00    +0.002 A 
ATOM     20  C   UNL     1       0.039  -2.773  -0.023  0.00  0.00    +0.023 A 
ATOM     21  C   UNL     1       0.036  -2.089   1.186  0.00  0.00    +0.031 A 
ATOM     22  C   UNL     1       0.023  -0.700   1.194  0.00  0.00    -0.027 A 
ATOM     23  C   UNL     1       0.025   0.046   2.504  0.00  0.00    +0.046 C 
ENDBRANCH  14  21
ENDBRANCH  13  14
ENDBRANCH   1  13
BRANCH  11  24
ATOM     24  C   UNL     1       0.069  -2.863  10.005  0.00  0.00    +0.139 C 
BRANCH  24  25
ATOM     25  C   UNL     1       0.072  -2.788  11.510  0.00  0.00    -0.030 A 
ATOM     26  C   UNL     1      -1.123  -2.781  12.204  0.00  0.00    +0.006 A 
ATOM     27  C   UNL     1      -1.121  -2.713  13.585  0.00  0.00    +0.020 A 
ATOM     28  C   UNL     1       0.078  -2.652  14.272  0.00  0.00    +0.041 A 
ATOM     29  C   UNL     1       1.274  -2.659  13.577  0.00  0.00    +0.020 A 
ATOM     30  C   UNL     1       1.271  -2.733  12.196  0.00  0.00    +0.006 A 
ATOM     31 CL   UNL     1       0.082  -2.565  16.006  0.00  0.00    -0.084 Cl
ENDBRANCH  24  25
ENDBRANCH  11  24
TORSDOF 5
