REMARK  Name = ZINC32111869
REMARK  10 active torsions:
REMARK  status: ('A' for Active; 'I' for Inactive)
REMARK    1  A    between atoms: C_1  and  O_2
REMARK    2  A    between atoms: O_2  and  C_3
REMARK    3  A    between atoms: C_8  and  C_9
REMARK    4  A    between atoms: N_11  and  C_12
REMARK    5  A    between atoms: C_12  and  N_14
REMARK    6  A    between atoms: N_14  and  C_15
REMARK    7  A    between atoms: C_18  and  N_23
REMARK    8  A    between atoms: C_19  and  O_21
REMARK    9  A    between atoms: O_21  and  C_22
REMARK   10  A    between atoms: C_24  and  C_26
REMARK                            x       y       z     vdW  Elec       q    Type
REMARK                         _______ _______ _______ _____ _____    ______ ____
ROOT
ATOM      1  C   UNL     1       4.769   7.958   0.097  0.00  0.00    +0.036 A 
ATOM      2  C   UNL     1       5.946   7.225   0.009  0.00  0.00    +0.025 A 
ATOM      3  C   UNL     1       7.167   7.870   0.035  0.00  0.00    +0.029 A 
ATOM      4  C   UNL     1       7.221   9.251   0.159  0.00  0.00    +0.076 A 
ATOM      5  C   UNL     1       6.042   9.988   0.253  0.00  0.00    +0.143 A 
ATOM      6  C   UNL     1       4.819   9.340   0.221  0.00  0.00    +0.070 A 
ENDROOT
BRANCH   4   7
ATOM      7  N   UNL     1       8.461   9.904   0.191  0.00  0.00    -0.276 N 
ATOM      8  C   UNL     1       9.502   9.408  -0.507  0.00  0.00    +0.284 C 
ATOM      9  O   UNL     1       9.387   8.354  -1.104  0.00  0.00    -0.266 OA
ATOM     10  H   UNL     1       8.584  10.822   0.785  0.00  0.00    +0.155 HD
BRANCH   8  11
ATOM     11  C   UNL     1      10.775  10.141  -0.548  0.00  0.00    +0.191 A 
ATOM     12  C   UNL     1      11.887   9.739  -1.216  0.00  0.00    +0.063 A 
ATOM     13  C   UNL     1      12.897  10.769  -0.978  0.00  0.00    +0.021 A 
ATOM     14  C   UNL     1      14.224  10.944  -1.379  0.00  0.00    +0.011 A 
ATOM     15  C   UNL     1      14.915  12.050  -0.972  0.00  0.00    +0.001 A 
ATOM     16  C   UNL     1      14.307  13.001  -0.164  0.00  0.00    +0.004 A 
ATOM     17  C   UNL     1      12.999  12.848   0.242  0.00  0.00    +0.047 A 
ATOM     18  C   UNL     1      12.276  11.730  -0.158  0.00  0.00    +0.136 A 
ATOM     19  O   UNL     1      11.014  11.318   0.068  0.00  0.00    -0.450 OA
ENDBRANCH   8  11
ENDBRANCH   4   7
BRANCH   1  20
ATOM     20  N   UNL     1       3.533   7.302   0.065  0.00  0.00    -0.296 N 
ATOM     21  H   UNL     1       2.720   7.628   0.731  0.00  0.00    +0.154 HD
BRANCH  20  22
ATOM     22  C   UNL     1       3.338   6.271  -0.781  0.00  0.00    +0.141 C 
ATOM     23  S   UNL     1       4.548   5.857  -1.919  0.00  0.00    -0.018 S 
BRANCH  22  26
ATOM     24  C   UNL     1       1.996   4.535  -1.577  0.00  0.00    +0.253 C 
ATOM     25  O   UNL     1       2.855   4.241  -2.385  0.00  0.00    -0.270 OA
ATOM     26  N   UNL     1       2.190   5.566  -0.731  0.00  0.00    -0.263 N 
ATOM     27  H   UNL     1       1.413   5.832  -0.000  0.00  0.00    +0.157 HD
BRANCH  24  33
ATOM     28  C   UNL     1       0.533   2.691  -2.401  0.00  0.00    +0.132 A 
ATOM     29  C   UNL     1      -0.651   1.972  -2.342  0.00  0.00    +0.048 A 
ATOM     30  C   UNL     1      -1.625   2.317  -1.425  0.00  0.00    +0.023 A 
ATOM     31  C   UNL     1      -1.423   3.373  -0.551  0.00  0.00    +0.042 A 
ATOM     32  C   UNL     1      -0.251   4.098  -0.596  0.00  0.00    +0.036 A 
ATOM     33  C   UNL     1       0.740   3.764  -1.523  0.00  0.00    +0.080 A 
ATOM     34 CL   UNL     1      -2.653   3.790   0.601  0.00  0.00    -0.084 Cl
BRANCH  28  36
ATOM     35  C   UNL     1       1.207   1.253  -4.168  0.00  0.00    +0.277 C 
ATOM     36  O   UNL     1       1.488   2.357  -3.305  0.00  0.00    -0.494 OA
ENDBRANCH  28  36
ENDBRANCH  24  33
ENDBRANCH  22  26
ENDBRANCH  20  22
ENDBRANCH   1  20
BRANCH   5  37
ATOM     37  O   UNL     1       6.093  11.341   0.374  0.00  0.00    -0.493 OA
ATOM     38  C   UNL     1       4.845  12.031   0.465  0.00  0.00    +0.277 C 
ENDBRANCH   5  37
TORSDOF 8
