REMARK  Name = ZINC45971397
REMARK  5 active torsions:
REMARK  status: ('A' for Active; 'I' for Inactive)
REMARK    1  A    between atoms: C_3  and  N_8
REMARK    2  A    between atoms: C_9  and  C_11
REMARK    3  A    between atoms: C_11  and  S_12
REMARK    4  A    between atoms: S_12  and  C_13
REMARK    5  A    between atoms: C_23  and  C_25
REMARK                            x       y       z     vdW  Elec       q    Type
REMARK                         _______ _______ _______ _____ _____    ______ ____
ROOT
ATOM      1  C   UNL     1       8.855   2.132   0.388  0.00  0.00    +0.196 A 
ATOM      2  N   UNL     1       8.854   3.447   0.402  0.00  0.00    -0.122 NA
ATOM      3  N   UNL     1      10.058   3.892   0.496  0.00  0.00    -0.126 NA
ATOM      4  C   UNL     1      10.899   2.887   0.548  0.00  0.00    +0.187 A 
ATOM      5  N   UNL     1      10.152   1.728   0.486  0.00  0.00    -0.274 N 
ATOM      6  C   UNL     1      10.783   0.498   0.527  0.00  0.00    +0.115 A 
ATOM      7  C   UNL     1      12.102   0.398   0.628  0.00  0.00    +0.131 A 
ATOM      8  N   UNL     1      12.915   1.517   0.699  0.00  0.00    -0.234 N 
ATOM      9  C   UNL     1      12.357   2.769   0.654  0.00  0.00    +0.112 A 
ATOM     10  C   UNL     1      13.381   3.684   0.740  0.00  0.00    +0.061 A 
ATOM     11  C   UNL     1      14.582   2.965   0.821  0.00  0.00    +0.094 A 
ATOM     12  N   UNL     1      14.302   1.675   0.807  0.00  0.00    -0.166 NA
ENDROOT
BRANCH  11  13
ATOM     13  C   UNL     1      15.940   3.555   0.928  0.00  0.00    +0.002 A 
ATOM     14  C   UNL     1      16.100   4.939   0.961  0.00  0.00    +0.013 A 
ATOM     15  C   UNL     1      17.364   5.483   1.060  0.00  0.00    +0.039 A 
ATOM     16  C   UNL     1      18.473   4.656   1.127  0.00  0.00    +0.123 A 
ATOM     17  C   UNL     1      18.319   3.280   1.095  0.00  0.00    +0.039 A 
ATOM     18  C   UNL     1      17.058   2.727   1.002  0.00  0.00    +0.013 A 
ATOM     19  F   UNL     1      19.709   5.193   1.224  0.00  0.00    -0.205 F 
ENDBRANCH  11  13
BRANCH   1  20
ATOM     20  S   UNL     1       7.441   1.087   0.271  0.00  0.00    -0.076 S 
BRANCH  20  21
ATOM     21  C   UNL     1       6.047   2.244   0.171  0.00  0.00    +0.173 C 
BRANCH  21  23
ATOM     22  N   UNL     1       3.584   2.125  -0.021  0.00  0.00    -0.285 N 
ATOM     23  C   UNL     1       4.758   1.470   0.066  0.00  0.00    +0.227 C 
ATOM     24  O   UNL     1       4.778   0.257   0.060  0.00  0.00    -0.275 OA
ATOM     25  H   UNL     1       3.572   3.092  -0.093  0.00  0.00    +0.155 HD
BRANCH  22  28
ATOM     26  C   UNL     1       1.085  -0.461   0.750  0.00  0.00    +0.003 A 
ATOM     27  C   UNL     1       2.274   0.243   0.738  0.00  0.00    +0.023 A 
ATOM     28  C   UNL     1       2.381   1.410  -0.007  0.00  0.00    +0.034 A 
ATOM     29  C   UNL     1       1.292   1.866  -0.738  0.00  0.00    +0.038 A 
ATOM     30  C   UNL     1       0.106   1.158  -0.722  0.00  0.00    +0.020 A 
ATOM     31  C   UNL     1       0.002  -0.004   0.022  0.00  0.00    +0.015 A 
ATOM     32 BR   UNL     1      -1.378   1.778  -1.717  0.00  0.00    -0.050 Br
ENDBRANCH  22  28
ENDBRANCH  21  23
ENDBRANCH  20  21
ENDBRANCH   1  20
TORSDOF 5
