REMARK  Name = ZINC40173114
REMARK  10 active torsions:
REMARK  status: ('A' for Active; 'I' for Inactive)
REMARK    1  A    between atoms: C_1  and  C_2
REMARK    2  A    between atoms: C_2  and  C_3
REMARK    3  A    between atoms: C_3  and  C_5
REMARK    4  A    between atoms: C_3  and  N_16
REMARK    5  A    between atoms: N_7  and  C_8
REMARK    6  A    between atoms: C_11  and  C_15
REMARK    7  A    between atoms: C_13  and  C_14
REMARK    8  A    between atoms: C_20  and  S_21
REMARK    9  A    between atoms: S_21  and  C_22
REMARK   10  A    between atoms: C_22  and  C_23
REMARK                            x       y       z     vdW  Elec       q    Type
REMARK                         _______ _______ _______ _____ _____    ______ ____
ROOT
ATOM      1  N   UNL     1      -2.120  -0.147  -1.222  0.00  0.00    -0.279 N 
ATOM      2  C   UNL     1      -1.731  -0.491  -2.486  0.00  0.00    +0.216 A 
ATOM      3  N   UNL     1      -2.582   0.040  -3.330  0.00  0.00    -0.113 NA
ATOM      4  N   UNL     1      -3.543   0.743  -2.592  0.00  0.00    -0.121 NA
ATOM      5  C   UNL     1      -3.250   0.614  -1.320  0.00  0.00    +0.194 A 
ATOM      6  N   UNL     1      -0.627  -1.266  -2.818  0.00  0.00    -0.328 N 
ATOM      7  H   UNL     1      -0.053  -1.616  -2.120  0.00  0.00    +0.145 HD
ATOM      8  H   UNL     1      -0.431  -1.457  -3.749  0.00  0.00    +0.145 HD
ENDROOT
BRANCH   1   9
ATOM      9  C   UNL     1      -1.446  -0.533   0.021  0.00  0.00    +0.178 C 
BRANCH   9  10
ATOM     10  C   UNL     1      -1.416  -2.036   0.130  0.00  0.00    +0.240 C 
ATOM     11  O   UNL     1      -1.909  -2.717  -0.744  0.00  0.00    -0.273 OA
ATOM     12  N   UNL     1      -0.842  -2.622   1.199  0.00  0.00    -0.284 N 
ATOM     13  H   UNL     1      -0.378  -2.082   1.858  0.00  0.00    +0.155 HD
BRANCH  12  14
ATOM     14  C   UNL     1      -0.915  -4.010   1.359  0.00  0.00    +0.036 A 
ATOM     15  C   UNL     1      -1.951  -4.725   0.771  0.00  0.00    +0.024 A 
ATOM     16  C   UNL     1      -2.020  -6.095   0.931  0.00  0.00    +0.005 A 
ATOM     17  C   UNL     1      -1.060  -6.755   1.676  0.00  0.00    -0.050 A 
ATOM     18  C   UNL     1      -0.028  -6.047   2.263  0.00  0.00    +0.008 A 
ATOM     19  C   UNL     1       0.051  -4.677   2.101  0.00  0.00    -0.029 A 
ATOM     20  C   UNL     1       1.180  -3.906   2.735  0.00  0.00    +0.045 C 
ATOM     21  C   UNL     1      -1.139  -8.250   1.848  0.00  0.00    +0.044 C 
ENDBRANCH  12  14
ENDBRANCH   9  10
BRANCH   9  23
ATOM     22  C   UNL     1      -0.046   1.536   0.028  0.00  0.00    +0.006 C 
ATOM     23  C   UNL     1      -0.015   0.006   0.013  0.00  0.00    +0.031 C 
ENDBRANCH   9  23
ENDBRANCH   1   9
BRANCH   5  24
ATOM     24  S   UNL     1      -4.154   1.305   0.025  0.00  0.00    -0.081 S 
BRANCH  24  25
ATOM     25  C   UNL     1      -5.523   2.188  -0.772  0.00  0.00    +0.114 C 
BRANCH  25  26
ATOM     26  C   UNL     1      -6.386   2.834   0.281  0.00  0.00    -0.019 A 
ATOM     27  C   UNL     1      -7.449   2.139   0.825  0.00  0.00    +0.006 A 
ATOM     28  C   UNL     1      -8.241   2.732   1.791  0.00  0.00    +0.000 A 
ATOM     29  C   UNL     1      -7.969   4.020   2.214  0.00  0.00    +0.001 A 
ATOM     30  C   UNL     1      -6.906   4.716   1.670  0.00  0.00    +0.020 A 
ATOM     31  C   UNL     1      -6.110   4.121   0.707  0.00  0.00    +0.045 A 
ATOM     32 CL   UNL     1      -4.770   4.992   0.029  0.00  0.00    -0.083 Cl
ENDBRANCH  25  26
ENDBRANCH  24  25
ENDBRANCH   5  24
TORSDOF 7
