REMARK  Name = ZINC34787937
REMARK  6 active torsions:
REMARK  status: ('A' for Active; 'I' for Inactive)
REMARK    1  A    between atoms: C_1  and  C_2
REMARK    2  A    between atoms: C_7  and  C_8
REMARK    3  A    between atoms: N_17  and  C_18
REMARK    4  A    between atoms: C_18  and  C_19
REMARK    5  A    between atoms: C_28  and  C_30
REMARK    6  A    between atoms: C_33  and  N_36
REMARK                            x       y       z     vdW  Elec       q    Type
REMARK                         _______ _______ _______ _____ _____    ______ ____
ROOT
ATOM      1  C   UNL     1       2.599  -1.631   4.345  0.00  0.00    +0.199 C 
ATOM      2  O   UNL     1       1.902  -1.979   5.275  0.00  0.00    -0.278 OA
ATOM      3  N   UNL     1       3.855  -2.107   4.229  0.00  0.00    -0.301 N 
ATOM      4  C   UNL     1       4.392  -3.022   5.175  0.00  0.00    +0.109 C 
ATOM      5  C   UNL     1       4.989  -2.357   6.458  0.00  0.00    +0.038 C 
ATOM      6  C   UNL     1       5.702  -1.040   6.009  0.00  0.00    +0.109 C 
ATOM      7  N   UNL     1       6.386  -1.131   4.767  0.00  0.00    -0.296 N 
ATOM      8  C   UNL     1       5.658  -0.661   3.560  0.00  0.00    +0.127 C 
ATOM      9  C   UNL     1       4.736  -1.703   3.104  0.00  0.00    +0.126 C 
ATOM     10  C   UNL     1       7.639  -1.620   4.687  0.00  0.00    +0.247 C 
ATOM     11  O   UNL     1       8.210  -1.995   5.692  0.00  0.00    -0.270 OA
ENDROOT
BRANCH  10  12
ATOM     12  C   UNL     1       8.319  -1.701   3.377  0.00  0.00    +0.037 A 
ATOM     13  C   UNL     1       9.708  -1.590   3.300  0.00  0.00    +0.015 A 
ATOM     14  C   UNL     1      10.337  -1.667   2.074  0.00  0.00    +0.033 A 
ATOM     15  C   UNL     1       9.593  -1.853   0.923  0.00  0.00    +0.126 A 
ATOM     16  C   UNL     1       8.216  -1.963   0.992  0.00  0.00    +0.033 A 
ATOM     17  C   UNL     1       7.575  -1.895   2.212  0.00  0.00    +0.015 A 
BRANCH  15  18
ATOM     18  N   UNL     1      10.274  -1.934  -0.389  0.00  0.00    +0.056 N 
ATOM     19  O   UNL     1      11.477  -1.837  -0.453  0.00  0.00    -0.126 OA
ATOM     20  O   UNL     1       9.626  -2.096  -1.397  0.00  0.00    -0.126 OA
ENDBRANCH  15  18
ENDBRANCH  10  12
BRANCH   1  21
ATOM     21  C   UNL     1       2.061  -0.667   3.320  0.00  0.00    +0.020 C 
BRANCH  21  30
ATOM     22  C   UNL     1       0.123   0.542   2.604  0.00  0.00    -0.005 C 
ATOM     23  C   UNL     1      -1.270   1.003   3.021  0.00  0.00    -0.047 A 
ATOM     24  C   UNL     1      -2.233   1.475   2.133  0.00  0.00    +0.010 A 
ATOM     25  C   UNL     1      -3.447   1.861   2.592  0.00  0.00    +0.045 A 
ATOM     26  S   UNL     1      -3.287   1.569   4.348  0.00  0.00    -0.101 S 
ATOM     27  C   UNL     1      -1.625   0.961   4.337  0.00  0.00    -0.010 A 
ATOM     28  C   UNL     1      -0.769   0.501   5.471  0.00  0.00    +0.024 C 
ATOM     29  C   UNL     1       0.677   0.411   4.954  0.00  0.00    -0.072 C 
ATOM     30  N   UNL     1       0.682  -0.301   3.668  0.00  0.00    +0.393 N 
ATOM     31  H   UNL     1       0.128  -1.139   3.753  0.00  0.00    -0.080 HD
BRANCH  22  38
ATOM     32  C   UNL     1       0.129   1.903   0.056  0.00  0.00    +0.044 C 
ATOM     33  C   UNL     1       0.035   0.400   0.107  0.00  0.00    -0.049 A 
ATOM     34  C   UNL     1      -0.043  -0.328  -1.066  0.00  0.00    +0.003 A 
ATOM     35  C   UNL     1      -0.130  -1.707  -1.018  0.00  0.00    +0.000 A 
ATOM     36  C   UNL     1      -0.139  -2.358   0.201  0.00  0.00    +0.000 A 
ATOM     37  C   UNL     1      -0.060  -1.630   1.374  0.00  0.00    +0.002 A 
ATOM     38  C   UNL     1       0.032  -0.251   1.326  0.00  0.00    -0.054 A 
ENDBRANCH  22  38
ENDBRANCH  21  30
ENDBRANCH   1  21
TORSDOF 5
