REMARK  Name = ZINC22060571
REMARK  6 active torsions:
REMARK  status: ('A' for Active; 'I' for Inactive)
REMARK    1  A    between atoms: C_12  and  O_23
REMARK    2  A    between atoms: O_23  and  C_24
REMARK    3  A    between atoms: C_26  and  O_40
REMARK    4  A    between atoms: C_28  and  O_39
REMARK    5  A    between atoms: C_30  and  O_38
REMARK    6  A    between atoms: C_32  and  C_35
REMARK                            x       y       z     vdW  Elec       q    Type
REMARK                         _______ _______ _______ _____ _____    ______ ____
ROOT
ATOM      1  C   UNL     1      -1.017  -4.277  -0.289  0.00  0.00    +0.020 A 
ATOM      2  C   UNL     1      -1.094  -2.896  -0.298  0.00  0.00    +0.010 A 
ATOM      3  C   UNL     1      -0.681  -2.190   0.828  0.00  0.00    -0.013 A 
ATOM      4  C   UNL     1      -0.210  -2.840   1.943  0.00  0.00    -0.038 A 
ATOM      5  C   UNL     1      -0.131  -4.222   1.947  0.00  0.00    +0.024 A 
ATOM      6  C   UNL     1      -0.536  -4.934   0.830  0.00  0.00    +0.041 A 
ATOM      7 CL   UNL     1      -0.438  -6.667   0.833  0.00  0.00    -0.084 Cl
ATOM      8  C   UNL     1       0.211  -2.060   3.150  0.00  0.00    +0.040 C 
ATOM      9  C   UNL     1      -0.946  -1.462   3.904  0.00  0.00    +0.042 C 
ATOM     10  C   UNL     1      -1.676  -0.360   3.183  0.00  0.00    -0.018 A 
ATOM     11  C   UNL     1      -2.552   0.373   3.994  0.00  0.00    +0.053 A 
ATOM     12  C   UNL     1      -3.261   1.436   3.458  0.00  0.00    +0.142 A 
ATOM     13  C   UNL     1      -3.083   1.756   2.119  0.00  0.00    +0.157 A 
ATOM     14  N   UNL     1      -2.266   1.046   1.379  0.00  0.00    -0.251 NA
ATOM     15  C   UNL     1      -1.571   0.002   1.859  0.00  0.00    +0.075 A 
ATOM     16  C   UNL     1      -0.731  -0.711   0.871  0.00  0.00    +0.007 C 
ATOM     17  C   UNL     1       0.002  -0.004   0.002  0.00  0.00    -0.063 C 
ATOM     18  C   UNL     1      -0.018   1.510   0.010  0.00  0.00    +0.012 C 
ATOM     19  C   UNL     1       1.431   2.010  -0.001  0.00  0.00    -0.078 C 
ATOM     20  N   UNL     1       2.148   1.401  -1.129  0.00  0.00    +0.379 N 
ATOM     21  C   UNL     1       2.272  -0.053  -0.967  0.00  0.00    -0.078 C 
ATOM     22  C   UNL     1       0.880  -0.692  -1.022  0.00  0.00    +0.012 C 
ATOM     23  H   UNL     1       1.601   1.602  -2.062  0.00  0.00    -0.086 HD
ATOM     24  H   UNL     1       3.158   1.831  -1.196  0.00  0.00    -0.086 HD
ENDROOT
BRANCH  12  25
ATOM     25  O   UNL     1      -4.117   2.153   4.232  0.00  0.00    -0.459 OA
BRANCH  25  26
ATOM     26  C   UNL     1      -4.809   3.234   3.603  0.00  0.00    +0.340 C 
ATOM     27  C   UNL     1      -5.526   4.069   4.667  0.00  0.00    +0.214 C 
ATOM     28  C   UNL     1      -6.568   3.198   5.373  0.00  0.00    +0.180 C 
ATOM     29  C   UNL     1      -7.536   2.632   4.330  0.00  0.00    +0.186 C 
ATOM     30  C   UNL     1      -6.742   1.851   3.279  0.00  0.00    +0.266 C 
ATOM     31  O   UNL     1      -5.770   2.712   2.682  0.00  0.00    -0.322 OA
BRANCH  30  32
ATOM     32  C   UNL     1      -7.681   1.341   2.216  0.00  0.00    +0.387 C 
ATOM     33  O   UNL     1      -7.590   1.749   1.083  0.00  0.00    -0.243 OA
ATOM     34  O   UNL     1      -8.619   0.433   2.529  0.00  0.00    -0.243 OA
ENDBRANCH  30  32
BRANCH  29  35
ATOM     35  O   UNL     1      -8.240   3.704   3.698  0.00  0.00    -0.386 OA
ATOM     36  H   UNL     1      -8.982   3.488   2.916  0.00  0.00    +0.210 HD
ENDBRANCH  29  35
BRANCH  28  37
ATOM     37  O   UNL     1      -5.913   2.123   6.050  0.00  0.00    -0.386 OA
ATOM     38  H   UNL     1      -6.504   1.388   6.617  0.00  0.00    +0.210 HD
ENDBRANCH  28  37
BRANCH  27  39
ATOM     39  O   UNL     1      -4.574   4.544   5.621  0.00  0.00    -0.383 OA
ATOM     40  H   UNL     1      -4.906   5.167   6.466  0.00  0.00    +0.210 HD
ENDBRANCH  27  39
ENDBRANCH  25  26
ENDBRANCH  12  25
TORSDOF 6
