REMARK  Name = ZINC13482474
REMARK  11 active torsions:
REMARK  status: ('A' for Active; 'I' for Inactive)
REMARK    1  A    between atoms: C_1  and  O_2
REMARK    2  A    between atoms: O_2  and  C_3
REMARK    3  A    between atoms: C_6  and  C_9
REMARK    4  A    between atoms: N_11  and  C_12
REMARK    5  A    between atoms: C_12  and  C_14
REMARK    6  A    between atoms: C_12  and  N_18
REMARK    7  A    between atoms: N_18  and  C_19
REMARK    8  A    between atoms: C_19  and  N_20
REMARK    9  A    between atoms: N_20  and  C_21
REMARK   10  A    between atoms: C_24  and  S_27
REMARK   11  A    between atoms: S_27  and  N_30
REMARK                            x       y       z     vdW  Elec       q    Type
REMARK                         _______ _______ _______ _____ _____    ______ ____
ROOT
ATOM      1  N   UNL     1      -6.296  -4.951  -1.482  0.00  0.00    -0.305 N 
ATOM      2  H   UNL     1      -6.022  -5.870  -1.632  0.00  0.00    +0.150 HD
ENDROOT
BRANCH   1   3
ATOM      3  C   UNL     1      -7.205  -4.378  -2.295  0.00  0.00    +0.136 C 
ATOM      4  S   UNL     1      -7.688  -2.757  -2.031  0.00  0.00    -0.019 S 
BRANCH   3   5
ATOM      5  N   UNL     1      -7.734  -5.081  -3.316  0.00  0.00    -0.297 N 
ATOM      6  H   UNL     1      -7.416  -5.978  -3.504  0.00  0.00    +0.154 HD
BRANCH   5   7
ATOM      7  C   UNL     1      -8.742  -4.517  -4.106  0.00  0.00    +0.033 A 
ATOM      8  C   UNL     1      -8.617  -3.213  -4.566  0.00  0.00    +0.025 A 
ATOM      9  C   UNL     1      -9.614  -2.659  -5.346  0.00  0.00    +0.030 A 
ATOM     10  C   UNL     1     -10.735  -3.402  -5.668  0.00  0.00    +0.105 A 
ATOM     11  C   UNL     1     -10.862  -4.701  -5.212  0.00  0.00    +0.030 A 
ATOM     12  C   UNL     1      -9.866  -5.262  -4.436  0.00  0.00    +0.025 A 
BRANCH  10  13
ATOM     13  S   UNL     1     -12.004  -2.692  -6.662  0.00  0.00    +0.056 S 
ATOM     14  O   UNL     1     -13.197  -3.405  -6.369  0.00  0.00    -0.153 OA
ATOM     15  O   UNL     1     -11.901  -1.283  -6.508  0.00  0.00    -0.153 OA
BRANCH  13  16
ATOM     16  N   UNL     1     -11.631  -3.022  -8.242  0.00  0.00    -0.204 NA
ATOM     17  H   UNL     1     -12.340  -3.125  -8.896  0.00  0.00    +0.144 HD
ATOM     18  H   UNL     1     -10.704  -3.113  -8.513  0.00  0.00    +0.144 HD
ENDBRANCH  13  16
ENDBRANCH  10  13
ENDBRANCH   5   7
ENDBRANCH   3   5
ENDBRANCH   1   3
BRANCH   1  19
ATOM     19  C   UNL     1      -5.721  -4.187  -0.372  0.00  0.00    +0.211 C 
BRANCH  19  22
ATOM     20  C   UNL     1      -4.081  -2.518  -1.054  0.00  0.00    +0.246 C 
ATOM     21  O   UNL     1      -4.975  -1.695  -1.086  0.00  0.00    -0.270 OA
ATOM     22  N   UNL     1      -4.350  -3.793  -0.709  0.00  0.00    -0.290 N 
ATOM     23  H   UNL     1      -3.637  -4.450  -0.684  0.00  0.00    +0.151 HD
BRANCH  20  27
ATOM     24  C   UNL     1      -0.109  -1.376  -2.029  0.00  0.00    +0.120 A 
ATOM     25  C   UNL     1      -1.130  -0.434  -2.066  0.00  0.00    +0.046 A 
ATOM     26  C   UNL     1      -2.419  -0.800  -1.751  0.00  0.00    +0.016 A 
ATOM     27  C   UNL     1      -2.700  -2.121  -1.393  0.00  0.00    +0.037 A 
ATOM     28  C   UNL     1      -1.671  -3.066  -1.357  0.00  0.00    +0.016 A 
ATOM     29  C   UNL     1      -0.385  -2.692  -1.678  0.00  0.00    +0.046 A 
BRANCH  24  31
ATOM     30  C   UNL     1       1.375   0.358  -2.691  0.00  0.00    +0.277 C 
ATOM     31  O   UNL     1       1.161  -1.011  -2.340  0.00  0.00    -0.495 OA
ENDBRANCH  24  31
ENDBRANCH  20  27
ENDBRANCH  19  22
BRANCH  19  32
ATOM     32  C   UNL     1      -5.707  -5.052   0.889  0.00  0.00    +0.225 C 
ATOM     33 CL   UNL     1      -4.999  -4.111   2.255  0.00  0.00    -0.080 Cl
ATOM     34 CL   UNL     1      -7.394  -5.537   1.304  0.00  0.00    -0.080 Cl
ATOM     35 CL   UNL     1      -4.713  -6.527   0.596  0.00  0.00    -0.080 Cl
ENDBRANCH  19  32
ENDBRANCH   1  19
TORSDOF 10
