REMARK  Name = ZINC25009051
REMARK  3 active torsions:
REMARK  status: ('A' for Active; 'I' for Inactive)
REMARK    1  A    between atoms: C_6  and  C_7
REMARK    2  A    between atoms: C_15  and  C_17
REMARK    3  A    between atoms: C_22  and  N_23
REMARK                            x       y       z     vdW  Elec       q    Type
REMARK                         _______ _______ _______ _____ _____    ______ ____
ROOT
ATOM      1  C   UNL     1      -1.260  -0.756   0.495  0.00  0.00    +0.247 C 
ATOM      2  O   UNL     1      -2.312  -0.182   0.704  0.00  0.00    -0.270 OA
ATOM      3  N   UNL     1      -1.252  -2.085   0.268  0.00  0.00    -0.295 N 
ATOM      4  C   UNL     1       0.018  -2.813   0.139  0.00  0.00    +0.127 C 
ATOM      5  C   UNL     1       0.029  -3.963   1.154  0.00  0.00    +0.127 C 
ATOM      6  N   UNL     1      -1.232  -4.709   1.031  0.00  0.00    -0.294 N 
ATOM      7  C   UNL     1      -2.501  -3.981   1.159  0.00  0.00    +0.127 C 
ATOM      8  C   UNL     1      -2.512  -2.832   0.150  0.00  0.00    +0.127 C 
ATOM      9  C   UNL     1      -1.223  -6.038   0.803  0.00  0.00    +0.249 C 
ATOM     10  O   UNL     1      -0.170  -6.645   0.787  0.00  0.00    -0.270 OA
ENDROOT
BRANCH   1  16
ATOM     11  C   UNL     1       1.048  -0.377  -0.358  0.00  0.00    +0.016 A 
ATOM     12  C   UNL     1       2.229   0.334  -0.359  0.00  0.00    +0.042 A 
ATOM     13  C   UNL     1       2.386   1.423   0.482  0.00  0.00    +0.158 A 
ATOM     14  C   UNL     1       1.356   1.806   1.331  0.00  0.00    +0.159 A 
ATOM     15  C   UNL     1       0.169   1.101   1.339  0.00  0.00    +0.054 A 
ATOM     16  C   UNL     1       0.007   0.002   0.492  0.00  0.00    +0.040 A 
ATOM     17  F   UNL     1       1.515   2.868   2.150  0.00  0.00    -0.202 F 
ATOM     18  F   UNL     1       3.546   2.116   0.478  0.00  0.00    -0.202 F 
ENDBRANCH   1  16
BRANCH   9  19
ATOM     19  C   UNL     1      -2.492  -6.756   0.574  0.00  0.00    +0.064 A 
ATOM     20  C   UNL     1      -3.485  -6.757   1.555  0.00  0.00    +0.035 A 
ATOM     21  C   UNL     1      -4.670  -7.430   1.334  0.00  0.00    +0.042 A 
ATOM     22  C   UNL     1      -4.878  -8.105   0.142  0.00  0.00    +0.022 A 
ATOM     23  C   UNL     1      -3.903  -8.111  -0.837  0.00  0.00    +0.030 A 
ATOM     24  C   UNL     1      -2.709  -7.435  -0.633  0.00  0.00    +0.081 A 
ATOM     25 CL   UNL     1      -5.904  -7.431   2.555  0.00  0.00    -0.084 Cl
BRANCH  24  26
ATOM     26  N   UNL     1      -1.724  -7.436  -1.625  0.00  0.00    -0.200 N 
ATOM     27  C   UNL     1      -1.806  -7.972  -2.863  0.00  0.00    +0.250 A 
ATOM     28  N   UNL     1      -0.664  -7.749  -3.459  0.00  0.00    -0.116 NA
ATOM     29  N   UNL     1       0.134  -7.108  -2.684  0.00  0.00    -0.023 NA
ATOM     30  N   UNL     1      -0.437  -6.874  -1.551  0.00  0.00    -0.039 NA
ENDBRANCH  24  26
ENDBRANCH   9  19
TORSDOF 3
