REMARK  Name = ZINC63137708
REMARK  4 active torsions:
REMARK  status: ('A' for Active; 'I' for Inactive)
REMARK    1  A    between atoms: C_1  and  C_2
REMARK    2  A    between atoms: C_2  and  C_3
REMARK    3  A    between atoms: C_3  and  N_4
REMARK    4  A    between atoms: C_24  and  C_26
REMARK                            x       y       z     vdW  Elec       q    Type
REMARK                         _______ _______ _______ _____ _____    ______ ____
ROOT
ATOM      1  N   UNL     1      -1.413  -1.998   0.005  0.00  0.00    -0.291 N 
ATOM      2  C   UNL     1      -1.409  -2.765  -1.254  0.00  0.00    +0.203 C 
ATOM      3  C   UNL     1      -2.424  -3.883  -1.140  0.00  0.00    +0.234 C 
ATOM      4  O   UNL     1      -3.186  -4.144  -2.047  0.00  0.00    -0.274 OA
ATOM      5  N   UNL     1      -2.440  -4.589   0.038  0.00  0.00    -0.279 N 
ATOM      6  C   UNL     1      -1.421  -4.220   0.998  0.00  0.00    +0.167 C 
ATOM      7  C   UNL     1      -1.393  -2.722   1.164  0.00  0.00    +0.237 C 
ATOM      8  O   UNL     1      -1.357  -2.193   2.255  0.00  0.00    -0.274 OA
ATOM      9  C   UNL     1      -1.387  -4.944   2.319  0.00  0.00    +0.065 C 
ATOM     10  C   UNL     1      -2.617  -5.796   2.466  0.00  0.00    -0.034 C 
ATOM     11  C   UNL     1      -3.415  -6.035   3.498  0.00  0.00    -0.001 A 
ATOM     12  C   UNL     1      -3.366  -5.586   4.899  0.00  0.00    +0.010 A 
ATOM     13  C   UNL     1      -4.370  -6.023   5.704  0.00  0.00    +0.001 A 
ATOM     14  C   UNL     1      -5.406  -6.852   5.261  0.00  0.00    +0.002 A 
ATOM     15  C   UNL     1      -5.528  -7.315   3.992  0.00  0.00    +0.026 A 
ATOM     16  C   UNL     1      -4.529  -6.926   3.052  0.00  0.00    +0.043 A 
ATOM     17  N   UNL     1      -4.396  -7.227   1.796  0.00  0.00    -0.375 N 
ATOM     18  C   UNL     1      -3.173  -6.593   1.287  0.00  0.00    +0.131 C 
ATOM     19  C   UNL     1      -3.497  -5.576   0.203  0.00  0.00    +0.133 C 
ATOM     20  H   UNL     1      -5.003  -7.779   1.279  0.00  0.00    +0.160 HD
ENDROOT
BRANCH  19  21
ATOM     21  C   UNL     1      -3.724  -6.276  -1.113  0.00  0.00    -0.025 A 
ATOM     22  C   UNL     1      -2.646  -6.620  -1.907  0.00  0.00    +0.007 A 
ATOM     23  C   UNL     1      -2.853  -7.261  -3.114  0.00  0.00    +0.020 A 
ATOM     24  C   UNL     1      -4.140  -7.559  -3.526  0.00  0.00    +0.041 A 
ATOM     25  C   UNL     1      -5.218  -7.215  -2.731  0.00  0.00    +0.020 A 
ATOM     26  C   UNL     1      -5.009  -6.579  -1.522  0.00  0.00    +0.007 A 
ATOM     27 CL   UNL     1      -4.401  -8.365  -5.042  0.00  0.00    -0.084 Cl
ENDBRANCH  19  21
BRANCH   1  28
ATOM     28  C   UNL     1      -1.433  -0.534   0.013  0.00  0.00    +0.108 C 
BRANCH  28  30
ATOM     29  C   UNL     1      -0.019   1.526   0.010  0.00  0.00    +0.005 C 
ATOM     30  C   UNL     1       0.002  -0.004   0.002  0.00  0.00    +0.016 C 
ENDBRANCH  28  30
ENDBRANCH   1  28
TORSDOF 3
