REMARK  Name = ZINC64541065
REMARK  8 active torsions:
REMARK  status: ('A' for Active; 'I' for Inactive)
REMARK    1  A    between atoms: C_1  and  C_2
REMARK    2  A    between atoms: C_2  and  C_4
REMARK    3  A    between atoms: C_2  and  C_23
REMARK    4  A    between atoms: C_10  and  C_12
REMARK    5  A    between atoms: N_25  and  C_26
REMARK    6  A    between atoms: C_26  and  C_27
REMARK    7  A    between atoms: C_30  and  O_33
REMARK    8  A    between atoms: O_33  and  C_34
REMARK                            x       y       z     vdW  Elec       q    Type
REMARK                         _______ _______ _______ _____ _____    ______ ____
ROOT
ATOM      1  C   UNL     1       0.742  -0.511   1.242  0.00  0.00    +0.004 C 
ATOM      2  C   UNL     1       0.764  -2.041   1.232  0.00  0.00    +0.023 C 
ATOM      3  C   UNL     1       1.536  -2.544   2.456  0.00  0.00    +0.108 C 
ATOM      4  N   UNL     1       0.941  -1.957   3.664  0.00  0.00    -0.300 N 
ATOM      5  C   UNL     1       0.789  -0.497   3.739  0.00  0.00    +0.108 C 
ATOM      6  C   UNL     1       0.025  -0.017   2.501  0.00  0.00    +0.023 C 
ATOM      7  C   UNL     1       0.541  -2.742   4.684  0.00  0.00    +0.242 C 
ATOM      8  O   UNL     1       0.672  -3.946   4.611  0.00  0.00    -0.273 OA
ENDROOT
BRANCH   7   9
ATOM      9  C   UNL     1      -0.067  -2.124   5.917  0.00  0.00    +0.190 C 
ATOM     10  C   UNL     1      -1.349  -1.405   5.561  0.00  0.00    +0.016 C 
ATOM     11  C   UNL     1      -2.329  -2.015   6.267  0.00  0.00    -0.002 A 
ATOM     12  C   UNL     1      -3.776  -1.788   6.358  0.00  0.00    +0.029 A 
ATOM     13  C   UNL     1      -4.514  -2.580   7.170  0.00  0.00    +0.042 A 
ATOM     14  C   UNL     1      -3.932  -3.610   7.924  0.00  0.00    +0.022 A 
ATOM     15  C   UNL     1      -2.610  -3.878   7.892  0.00  0.00    +0.027 A 
ATOM     16  C   UNL     1      -1.739  -3.108   7.073  0.00  0.00    +0.043 A 
ATOM     17  N   UNL     1      -0.443  -3.171   6.874  0.00  0.00    -0.370 N 
ATOM     18 CL   UNL     1      -6.226  -2.315   7.282  0.00  0.00    -0.084 Cl
ATOM     19  H   UNL     1       0.164  -3.803   7.289  0.00  0.00    +0.161 HD
ENDBRANCH   7   9
BRANCH   1  21
ATOM     20  C   UNL     1      -0.019   1.526   0.010  0.00  0.00    +0.017 C 
ATOM     21  C   UNL     1       0.002  -0.004   0.002  0.00  0.00    +0.075 C 
BRANCH  21  22
ATOM     22  C   UNL     1       0.707  -0.490  -1.238  0.00  0.00    +0.216 C 
ATOM     23  O   UNL     1       1.704  -1.174  -1.140  0.00  0.00    -0.276 OA
ATOM     24  N   UNL     1       0.231  -0.164  -2.456  0.00  0.00    -0.311 N 
ATOM     25  H   UNL     1      -0.566   0.383  -2.534  0.00  0.00    +0.149 HD
BRANCH  24  26
ATOM     26  C   UNL     1       0.917  -0.637  -3.661  0.00  0.00    +0.139 C 
BRANCH  26  27
ATOM     27  C   UNL     1       0.188  -0.137  -4.882  0.00  0.00    -0.030 A 
ATOM     28  C   UNL     1      -0.828  -0.894  -5.437  0.00  0.00    +0.009 A 
ATOM     29  C   UNL     1      -1.498  -0.439  -6.556  0.00  0.00    +0.046 A 
ATOM     30  C   UNL     1      -1.150   0.779  -7.123  0.00  0.00    +0.120 A 
ATOM     31  C   UNL     1      -0.131   1.536  -6.565  0.00  0.00    +0.046 A 
ATOM     32  C   UNL     1       0.532   1.079  -5.442  0.00  0.00    +0.009 A 
BRANCH  30  33
ATOM     33  O   UNL     1      -1.807   1.228  -8.225  0.00  0.00    -0.495 OA
ATOM     34  C   UNL     1      -1.395   2.490  -8.755  0.00  0.00    +0.277 C 
ENDBRANCH  30  33
ENDBRANCH  26  27
ENDBRANCH  24  26
ENDBRANCH  21  22
ENDBRANCH   1  21
TORSDOF 6
