REMARK  Name = ZINC37655206
REMARK  6 active torsions:
REMARK  status: ('A' for Active; 'I' for Inactive)
REMARK    1  A    between atoms: C_1  and  C_2
REMARK    2  A    between atoms: C_2  and  C_4
REMARK    3  A    between atoms: C_2  and  N_12
REMARK    4  A    between atoms: C_7  and  C_10
REMARK    5  A    between atoms: C_13  and  C_15
REMARK    6  A    between atoms: C_18  and  N_21
REMARK                            x       y       z     vdW  Elec       q    Type
REMARK                         _______ _______ _______ _____ _____    ______ ____
ROOT
ATOM      1  N   UNL     1       0.688  -0.476  -1.203  0.00  0.00    -0.309 N 
ATOM      2  C   UNL     1       0.006  -0.608  -2.358  0.00  0.00    +0.217 C 
ATOM      3  O   UNL     1      -1.175  -0.336  -2.400  0.00  0.00    -0.275 OA
ATOM      4  H   UNL     1       1.632  -0.695  -1.170  0.00  0.00    +0.149 HD
ENDROOT
BRANCH   2   5
ATOM      5  C   UNL     1       0.712  -1.094  -3.598  0.00  0.00    +0.075 C 
ATOM      6  C   UNL     1       1.849  -0.133  -3.948  0.00  0.00    +0.011 C 
ATOM      7  C   UNL     1       1.277   1.264  -4.201  0.00  0.00    -0.016 C 
ATOM      8  C   UNL     1       0.284   1.205  -5.363  0.00  0.00    -0.075 C 
ATOM      9  C   UNL     1      -0.854   0.244  -5.013  0.00  0.00    -0.016 C 
ATOM     10  C   UNL     1      -0.282  -1.153  -4.761  0.00  0.00    +0.011 C 
BRANCH   8  11
ATOM     11  N   UNL     1      -0.265   2.546  -5.606  0.00  0.00    +0.380 N 
ATOM     12  H   UNL     1       0.485   3.180  -5.836  0.00  0.00    -0.090 HD
ATOM     13  H   UNL     1      -0.920   2.507  -6.372  0.00  0.00    -0.090 HD
ATOM     14  H   UNL     1      -0.738   2.871  -4.776  0.00  0.00    -0.090 HD
ENDBRANCH   8  11
ENDBRANCH   2   5
BRANCH   1  16
ATOM     15  C   UNL     1      -0.019   1.526   0.010  0.00  0.00    +0.033 C 
ATOM     16  C   UNL     1       0.002  -0.004   0.002  0.00  0.00    +0.100 C 
BRANCH  16  17
ATOM     17  C   UNL     1       0.731  -0.503   1.223  0.00  0.00    -0.027 A 
ATOM     18  C   UNL     1       2.114  -0.512   1.243  0.00  0.00    +0.007 A 
ATOM     19  C   UNL     1       2.788  -0.968   2.358  0.00  0.00    +0.019 A 
ATOM     20  C   UNL     1       2.070  -1.420   3.467  0.00  0.00    +0.052 A 
ATOM     21  C   UNL     1       0.674  -1.408   3.439  0.00  0.00    +0.019 A 
ATOM     22  C   UNL     1       0.014  -0.945   2.321  0.00  0.00    +0.007 A 
BRANCH  20  23
ATOM     23  C   UNL     1       2.763  -1.895   4.627  0.00  0.00    +0.099 C 
ATOM     24  N   UNL     1       3.312  -2.272   5.547  0.00  0.00    -0.191 NA
ENDBRANCH  20  23
ENDBRANCH  16  17
ENDBRANCH   1  16
TORSDOF 5
