REMARK  Name = ZINC08999779
REMARK  6 active torsions:
REMARK  status: ('A' for Active; 'I' for Inactive)
REMARK    1  A    between atoms: C_2  and  C_3
REMARK    2  A    between atoms: C_3  and  N_4
REMARK    3  A    between atoms: N_13  and  C_14
REMARK    4  A    between atoms: C_14  and  C_16
REMARK    5  A    between atoms: C_19  and  S_22
REMARK    6  A    between atoms: S_22  and  N_25
REMARK                            x       y       z     vdW  Elec       q    Type
REMARK                         _______ _______ _______ _____ _____    ______ ____
ROOT
ATOM      1  C   UNL     1       2.384   1.407  -0.013  0.00  0.00    +0.039 A 
ATOM      2  C   UNL     1       1.167   2.088   0.002  0.00  0.00    +0.015 A 
ATOM      3  C   UNL     1      -0.017   1.379   0.010  0.00  0.00    +0.029 A 
ATOM      4  C   UNL     1       0.002  -0.004   0.002  0.00  0.00    +0.106 A 
ATOM      5  C   UNL     1       1.206  -0.685  -0.013  0.00  0.00    +0.029 A 
ATOM      6  C   UNL     1       2.397   0.013  -0.021  0.00  0.00    +0.015 A 
ENDROOT
BRANCH   4   7
ATOM      7  S   UNL     1      -1.514  -0.902   0.012  0.00  0.00    +0.061 S 
ATOM      8  O   UNL     1      -1.223  -2.183   0.553  0.00  0.00    -0.153 OA
ATOM      9  O   UNL     1      -2.492  -0.041   0.578  0.00  0.00    -0.153 OA
BRANCH   7  10
ATOM     10  N   UNL     1      -1.951  -1.143  -1.567  0.00  0.00    -0.172 NA
ATOM     11  C   UNL     1      -1.512  -2.337  -2.309  0.00  0.00    +0.114 C 
ATOM     12  C   UNL     1      -2.754  -3.154  -2.661  0.00  0.00    +0.052 C 
ATOM     13  C   UNL     1      -3.829  -2.272  -3.242  0.00  0.00    -0.042 A 
ATOM     14  C   UNL     1      -4.831  -2.884  -3.986  0.00  0.00    +0.004 A 
ATOM     15  C   UNL     1      -5.849  -2.136  -4.539  0.00  0.00    +0.000 A 
ATOM     16  C   UNL     1      -5.877  -0.767  -4.352  0.00  0.00    +0.000 A 
ATOM     17  C   UNL     1      -4.882  -0.157  -3.616  0.00  0.00    +0.005 A 
ATOM     18  C   UNL     1      -3.854  -0.908  -3.063  0.00  0.00    -0.028 A 
ATOM     19  C   UNL     1      -2.796  -0.180  -2.280  0.00  0.00    +0.144 C 
ENDBRANCH   7  10
ENDBRANCH   4   7
BRANCH   1  20
ATOM     20  C   UNL     1       3.659   2.162  -0.021  0.00  0.00    +0.269 C 
ATOM     21  O   UNL     1       4.721   1.565  -0.034  0.00  0.00    -0.268 OA
BRANCH  20  31
ATOM     22  N   UNL     1       4.969   5.524  -0.015  0.00  0.00    -0.317 N 
ATOM     23  C   UNL     1       6.248   6.051  -0.023  0.00  0.00    +0.058 A 
ATOM     24  C   UNL     1       6.633   7.401  -0.019  0.00  0.00    +0.030 A 
ATOM     25  C   UNL     1       7.962   7.753  -0.028  0.00  0.00    +0.040 A 
ATOM     26  C   UNL     1       8.960   6.791  -0.042  0.00  0.00    +0.125 A 
ATOM     27  C   UNL     1       8.607   5.451  -0.047  0.00  0.00    +0.055 A 
ATOM     28  C   UNL     1       7.278   5.099  -0.038  0.00  0.00    +0.042 A 
ATOM     29  S   UNL     1       6.405   3.554  -0.031  0.00  0.00    -0.052 S 
ATOM     30  C   UNL     1       4.787   4.176  -0.021  0.00  0.00    +0.167 A 
ATOM     31  N   UNL     1       3.644   3.499  -0.014  0.00  0.00    -0.152 NA
ATOM     32  F   UNL     1      10.261   7.155  -0.051  0.00  0.00    -0.205 F 
BRANCH  22  33
ATOM     33  C   UNL     1       3.809   6.419  -0.000  0.00  0.00    +0.151 C 
BRANCH  33  35
ATOM     34  C   UNL     1       1.504   5.617  -0.090  0.00  0.00    +0.005 C 
ATOM     35  C   UNL     1       2.653   5.755  -0.704  0.00  0.00    -0.013 C 
ENDBRANCH  33  35
ENDBRANCH  22  33
ENDBRANCH  20  31
ENDBRANCH   1  20
TORSDOF 6
