REMARK  Name = ZINC39227671
REMARK  11 active torsions:
REMARK  status: ('A' for Active; 'I' for Inactive)
REMARK    1  A    between atoms: C_1  and  C_2
REMARK    2  A    between atoms: C_2  and  C_4
REMARK    3  A    between atoms: C_2  and  O_35
REMARK    4  A    between atoms: C_4  and  N_5
REMARK    5  A    between atoms: N_5  and  C_6
REMARK    6  A    between atoms: C_6  and  C_7
REMARK    7  A    between atoms: C_7  and  C_9
REMARK    8  A    between atoms: C_7  and  O_10
REMARK    9  A    between atoms: C_11  and  C_13
REMARK   10  A    between atoms: C_17  and  C_19
REMARK   11  A    between atoms: N_31  and  C_34
REMARK                            x       y       z     vdW  Elec       q    Type
REMARK                         _______ _______ _______ _____ _____    ______ ____
ROOT
ATOM      1  C   UNL     1       1.434  -4.205  -0.688  0.00  0.00    +0.037 A 
ATOM      2  C   UNL     1       0.421  -4.809  -1.435  0.00  0.00    +0.013 A 
ATOM      3  C   UNL     1       0.262  -6.180  -1.405  0.00  0.00    +0.001 A 
ATOM      4  C   UNL     1       1.103  -6.962  -0.637  0.00  0.00    +0.008 A 
ATOM      5  C   UNL     1       2.119  -6.371   0.114  0.00  0.00    -0.017 A 
ATOM      6  C   UNL     1       2.289  -4.990   0.084  0.00  0.00    +0.021 A 
ENDROOT
BRANCH   5   7
ATOM      7  C   UNL     1       3.020  -7.213   0.938  0.00  0.00    -0.017 A 
ATOM      8  C   UNL     1       4.032  -6.623   1.694  0.00  0.00    +0.012 A 
ATOM      9  C   UNL     1       4.866  -7.411   2.455  0.00  0.00    +0.046 A 
ATOM     10  C   UNL     1       4.704  -8.794   2.476  0.00  0.00    +0.124 A 
ATOM     11  C   UNL     1       3.696  -9.382   1.730  0.00  0.00    -0.005 A 
ATOM     12  C   UNL     1       2.854  -8.595   0.966  0.00  0.00    +0.015 A 
ATOM     13  C   UNL     1       3.482 -10.875   1.736  0.00  0.00    +0.043 C 
ATOM     14  C   UNL     1       4.741 -11.573   2.257  0.00  0.00    +0.052 C 
ATOM     15  C   UNL     1       5.183 -10.874   3.546  0.00  0.00    +0.108 C 
ATOM     16  O   UNL     1       5.554  -9.533   3.236  0.00  0.00    -0.486 OA
ATOM     17  C   UNL     1       6.377 -11.617   4.148  0.00  0.00    +0.029 C 
ATOM     18  C   UNL     1       6.761 -10.963   5.477  0.00  0.00    -0.075 C 
ATOM     19  N   UNL     1       5.624 -11.025   6.403  0.00  0.00    +0.378 N 
ATOM     20  C   UNL     1       4.501 -10.247   5.864  0.00  0.00    -0.075 C 
ATOM     21  C   UNL     1       4.028 -10.873   4.550  0.00  0.00    +0.029 C 
ATOM     22  C   UNL     1       6.022 -10.470   7.703  0.00  0.00    -0.096 C 
ATOM     23  H   UNL     1       5.340 -11.986   6.522  0.00  0.00    -0.082 HD
ENDBRANCH   5   7
BRANCH   1  25
ATOM     24  N   UNL     1       1.709  -2.045   0.431  0.00  0.00    -0.293 N 
ATOM     25  C   UNL     1       1.604  -2.737  -0.721  0.00  0.00    +0.247 C 
ATOM     26  O   UNL     1       1.650  -2.154  -1.786  0.00  0.00    -0.270 OA
BRANCH  24  27
ATOM     27  C   UNL     1       1.801  -0.583   0.401  0.00  0.00    +0.139 C 
BRANCH  27  29
ATOM     28  C   UNL     1       3.375   1.357   0.411  0.00  0.00    +0.039 C 
ATOM     29  C   UNL     1       3.270  -0.166   0.316  0.00  0.00    +0.129 C 
BRANCH  29  30
ATOM     30  O   UNL     1       3.819  -0.605  -0.928  0.00  0.00    -0.391 OA
ATOM     31  H   UNL     1       4.750  -0.374  -1.051  0.00  0.00    +0.210 HD
ENDBRANCH  29  30
ENDBRANCH  27  29
ENDBRANCH  24  27
BRANCH  24  32
ATOM     32  C   UNL     1       1.730  -2.754   1.712  0.00  0.00    +0.139 C 
BRANCH  32  33
ATOM     33  C   UNL     1       0.320  -2.777   2.306  0.00  0.00    +0.129 C 
ATOM     34  C   UNL     1       0.364  -3.407   3.700  0.00  0.00    +0.039 C 
BRANCH  33  35
ATOM     35  O   UNL     1      -0.540  -3.545   1.463  0.00  0.00    -0.391 OA
ATOM     36  H   UNL     1      -1.452  -3.603   1.779  0.00  0.00    +0.210 HD
ENDBRANCH  33  35
ENDBRANCH  32  33
ENDBRANCH  24  32
ENDBRANCH   1  25
TORSDOF 8
