REMARK  Name = ZINC39561452
REMARK  7 active torsions:
REMARK  status: ('A' for Active; 'I' for Inactive)
REMARK    1  A    between atoms: C_1  and  C_2
REMARK    2  A    between atoms: C_2  and  C_4
REMARK    3  A    between atoms: C_2  and  N_15
REMARK    4  A    between atoms: N_6  and  C_7
REMARK    5  A    between atoms: N_18  and  C_21
REMARK    6  A    between atoms: C_24  and  O_27
REMARK    7  A    between atoms: O_27  and  C_28
REMARK                            x       y       z     vdW  Elec       q    Type
REMARK                         _______ _______ _______ _____ _____    ______ ____
ROOT
ATOM      1  C   UNL     1      -0.421   1.545  -0.141  0.00  0.00    +0.034 C 
ATOM      2  C   UNL     1      -0.243   0.025  -0.142  0.00  0.00    +0.140 C 
ENDROOT
BRANCH   2   3
ATOM      3  N   UNL     1      -1.561  -0.622  -0.201  0.00  0.00    -0.289 NA
ATOM      4  C   UNL     1      -2.292  -0.218  -1.409  0.00  0.00    +0.104 C 
ATOM      5  C   UNL     1      -3.576  -1.047  -1.526  0.00  0.00    +0.120 C 
ATOM      6  N   UNL     1      -4.331  -0.918  -0.271  0.00  0.00    -0.327 N 
ATOM      7  C   UNL     1      -3.626  -1.173   0.995  0.00  0.00    +0.120 C 
ATOM      8  C   UNL     1      -2.340  -0.340   1.012  0.00  0.00    +0.104 C 
BRANCH   6   9
ATOM      9  C   UNL     1      -5.684  -0.562  -0.280  0.00  0.00    +0.030 A 
ATOM     10  C   UNL     1      -6.363  -0.442  -1.485  0.00  0.00    +0.027 A 
ATOM     11  C   UNL     1      -7.699  -0.091  -1.493  0.00  0.00    +0.047 A 
ATOM     12  C   UNL     1      -8.362   0.143  -0.298  0.00  0.00    +0.120 A 
ATOM     13  C   UNL     1      -7.685   0.024   0.907  0.00  0.00    +0.047 A 
ATOM     14  C   UNL     1      -6.350  -0.333   0.917  0.00  0.00    +0.027 A 
BRANCH  12  15
ATOM     15  O   UNL     1      -9.677   0.489  -0.307  0.00  0.00    -0.495 OA
ATOM     16  C   UNL     1     -10.297   0.715   0.961  0.00  0.00    +0.277 C 
ENDBRANCH  12  15
ENDBRANCH   6   9
ENDBRANCH   2   3
BRANCH   2  17
ATOM     17  C   UNL     1       0.571  -0.385  -1.342  0.00  0.00    +0.234 C 
ATOM     18  O   UNL     1       0.100  -1.142  -2.165  0.00  0.00    -0.274 OA
ATOM     19  N   UNL     1       1.823   0.088  -1.500  0.00  0.00    -0.283 N 
ATOM     20  H   UNL     1       2.177   0.742  -0.877  0.00  0.00    +0.155 HD
BRANCH  19  21
ATOM     21  C   UNL     1       2.612  -0.363  -2.565  0.00  0.00    +0.048 A 
ATOM     22  C   UNL     1       2.026  -0.668  -3.786  0.00  0.00    +0.025 A 
ATOM     23  C   UNL     1       2.807  -1.113  -4.834  0.00  0.00    +0.017 A 
ATOM     24  C   UNL     1       4.174  -1.255  -4.669  0.00  0.00    +0.019 A 
ATOM     25  C   UNL     1       4.761  -0.953  -3.454  0.00  0.00    +0.032 A 
ATOM     26  C   UNL     1       3.985  -0.501  -2.403  0.00  0.00    +0.040 A 
ATOM     27 BR   UNL     1       4.790  -0.079  -0.745  0.00  0.00    -0.048 Br
ATOM     28 BR   UNL     1       5.239  -1.865  -6.107  0.00  0.00    -0.050 Br
ENDBRANCH  19  21
ENDBRANCH   2  17
TORSDOF 5
