REMARK  Name = ZINC01735579
REMARK  10 active torsions:
REMARK  status: ('A' for Active; 'I' for Inactive)
REMARK    1  A    between atoms: C_4  and  CA_7
REMARK    2  A    between atoms: CA_7  and  C_9
REMARK    3  A    between atoms: CA_7  and  N_11
REMARK    4  A    between atoms: N_11  and  C_12
REMARK    5  A    between atoms: C_15  and  O_18
REMARK    6  A    between atoms: O_18  and  C_19
REMARK    7  A    between atoms: C_22  and  N_25
REMARK    8  A    between atoms: N_25  and  CA_26
REMARK    9  A    between atoms: CA_26  and  C_28
REMARK   10  A    between atoms: CA_26  and  C_34
REMARK                            x       y       z     vdW  Elec       q    Type
REMARK                         _______ _______ _______ _____ _____    ______ ____
ROOT
ATOM      1  O   UNL     1       5.352   3.975  -4.797  0.00  0.00    -0.456 OA
ENDROOT
BRANCH   1   5
ATOM      2  C   UNL     1       3.767   2.803  -1.169  0.00  0.00    +0.028 A 
ATOM      3  C   UNL     1       3.163   2.401  -2.353  0.00  0.00    +0.026 A 
ATOM      4  C   UNL     1       3.691   2.798  -3.567  0.00  0.00    +0.048 A 
ATOM      5  C   UNL     1       4.830   3.589  -3.602  0.00  0.00    +0.129 A 
ATOM      6  C   UNL     1       5.437   3.986  -2.420  0.00  0.00    +0.048 A 
ATOM      7  C   UNL     1       4.908   3.594  -1.206  0.00  0.00    +0.026 A 
BRANCH   2   8
ATOM      8  N   UNL     1       3.230   2.405   0.060  0.00  0.00    -0.328 N 
ATOM      9  H   UNL     1       3.655   2.683   0.887  0.00  0.00    +0.147 HD
BRANCH   8  10
ATOM     10  CA  UNL     1       2.027   1.571   0.099  0.00  0.00    +0.215 C 
BRANCH  10  14
ATOM     11  C   UNL     1       0.001   2.161   3.813  0.00  0.00    +0.000 A 
ATOM     12  C   UNL     1      -0.723   2.039   2.642  0.00  0.00    +0.000 A 
ATOM     13  C   UNL     1      -0.068   1.848   1.440  0.00  0.00    +0.006 A 
ATOM     14  C   UNL     1       1.312   1.779   1.409  0.00  0.00    -0.016 A 
ATOM     15  C   UNL     1       2.037   1.895   2.580  0.00  0.00    +0.006 A 
ATOM     16  C   UNL     1       1.381   2.091   3.782  0.00  0.00    +0.000 A 
ENDBRANCH  10  14
BRANCH  10  17
ATOM     17  C   UNL     1       2.417   0.121  -0.036  0.00  0.00    +0.380 C 
ATOM     18  O   UNL     1       3.580  -0.183  -0.152  0.00  0.00    -0.244 OA
ATOM     19  OXT UNL     1       1.472  -0.832  -0.027  0.00  0.00    -0.244 OA
ENDBRANCH  10  17
ENDBRANCH   8  10
ENDBRANCH   2   8
ENDBRANCH   1   5
BRANCH   1  20
ATOM     20  C   UNL     1       4.717   3.573  -5.931  0.00  0.00    +0.129 A 
ATOM     21  C   UNL     1       5.074   2.378  -6.538  0.00  0.00    +0.048 A 
ATOM     22  C   UNL     1       4.426   1.967  -7.686  0.00  0.00    +0.026 A 
ATOM     23  C   UNL     1       3.426   2.756  -8.239  0.00  0.00    +0.028 A 
ATOM     24  C   UNL     1       3.074   3.955  -7.634  0.00  0.00    +0.026 A 
ATOM     25  C   UNL     1       3.718   4.362  -6.482  0.00  0.00    +0.048 A 
BRANCH  23  26
ATOM     26  N   UNL     1       2.773   2.343  -9.406  0.00  0.00    -0.328 N 
ATOM     27  H   UNL     1       2.075   2.894  -9.793  0.00  0.00    +0.147 HD
BRANCH  26  28
ATOM     28  CA  UNL     1       3.145   1.078 -10.045  0.00  0.00    +0.215 C 
BRANCH  28  29
ATOM     29  C   UNL     1       1.981   0.559 -10.849  0.00  0.00    -0.016 A 
ATOM     30  C   UNL     1       1.199   1.436 -11.578  0.00  0.00    +0.006 A 
ATOM     31  C   UNL     1       0.134   0.960 -12.319  0.00  0.00    +0.000 A 
ATOM     32  C   UNL     1      -0.156  -0.392 -12.323  0.00  0.00    +0.000 A 
ATOM     33  C   UNL     1       0.623  -1.268 -11.590  0.00  0.00    +0.000 A 
ATOM     34  C   UNL     1       1.691  -0.792 -10.853  0.00  0.00    +0.006 A 
ENDBRANCH  28  29
BRANCH  28  35
ATOM     35  C   UNL     1       4.324   1.302 -10.956  0.00  0.00    +0.380 C 
ATOM     36  O   UNL     1       4.805   2.406 -11.061  0.00  0.00    -0.244 OA
ATOM     37  OXT UNL     1       4.841   0.277 -11.651  0.00  0.00    -0.244 OA
ENDBRANCH  28  35
ENDBRANCH  26  28
ENDBRANCH  23  26
ENDBRANCH   1  20
TORSDOF 10
