REMARK  Name = ZINC02778139
REMARK  9 active torsions:
REMARK  status: ('A' for Active; 'I' for Inactive)
REMARK    1  A    between atoms: C_1  and  C_2
REMARK    2  A    between atoms: C_10  and  C_14
REMARK    3  A    between atoms: C_14  and  C_15
REMARK    4  A    between atoms: C_14  and  C_16
REMARK    5  A    between atoms: C_14  and  C_17
REMARK    6  A    between atoms: N_20  and  N_21
REMARK    7  A    between atoms: C_22  and  C_24
REMARK    8  A    between atoms: C_30  and  C_36
REMARK    9  A    between atoms: C_32  and  C_33
REMARK                            x       y       z     vdW  Elec       q    Type
REMARK                         _______ _______ _______ _____ _____    ______ ____
ROOT
ATOM      1  C   UNL     1       6.482  -3.445  -6.729  0.00  0.00    +0.088 C 
ATOM      2  C   UNL     1       5.424  -3.043  -5.734  0.00  0.00    +0.129 A 
ATOM      3  N   UNL     1       5.613  -1.953  -5.023  0.00  0.00    -0.225 NA
ATOM      4  C   UNL     1       4.665  -1.619  -4.153  0.00  0.00    +0.116 A 
ATOM      5  C   UNL     1       3.482  -2.365  -3.954  0.00  0.00    +0.077 A 
ATOM      6  C   UNL     1       2.560  -1.848  -2.958  0.00  0.00    -0.023 A 
ATOM      7  C   UNL     1       2.925  -0.709  -2.325  0.00  0.00    -0.004 A 
ATOM      8  S   UNL     1       4.501  -0.277  -3.019  0.00  0.00    -0.073 S 
ATOM      9  C   UNL     1       2.162   0.025  -1.267  0.00  0.00    +0.046 C 
ATOM     10  C   UNL     1       0.718  -0.497  -1.257  0.00  0.00    -0.000 C 
ATOM     11  C   UNL     1       0.748  -2.029  -1.264  0.00  0.00    +0.009 C 
ATOM     12  C   UNL     1       1.237  -2.532  -2.621  0.00  0.00    +0.037 C 
ATOM     13  C   UNL     1       3.315  -3.548  -4.749  0.00  0.00    +0.280 A 
ATOM     14  O   UNL     1       2.331  -4.260  -4.654  0.00  0.00    -0.265 OA
ATOM     15  N   UNL     1       4.322  -3.821  -5.613  0.00  0.00    -0.209 N 
ENDROOT
BRANCH  10  16
ATOM     16  C   UNL     1       0.002  -0.004   0.002  0.00  0.00    -0.035 C 
ATOM     17  C   UNL     1      -0.019   1.526   0.010  0.00  0.00    +0.011 C 
ATOM     18  C   UNL     1       0.742  -0.511   1.242  0.00  0.00    +0.011 C 
ATOM     19  C   UNL     1      -1.433  -0.534   0.013  0.00  0.00    +0.011 C 
ENDBRANCH  10  16
BRANCH  15  20
ATOM     20  N   UNL     1       4.218  -4.963  -6.418  0.00  0.00    -0.215 N 
ATOM     21  C   UNL     1       3.384  -4.967  -7.477  0.00  0.00    +0.267 C 
ATOM     22  O   UNL     1       2.720  -3.979  -7.733  0.00  0.00    -0.268 OA
ATOM     23  H   UNL     1       4.747  -5.750  -6.215  0.00  0.00    +0.176 HD
BRANCH  21  24
ATOM     24  C   UNL     1       3.276  -6.161  -8.320  0.00  0.00    +0.102 A 
ATOM     25  C   UNL     1       3.973  -7.371  -8.152  0.00  0.00    +0.150 A 
ATOM     26  N   UNL     1       3.612  -8.198  -9.098  0.00  0.00    -0.172 NA
ATOM     27  N   UNL     1       2.670  -7.579  -9.926  0.00  0.00    -0.212 N 
ATOM     28  C   UNL     1       2.449  -6.318  -9.449  0.00  0.00    +0.168 A 
ATOM     29  N   UNL     1       1.592  -5.498 -10.059  0.00  0.00    -0.232 NA
ATOM     30  C   UNL     1       0.930  -5.887 -11.127  0.00  0.00    +0.049 A 
ATOM     31  C   UNL     1       1.124  -7.174 -11.643  0.00  0.00    +0.052 A 
ATOM     32  C   UNL     1       1.999  -8.012 -11.031  0.00  0.00    +0.112 A 
BRANCH  32  33
ATOM     33  C   UNL     1       2.225  -9.402 -11.565  0.00  0.00    +0.390 C 
ATOM     34  F   UNL     1       2.028  -9.407 -12.950  0.00  0.00    -0.202 F 
ATOM     35  F   UNL     1       3.534  -9.805 -11.279  0.00  0.00    -0.202 F 
ENDBRANCH  32  33
BRANCH  30  36
ATOM     36  C   UNL     1      -0.038  -4.946 -11.796  0.00  0.00    +0.038 C 
ATOM     37  C   UNL     1      -0.487  -5.288 -13.218  0.00  0.00    +0.010 C 
ATOM     38  C   UNL     1       0.478  -4.124 -12.979  0.00  0.00    +0.010 C 
ENDBRANCH  30  36
ENDBRANCH  21  24
ENDBRANCH  15  20
TORSDOF 5
