REMARK  Name = ZINC20831910
REMARK  7 active torsions:
REMARK  status: ('A' for Active; 'I' for Inactive)
REMARK    1  A    between atoms: C_10  and  N_12
REMARK    2  A    between atoms: C_13  and  C_15
REMARK    3  A    between atoms: C_15  and  S_16
REMARK    4  A    between atoms: S_16  and  C_17
REMARK    5  A    between atoms: N_23  and  N_24
REMARK    6  A    between atoms: C_25  and  C_26
REMARK    7  A    between atoms: C_29  and  N_32
REMARK                            x       y       z     vdW  Elec       q    Type
REMARK                         _______ _______ _______ _____ _____    ______ ____
ROOT
ATOM      1  C   UNL     1       8.084   3.940   1.735  0.00  0.00    +0.186 A 
ATOM      2  N   UNL     1       8.864   5.029   1.564  0.00  0.00    -0.252 N 
ATOM      3  H   UNL     1       8.951   5.560   0.757  0.00  0.00    +0.191 HD
ATOM      4  N   UNL     1       9.524   5.241   2.785  0.00  0.00    -0.134 NA
ATOM      5  C   UNL     1       9.122   4.300   3.606  0.00  0.00    +0.255 A 
ATOM      6  N   UNL     1       8.245   3.514   2.970  0.00  0.00    -0.187 NA
ATOM      7  N   UNL     1       9.538   4.146   4.928  0.00  0.00    -0.204 N 
ATOM      8  H   UNL     1       9.188   3.418   5.465  0.00  0.00    +0.177 HD
ENDROOT
BRANCH   7   9
ATOM      9  N   UNL     1      10.461   5.043   5.481  0.00  0.00    -0.188 NA
ATOM     10  C   UNL     1      10.848   4.900   6.712  0.00  0.00    +0.138 C 
BRANCH  10  11
ATOM     11  C   UNL     1      11.819   5.844   7.294  0.00  0.00    -0.005 A 
ATOM     12  C   UNL     1      12.321   6.897   6.526  0.00  0.00    +0.012 A 
ATOM     13  C   UNL     1      13.230   7.776   7.077  0.00  0.00    +0.033 A 
ATOM     14  C   UNL     1      13.645   7.617   8.388  0.00  0.00    +0.126 A 
ATOM     15  C   UNL     1      13.152   6.576   9.155  0.00  0.00    +0.033 A 
ATOM     16  C   UNL     1      12.238   5.693   8.619  0.00  0.00    +0.012 A 
BRANCH  14  17
ATOM     17  N   UNL     1      14.621   8.565   8.972  0.00  0.00    +0.056 N 
ATOM     18  O   UNL     1      15.053   9.476   8.305  0.00  0.00    -0.126 OA
ATOM     19  O   UNL     1      14.985   8.428  10.117  0.00  0.00    -0.126 OA
ENDBRANCH  14  17
ENDBRANCH  10  11
ENDBRANCH   7   9
BRANCH   1  20
ATOM     20  S   UNL     1       7.030   3.220   0.520  0.00  0.00    -0.077 S 
BRANCH  20  21
ATOM     21  C   UNL     1       6.269   1.814   1.377  0.00  0.00    +0.173 C 
BRANCH  21  23
ATOM     22  N   UNL     1       4.649   0.018   0.860  0.00  0.00    -0.308 N 
ATOM     23  C   UNL     1       5.330   1.101   0.438  0.00  0.00    +0.224 C 
ATOM     24  O   UNL     1       5.189   1.502  -0.698  0.00  0.00    -0.275 OA
ATOM     25  H   UNL     1       4.762  -0.302   1.769  0.00  0.00    +0.149 HD
BRANCH  22  35
ATOM     26  C   UNL     1      -0.017   1.375   0.010  0.00  0.00    +0.000 A 
ATOM     27  C   UNL     1       1.174   2.078   0.002  0.00  0.00    +0.000 A 
ATOM     28  C   UNL     1       2.372   1.395  -0.016  0.00  0.00    +0.006 A 
ATOM     29  C   UNL     1       2.393   0.006  -0.025  0.00  0.00    -0.024 A 
ATOM     30  C   UNL     1       1.208  -0.694  -0.013  0.00  0.00    -0.042 A 
ATOM     31  C   UNL     1       0.002  -0.004   0.002  0.00  0.00    +0.004 A 
ATOM     32  C   UNL     1       1.155  -2.199  -0.005  0.00  0.00    +0.035 C 
ATOM     33  C   UNL     1       2.493  -2.786  -0.452  0.00  0.00    +0.007 C 
ATOM     34  C   UNL     1       3.607  -2.135   0.376  0.00  0.00    +0.027 C 
ATOM     35  C   UNL     1       3.736  -0.675  -0.053  0.00  0.00    +0.103 C 
ENDBRANCH  22  35
ENDBRANCH  21  23
ENDBRANCH  20  21
ENDBRANCH   1  20
TORSDOF 7
