REMARK  Name = ZINC39000243
REMARK  7 active torsions:
REMARK  status: ('A' for Active; 'I' for Inactive)
REMARK    1  A    between atoms: C_6  and  C_7
REMARK    2  A    between atoms: C_9  and  C_13
REMARK    3  A    between atoms: C_17  and  S_21
REMARK    4  A    between atoms: N_19  and  N_20
REMARK    5  A    between atoms: S_21  and  C_22
REMARK    6  A    between atoms: C_22  and  C_23
REMARK    7  A    between atoms: N_25  and  C_26
REMARK                            x       y       z     vdW  Elec       q    Type
REMARK                         _______ _______ _______ _____ _____    ______ ____
ROOT
ATOM      1  C   UNL     1      -3.296  -3.144  -1.208  0.00  0.00    +0.185 C 
ATOM      2  N   UNL     1      -3.046  -2.329  -2.426  0.00  0.00    -0.234 NA
ATOM      3  N   UNL     1      -3.974  -2.866  -3.424  0.00  0.00    -0.228 NA
ATOM      4  C   UNL     1      -5.076  -3.510  -2.681  0.00  0.00    +0.214 C 
ATOM      5  N   UNL     1      -4.769  -3.348  -1.240  0.00  0.00    -0.197 NA
ATOM      6  H   UNL     1      -2.090  -2.423  -2.734  0.00  0.00    +0.143 HD
ATOM      7  H   UNL     1      -3.511  -3.527  -4.030  0.00  0.00    +0.143 HD
ENDROOT
BRANCH   1  10
ATOM      8  C   UNL     1      -1.292  -0.775   0.054  0.00  0.00    +0.091 C 
ATOM      9  C   UNL     1      -1.385  -2.119   0.051  0.00  0.00    +0.034 C 
ATOM     10  C   UNL     1      -2.881  -2.380   0.050  0.00  0.00    +0.187 C 
ATOM     11  N   UNL     1      -3.458  -1.025   0.054  0.00  0.00    -0.176 NA
ATOM     12  N   UNL     1      -2.530  -0.214   0.062  0.00  0.00    -0.154 NA
BRANCH   8  18
ATOM     13  C   UNL     1      -0.036   1.379   0.065  0.00  0.00    +0.013 A 
ATOM     14  C   UNL     1       1.151   2.081   0.067  0.00  0.00    +0.039 A 
ATOM     15  C   UNL     1       2.360   1.404   0.059  0.00  0.00    +0.123 A 
ATOM     16  C   UNL     1       2.382   0.018   0.050  0.00  0.00    +0.039 A 
ATOM     17  C   UNL     1       1.200  -0.693   0.048  0.00  0.00    +0.013 A 
ATOM     18  C   UNL     1      -0.018  -0.015   0.056  0.00  0.00    +0.002 A 
ATOM     19  F   UNL     1       3.520   2.096   0.061  0.00  0.00    -0.205 F 
ENDBRANCH   8  18
ENDBRANCH   1  10
BRANCH   5  20
ATOM     20  N   UNL     1      -5.147  -4.532  -0.485  0.00  0.00    -0.264 NA
ATOM     21  H   UNL     1      -6.146  -4.671  -0.507  0.00  0.00    +0.137 HD
ATOM     22  H   UNL     1      -4.661  -5.348  -0.827  0.00  0.00    +0.137 HD
ENDBRANCH   5  20
BRANCH   4  23
ATOM     23  S   UNL     1      -6.651  -2.702  -3.080  0.00  0.00    -0.115 S 
BRANCH  23  24
ATOM     24  C   UNL     1      -6.388  -0.971  -2.605  0.00  0.00    +0.168 C 
BRANCH  24  25
ATOM     25  C   UNL     1      -7.637  -0.177  -2.888  0.00  0.00    +0.227 C 
ATOM     26  O   UNL     1      -8.609  -0.725  -3.363  0.00  0.00    -0.275 OA
ATOM     27  N   UNL     1      -7.674   1.142  -2.612  0.00  0.00    -0.285 N 
ATOM     28  H   UNL     1      -6.922   1.566  -2.171  0.00  0.00    +0.155 HD
BRANCH  27  29
ATOM     29  C   UNL     1      -8.798   1.899  -2.964  0.00  0.00    +0.033 A 
ATOM     30  C   UNL     1      -8.647   3.213  -3.384  0.00  0.00    +0.024 A 
ATOM     31  C   UNL     1      -9.758   3.958  -3.731  0.00  0.00    +0.017 A 
ATOM     32  C   UNL     1     -11.020   3.394  -3.659  0.00  0.00    +0.018 A 
ATOM     33  C   UNL     1     -11.172   2.085  -3.240  0.00  0.00    +0.017 A 
ATOM     34  C   UNL     1     -10.065   1.334  -2.898  0.00  0.00    +0.024 A 
ATOM     35 BR   UNL     1     -12.538   4.417  -4.134  0.00  0.00    -0.050 Br
ENDBRANCH  27  29
ENDBRANCH  24  25
ENDBRANCH  23  24
ENDBRANCH   4  23
TORSDOF 7
