REMARK  Name = ZINC11096405
REMARK  13 active torsions:
REMARK  status: ('A' for Active; 'I' for Inactive)
REMARK    1  A    between atoms: C_1  and  C_2
REMARK    2  A    between atoms: C_2  and  C_3
REMARK    3  A    between atoms: C_2  and  C_4
REMARK    4  A    between atoms: C_4  and  C_6
REMARK    5  A    between atoms: C_4  and  N_61
REMARK    6  A    between atoms: C_9  and  C_12
REMARK    7  A    between atoms: C_12  and  C_13
REMARK    8  A    between atoms: C_12  and  C_14
REMARK    9  A    between atoms: C_12  and  C_15
REMARK   10  A    between atoms: C_16  and  C_18
REMARK   11  A    between atoms: C_16  and  C_19
REMARK   12  A    between atoms: C_16  and  N_61
REMARK   13  A    between atoms: N_21  and  C_22
REMARK                            x       y       z     vdW  Elec       q    Type
REMARK                         _______ _______ _______ _____ _____    ______ ____
ROOT
ATOM      1  C   UNL     1       3.956   4.673   0.921  0.00  0.00    +0.014 C 
ATOM      2  C   UNL     1       4.530   3.256   0.962  0.00  0.00    -0.004 C 
ENDROOT
BRANCH   1   3
ATOM      3  C   UNL     1       2.479   4.609   0.632  0.00  0.00    +0.203 C 
ATOM      4  O   UNL     1       2.030   5.152  -0.355  0.00  0.00    -0.277 OA
ATOM      5  N   UNL     1       1.656   3.949   1.471  0.00  0.00    -0.287 N 
ATOM      6  H   UNL     1       2.002   3.579   2.299  0.00  0.00    +0.155 HD
BRANCH   5   7
ATOM      7  C   UNL     1       0.301   3.797   1.149  0.00  0.00    +0.035 A 
ATOM      8  C   UNL     1      -0.654   3.777   2.158  0.00  0.00    +0.025 A 
ATOM      9  C   UNL     1      -1.991   3.627   1.847  0.00  0.00    +0.029 A 
ATOM     10  C   UNL     1      -2.382   3.496   0.523  0.00  0.00    +0.067 A 
ATOM     11  C   UNL     1      -1.425   3.517  -0.494  0.00  0.00    +0.069 A 
ATOM     12  C   UNL     1      -0.084   3.667  -0.177  0.00  0.00    +0.051 A 
ATOM     13  N   UNL     1      -2.111   3.366  -1.696  0.00  0.00    -0.306 N 
ATOM     14  H   UNL     1      -1.710   3.343  -2.579  0.00  0.00    +0.170 HD
ATOM     15  C   UNL     1      -3.425   3.259  -1.425  0.00  0.00    +0.325 A 
ATOM     16  O   UNL     1      -4.303   3.117  -2.256  0.00  0.00    -0.247 OA
ATOM     17  N   UNL     1      -3.622   3.334  -0.096  0.00  0.00    -0.306 N 
ATOM     18  H   UNL     1      -4.479   3.283   0.356  0.00  0.00    +0.170 HD
ENDBRANCH   5   7
ENDBRANCH   1   3
BRANCH   1  19
ATOM     19  N   UNL     1       4.625   5.445  -0.144  0.00  0.00    +0.391 N 
ATOM     20  H   UNL     1       4.817   4.826  -0.940  0.00  0.00    -0.084 HD
ATOM     21  H   UNL     1       4.009   6.209  -0.445  0.00  0.00    -0.084 HD
BRANCH  19  22
ATOM     22  C   UNL     1       5.894   6.009   0.352  0.00  0.00    -0.037 C 
BRANCH  22  23
ATOM     23  C   UNL     1       5.619   7.292   1.095  0.00  0.00    -0.061 A 
ATOM     24  C   UNL     1       4.675   8.179   0.614  0.00  0.00    +0.002 A 
ATOM     25  C   UNL     1       4.419   9.353   1.298  0.00  0.00    +0.004 A 
ATOM     26  C   UNL     1       5.114   9.644   2.456  0.00  0.00    -0.042 A 
ATOM     27  C   UNL     1       6.063   8.759   2.934  0.00  0.00    +0.004 A 
ATOM     28  C   UNL     1       6.315   7.583   2.253  0.00  0.00    +0.002 A 
BRANCH  26  29
ATOM     29  C   UNL     1       4.840  10.927   3.198  0.00  0.00    -0.013 C 
ATOM     30  C   UNL     1       6.122  11.760   3.268  0.00  0.00    +0.015 C 
ATOM     31  C   UNL     1       3.756  11.719   2.463  0.00  0.00    +0.015 C 
ATOM     32  C   UNL     1       4.363  10.605   4.615  0.00  0.00    +0.015 C 
ENDBRANCH  26  29
ENDBRANCH  22  23
BRANCH  22  34
ATOM     33  C   UNL     1       8.171   6.785  -0.324  0.00  0.00    +0.006 C 
ATOM     34  C   UNL     1       6.815   6.295  -0.836  0.00  0.00    -0.027 C 
ATOM     35  C   UNL     1       7.009   5.014  -1.650  0.00  0.00    +0.006 C 
ENDBRANCH  22  34
ENDBRANCH  19  22
ENDBRANCH   1  19
TORSDOF 7
