REMARK  Name = ZINC08346433
REMARK  5 active torsions:
REMARK  status: ('A' for Active; 'I' for Inactive)
REMARK    1  A    between atoms: C_1  and  C_2
REMARK    2  A    between atoms: C_4  and  C_8
REMARK    3  A    between atoms: C_5  and  C_7
REMARK    4  A    between atoms: N_10  and  N_11
REMARK    5  A    between atoms: C_12  and  C_14
REMARK                            x       y       z     vdW  Elec       q    Type
REMARK                         _______ _______ _______ _____ _____    ______ ____
ROOT
ATOM      1  N   UNL     1      -1.234   1.650   0.017  0.00  0.00    -0.229 N 
ATOM      2  C   UNL     1      -2.392   0.960   0.019  0.00  0.00    +0.278 C 
ATOM      3  O   UNL     1      -2.375  -0.255   0.012  0.00  0.00    -0.267 OA
ATOM      4  H   UNL     1      -1.247   2.620   0.022  0.00  0.00    +0.173 HD
ENDROOT
BRANCH   2   5
ATOM      5  C   UNL     1      -3.686   1.684   0.029  0.00  0.00    +0.127 A 
ATOM      6  C   UNL     1      -4.881   0.950   0.030  0.00  0.00    +0.034 A 
ATOM      7  C   UNL     1      -6.079   1.605   0.040  0.00  0.00    +0.012 A 
ATOM      8  C   UNL     1      -6.069   3.012   0.048  0.00  0.00    +0.000 A 
ATOM      9  C   UNL     1      -7.264   3.749   0.059  0.00  0.00    +0.010 A 
ATOM     10  C   UNL     1      -7.216   5.110   0.067  0.00  0.00    +0.001 A 
ATOM     11  C   UNL     1      -5.995   5.783   0.065  0.00  0.00    +0.002 A 
ATOM     12  C   UNL     1      -4.818   5.103   0.054  0.00  0.00    +0.028 A 
ATOM     13  C   UNL     1      -4.825   3.695   0.046  0.00  0.00    +0.072 A 
ATOM     14  N   UNL     1      -3.686   3.003   0.041  0.00  0.00    -0.242 NA
ENDBRANCH   2   5
BRANCH   1  17
ATOM     15  C   UNL     1       1.147   1.655   0.000  0.00  0.00    +0.263 C 
ATOM     16  O   UNL     1       1.130   2.872   0.007  0.00  0.00    -0.269 OA
ATOM     17  N   UNL     1      -0.011   0.966   0.007  0.00  0.00    -0.230 N 
ATOM     18  H   UNL     1       0.002  -0.004   0.002  0.00  0.00    +0.173 HD
BRANCH  15  22
ATOM     19  C   UNL     1       4.660  -2.043  -0.051  0.00  0.00    +0.086 C 
ATOM     20  C   UNL     1       3.966  -0.706  -0.038  0.00  0.00    +0.103 A 
ATOM     21  C   UNL     1       2.637  -0.520  -0.019  0.00  0.00    +0.057 A 
ATOM     22  C   UNL     1       2.433   0.936  -0.016  0.00  0.00    +0.079 A 
ATOM     23  C   UNL     1       3.683   1.482  -0.025  0.00  0.00    +0.114 A 
ATOM     24  O   UNL     1       4.577   0.488  -0.038  0.00  0.00    -0.464 OA
ATOM     25  C   UNL     1       4.002   2.955  -0.022  0.00  0.00    +0.087 C 
ENDBRANCH  15  22
ENDBRANCH   1  17
TORSDOF 3
