REMARK  Name = ZINC63315454
REMARK  3 active torsions:
REMARK  status: ('A' for Active; 'I' for Inactive)
REMARK    1  A    between atoms: C_5  and  N_7
REMARK    2  A    between atoms: C_13  and  C_15
REMARK    3  A    between atoms: C_15  and  N_16
REMARK                            x       y       z     vdW  Elec       q    Type
REMARK                         _______ _______ _______ _____ _____    ______ ____
ROOT
ATOM      1  N   UNL     1       0.137  -8.091  -1.088  0.00  0.00    -0.291 N 
ATOM      2  C   UNL     1       0.140  -8.961  -2.117  0.00  0.00    +0.303 C 
ATOM      3  O   UNL     1       0.031  -8.554  -3.258  0.00  0.00    -0.253 OA
ATOM      4  N   UNL     1       0.264 -10.282  -1.882  0.00  0.00    -0.283 N 
ATOM      5  C   UNL     1       0.272 -10.776  -0.501  0.00  0.00    +0.114 C 
ATOM      6  C   UNL     1      -0.865 -11.797  -0.314  0.00  0.00    +0.052 C 
ATOM      7  C   UNL     1      -0.816 -12.721  -1.506  0.00  0.00    -0.035 C 
ATOM      8  C   UNL     1      -0.777 -14.045  -1.588  0.00  0.00    +0.001 A 
ATOM      9  C   UNL     1      -0.878 -15.094  -0.560  0.00  0.00    +0.030 A 
ATOM     10  C   UNL     1      -0.777 -16.377  -1.001  0.00  0.00    +0.042 A 
ATOM     11  C   UNL     1      -0.587 -16.716  -2.345  0.00  0.00    +0.022 A 
ATOM     12  C   UNL     1      -0.492 -15.817  -3.357  0.00  0.00    +0.027 A 
ATOM     13  C   UNL     1      -0.592 -14.436  -3.019  0.00  0.00    +0.043 A 
ATOM     14  N   UNL     1      -0.559 -13.380  -3.777  0.00  0.00    -0.376 N 
ATOM     15  C   UNL     1      -0.780 -12.202  -2.938  0.00  0.00    +0.124 C 
ATOM     16  C   UNL     1       0.383 -11.215  -3.014  0.00  0.00    +0.138 C 
ATOM     17 CL   UNL     1      -0.889 -17.659   0.165  0.00  0.00    -0.084 Cl
ATOM     18  H   UNL     1       0.150  -8.419  -0.175  0.00  0.00    +0.151 HD
ATOM     19  H   UNL     1      -0.413 -13.375  -4.736  0.00  0.00    +0.160 HD
ENDROOT
BRANCH   1  20
ATOM     20  C   UNL     1       0.113  -6.649  -1.348  0.00  0.00    +0.201 C 
BRANCH  20  27
ATOM     21  N   UNL     1       1.251  -2.079  -0.029  0.00  0.00    -0.325 N 
ATOM     22  C   UNL     1       1.274  -2.833   1.232  0.00  0.00    +0.124 C 
ATOM     23  C   UNL     1       0.095  -3.814   1.238  0.00  0.00    +0.126 C 
ATOM     24  N   UNL     1       0.094  -4.555  -0.031  0.00  0.00    -0.297 N 
ATOM     25  C   UNL     1       0.070  -3.800  -1.292  0.00  0.00    +0.126 C 
ATOM     26  C   UNL     1       1.244  -2.820  -1.298  0.00  0.00    +0.124 C 
ATOM     27  C   UNL     1       0.114  -5.903  -0.039  0.00  0.00    +0.233 C 
ATOM     28  O   UNL     1       0.133  -6.515   1.008  0.00  0.00    -0.274 OA
BRANCH  21  33
ATOM     29  C   UNL     1       0.001   1.378   0.006  0.00  0.00    +0.002 A 
ATOM     30  C   UNL     1       1.188   2.087  -0.007  0.00  0.00    +0.003 A 
ATOM     31  C   UNL     1       2.397   1.417  -0.028  0.00  0.00    +0.040 A 
ATOM     32  C   UNL     1       2.423   0.035  -0.035  0.00  0.00    +0.144 A 
ATOM     33  C   UNL     1       1.230  -0.681  -0.021  0.00  0.00    +0.065 A 
ATOM     34  C   UNL     1       0.018  -0.003  -0.001  0.00  0.00    +0.026 A 
ATOM     35  F   UNL     1       3.604  -0.620  -0.055  0.00  0.00    -0.204 F 
ENDBRANCH  21  33
ENDBRANCH  20  27
ENDBRANCH   1  20
TORSDOF 3
