REMARK  Name = ZINC00064984
REMARK  4 active torsions:
REMARK  status: ('A' for Active; 'I' for Inactive)
REMARK    1  A    between atoms: C_6  and  N_7
REMARK    2  A    between atoms: C_8  and  C_9
REMARK    3  A    between atoms: C_12  and  O_16
REMARK    4  A    between atoms: C_14  and  O_15
REMARK                            x       y       z     vdW  Elec       q    Type
REMARK                         _______ _______ _______ _____ _____    ______ ____
ROOT
ATOM      1  C   UNL     1      -2.589  -2.478  -0.785  0.00  0.00    +0.035 A 
ATOM      2  C   UNL     1      -2.758  -3.573  -1.641  0.00  0.00    +0.016 A 
ATOM      3  C   UNL     1      -3.940  -4.277  -1.629  0.00  0.00    +0.046 A 
ATOM      4  C   UNL     1      -4.969  -3.906  -0.769  0.00  0.00    +0.120 A 
ATOM      5  C   UNL     1      -4.812  -2.822   0.084  0.00  0.00    +0.091 A 
ATOM      6  C   UNL     1      -3.627  -2.109   0.087  0.00  0.00    +0.129 A 
ENDROOT
BRANCH   1   8
ATOM      7  N   UNL     1      -1.172  -0.707   0.010  0.00  0.00    -0.255 NA
ATOM      8  C   UNL     1      -1.329  -1.724  -0.793  0.00  0.00    +0.123 C 
BRANCH   7  14
ATOM      9  C   UNL     1      -0.017   1.393   0.010  0.00  0.00    +0.029 A 
ATOM     10  C   UNL     1       1.170   2.095   0.002  0.00  0.00    +0.016 A 
ATOM     11  C   UNL     1       2.378   1.419  -0.013  0.00  0.00    +0.014 A 
ATOM     12  C   UNL     1       2.404   0.035  -0.021  0.00  0.00    +0.016 A 
ATOM     13  C   UNL     1       1.224  -0.680  -0.014  0.00  0.00    +0.029 A 
ATOM     14  C   UNL     1       0.002  -0.004   0.002  0.00  0.00    +0.064 A 
ATOM     15  I   UNL     1       4.175   2.496  -0.025  0.00  0.00    -0.044 I 
ENDBRANCH   7  14
ENDBRANCH   1   8
BRANCH   6  16
ATOM     16  O   UNL     1      -3.469  -1.053   0.924  0.00  0.00    -0.506 OA
ATOM     17  H   UNL     1      -3.751  -0.207   0.548  0.00  0.00    +0.292 HD
ENDBRANCH   6  16
BRANCH   4  18
ATOM     18  O   UNL     1      -6.132  -4.606  -0.764  0.00  0.00    -0.507 OA
ATOM     19  H   UNL     1      -6.143  -5.346  -0.141  0.00  0.00    +0.292 HD
ENDBRANCH   4  18
TORSDOF 4
