REMARK  Name = ZINC46624457
REMARK  6 active torsions:
REMARK  status: ('A' for Active; 'I' for Inactive)
REMARK    1  A    between atoms: C_1  and  N_2
REMARK    2  A    between atoms: N_2  and  C_3
REMARK    3  A    between atoms: C_6  and  C_10
REMARK    4  A    between atoms: C_10  and  N_11
REMARK    5  A    between atoms: C_12  and  C_14
REMARK    6  A    between atoms: N_19  and  C_21
REMARK                            x       y       z     vdW  Elec       q    Type
REMARK                         _______ _______ _______ _____ _____    ______ ____
ROOT
ATOM      1  N   UNL     1      -1.351  -4.764  -2.463  0.00  0.00    -0.311 N 
ATOM      2  C   UNL     1      -1.585  -6.091  -2.499  0.00  0.00    +0.218 C 
ATOM      3  O   UNL     1      -0.655  -6.870  -2.529  0.00  0.00    -0.275 OA
ATOM      4  H   UNL     1      -2.094  -4.141  -2.439  0.00  0.00    +0.149 HD
ENDROOT
BRANCH   2   5
ATOM      5  C   UNL     1      -3.000  -6.607  -2.504  0.00  0.00    +0.101 C 
ATOM      6  C   UNL     1      -3.743  -6.175  -3.789  0.00  0.00    +0.110 C 
ATOM      7  C   UNL     1      -3.543  -7.334  -4.740  0.00  0.00    +0.221 C 
ATOM      8  O   UNL     1      -3.723  -7.287  -5.939  0.00  0.00    -0.275 OA
ATOM      9  N   UNL     1      -3.138  -8.422  -4.064  0.00  0.00    -0.269 N 
ATOM     10  C   UNL     1      -3.027  -8.147  -2.626  0.00  0.00    +0.127 C 
BRANCH   9  11
ATOM     11  C   UNL     1      -2.857  -9.660  -4.655  0.00  0.00    +0.055 A 
ATOM     12  C   UNL     1      -1.571  -9.945  -5.095  0.00  0.00    +0.025 A 
ATOM     13  C   UNL     1      -1.297 -11.167  -5.677  0.00  0.00    +0.002 A 
ATOM     14  C   UNL     1      -2.301 -12.107  -5.822  0.00  0.00    +0.002 A 
ATOM     15  C   UNL     1      -3.583 -11.827  -5.386  0.00  0.00    +0.022 A 
ATOM     16  C   UNL     1      -3.863 -10.608  -4.797  0.00  0.00    +0.062 A 
ATOM     17 CL   UNL     1      -5.471 -10.259  -4.243  0.00  0.00    -0.082 Cl
ENDBRANCH   9  11
ENDBRANCH   2   5
BRANCH   1  18
ATOM     18  C   UNL     1       0.025  -4.262  -2.458  0.00  0.00    +0.139 C 
BRANCH  18  24
ATOM     19  C   UNL     1      -0.018   1.461   0.010  0.00  0.00    +0.130 C 
ATOM     20  N   UNL     1       0.002  -0.004   0.002  0.00  0.00    -0.323 N 
ATOM     21  C   UNL     1       0.024  -0.743   1.267  0.00  0.00    +0.130 C 
ATOM     22  C   UNL     1       0.000  -0.693  -1.206  0.00  0.00    +0.098 A 
ATOM     23  C   UNL     1       0.013  -2.084  -1.206  0.00  0.00    +0.047 A 
ATOM     24  C   UNL     1       0.011  -2.756  -2.415  0.00  0.00    -0.026 A 
ATOM     25  C   UNL     1      -0.004  -2.012  -3.587  0.00  0.00    +0.023 A 
ATOM     26  C   UNL     1      -0.017  -0.633  -3.513  0.00  0.00    +0.084 A 
ATOM     27  N   UNL     1      -0.020  -0.019  -2.345  0.00  0.00    -0.350 N 
ATOM     28  H   UNL     1      -0.033   0.951  -2.321  0.00  0.00    +0.166 HD
ENDBRANCH  18  24
ENDBRANCH   1  18
TORSDOF 4
