REMARK  Name = ZINC22628459
REMARK  8 active torsions:
REMARK  status: ('A' for Active; 'I' for Inactive)
REMARK    1  A    between atoms: C_1  and  N_2
REMARK    2  A    between atoms: C_3  and  C_5
REMARK    3  A    between atoms: C_5  and  C_6
REMARK    4  A    between atoms: C_12  and  S_14
REMARK    5  A    between atoms: S_14  and  C_15
REMARK    6  A    between atoms: C_15  and  C_16
REMARK    7  A    between atoms: N_18  and  C_19
REMARK    8  A    between atoms: C_22  and  C_25
REMARK                            x       y       z     vdW  Elec       q    Type
REMARK                         _______ _______ _______ _____ _____    ______ ____
ROOT
ATOM      1  S   UNL     1      -5.246  -3.476   2.763  0.00  0.00    -0.078 S 
ENDROOT
BRANCH   1   8
ATOM      2  C   UNL     1      -2.538  -2.750   0.015  0.00  0.00    +0.058 A 
ATOM      3  C   UNL     1      -3.151  -3.081  -1.160  0.00  0.00    +0.094 A 
ATOM      4  C   UNL     1      -4.473  -3.557  -1.126  0.00  0.00    +0.252 A 
ATOM      5  O   UNL     1      -5.051  -3.863  -2.156  0.00  0.00    -0.268 OA
ATOM      6  N   UNL     1      -5.092  -3.671   0.069  0.00  0.00    -0.302 N 
ATOM      7  H   UNL     1      -6.004  -3.997   0.116  0.00  0.00    +0.171 HD
ATOM      8  C   UNL     1      -4.431  -3.325   1.208  0.00  0.00    +0.170 A 
ATOM      9  N   UNL     1      -3.188  -2.884   1.168  0.00  0.00    -0.228 NA
BRANCH   2  10
ATOM     10  C   UNL     1      -1.121  -2.238   0.005  0.00  0.00    +0.151 C 
BRANCH  10  13
ATOM     11  C   UNL     1       0.021   1.416   0.005  0.00  0.00    +0.128 C 
ATOM     12  N   UNL     1       0.031  -0.049   0.001  0.00  0.00    -0.318 N 
ATOM     13  C   UNL     1      -1.132  -0.731   0.009  0.00  0.00    +0.219 C 
ATOM     14  O   UNL     1      -2.186  -0.132   0.018  0.00  0.00    -0.275 OA
ATOM     15  H   UNL     1       0.874  -0.528  -0.006  0.00  0.00    +0.148 HD
ENDBRANCH  10  13
ENDBRANCH   2  10
ENDBRANCH   1   8
BRANCH   1  16
ATOM     16  C   UNL     1      -4.008  -2.916   3.964  0.00  0.00    +0.173 C 
BRANCH  16  17
ATOM     17  C   UNL     1      -4.584  -2.995   5.354  0.00  0.00    +0.227 C 
ATOM     18  O   UNL     1      -5.719  -3.391   5.518  0.00  0.00    -0.275 OA
ATOM     19  N   UNL     1      -3.839  -2.627   6.415  0.00  0.00    -0.285 N 
ATOM     20  H   UNL     1      -2.911  -2.374   6.291  0.00  0.00    +0.155 HD
BRANCH  19  21
ATOM     21  C   UNL     1      -4.404  -2.608   7.695  0.00  0.00    +0.033 A 
ATOM     22  C   UNL     1      -4.024  -1.635   8.610  0.00  0.00    +0.024 A 
ATOM     23  C   UNL     1      -4.584  -1.620   9.872  0.00  0.00    +0.014 A 
ATOM     24  C   UNL     1      -5.523  -2.572  10.225  0.00  0.00    +0.055 A 
ATOM     25  C   UNL     1      -5.904  -3.542   9.317  0.00  0.00    +0.014 A 
ATOM     26  C   UNL     1      -5.352  -3.559   8.051  0.00  0.00    +0.024 A 
BRANCH  24  27
ATOM     27  C   UNL     1      -6.132  -2.552  11.604  0.00  0.00    +0.417 C 
ATOM     28  F   UNL     1      -7.283  -1.758  11.593  0.00  0.00    -0.166 F 
ATOM     29  F   UNL     1      -6.468  -3.856  11.984  0.00  0.00    -0.166 F 
ATOM     30  F   UNL     1      -5.209  -2.024  12.514  0.00  0.00    -0.166 F 
ENDBRANCH  24  27
ENDBRANCH  19  21
ENDBRANCH  16  17
ENDBRANCH   1  16
TORSDOF 7
