REMARK  Name = ZINC63217469
REMARK  5 active torsions:
REMARK  status: ('A' for Active; 'I' for Inactive)
REMARK    1  A    between atoms: C_3  and  S_7
REMARK    2  A    between atoms: S_7  and  C_8
REMARK    3  A    between atoms: C_8  and  C_9
REMARK    4  A    between atoms: C_12  and  N_23
REMARK    5  A    between atoms: N_14  and  C_20
REMARK                            x       y       z     vdW  Elec       q    Type
REMARK                         _______ _______ _______ _____ _____    ______ ____
ROOT
ATOM      1  C   UNL     1       5.679   2.470  -0.170  0.00  0.00    +0.177 C 
ATOM      2  O   UNL     1       6.387   2.241   0.954  0.00  0.00    -0.291 OA
ATOM      3  C   UNL     1       6.288   2.975  -1.258  0.00  0.00    +0.092 C 
ATOM      4  C   UNL     1       7.799   3.084  -1.341  0.00  0.00    +0.183 C 
ATOM      5  N   UNL     1       8.352   3.653  -2.582  0.00  0.00    -0.263 N 
ATOM      6  C   UNL     1       7.506   4.037  -3.555  0.00  0.00    +0.310 C 
ATOM      7  O   UNL     1       7.973   4.505  -4.576  0.00  0.00    -0.252 OA
ATOM      8  N   UNL     1       6.178   3.928  -3.454  0.00  0.00    -0.236 N 
ATOM      9  C   UNL     1       5.545   3.424  -2.384  0.00  0.00    +0.254 C 
ATOM     10  O   UNL     1       4.330   3.355  -2.375  0.00  0.00    -0.270 OA
ATOM     11  H   UNL     1       5.638   4.229  -4.202  0.00  0.00    +0.159 HD
ENDROOT
BRANCH   5  12
ATOM     12  C   UNL     1       9.800   3.799  -2.753  0.00  0.00    +0.080 C 
ATOM     13  C   UNL     1      10.700   3.278  -1.631  0.00  0.00    +0.024 C 
ATOM     14  C   UNL     1      10.524   4.784  -1.833  0.00  0.00    +0.024 C 
ENDBRANCH   5  12
BRANCH   4  15
ATOM     15  N   UNL     1       8.362   1.739  -1.168  0.00  0.00    -0.309 NA
ATOM     16  H   UNL     1       8.102   1.350  -0.274  0.00  0.00    +0.120 HD
ATOM     17  H   UNL     1       8.083   1.130  -1.922  0.00  0.00    +0.120 HD
ENDBRANCH   4  15
BRANCH   1  18
ATOM     18  C   UNL     1       4.205   2.159  -0.208  0.00  0.00    +0.156 C 
BRANCH  18  19
ATOM     19  S   UNL     1       3.287   3.475   0.638  0.00  0.00    -0.079 S 
BRANCH  19  22
ATOM     20  C   UNL     1      -0.165   1.822   0.017  0.00  0.00    +0.245 A 
ATOM     21  N   UNL     1       1.164   1.879  -0.078  0.00  0.00    -0.209 NA
ATOM     22  C   UNL     1       1.603   2.972   0.509  0.00  0.00    +0.184 A 
ATOM     23  N   UNL     1       0.534   3.639   0.996  0.00  0.00    -0.254 N 
ATOM     24  H   UNL     1       0.544   4.480   1.479  0.00  0.00    +0.191 HD
ATOM     25  N   UNL     1      -0.594   2.872   0.663  0.00  0.00    -0.160 NA
ENDBRANCH  19  22
ENDBRANCH  18  19
ENDBRANCH   1  18
TORSDOF 5
