REMARK  Name = ZINC15787788
REMARK  9 active torsions:
REMARK  status: ('A' for Active; 'I' for Inactive)
REMARK    1  A    between atoms: C_1  and  N_51
REMARK    2  A    between atoms: C_2  and  N_51
REMARK    3  A    between atoms: C_3  and  C_5
REMARK    4  A    between atoms: C_3  and  C_24
REMARK    5  A    between atoms: C_3  and  N_51
REMARK    6  A    between atoms: C_5  and  N_6
REMARK    7  A    between atoms: C_7  and  C_9
REMARK    8  A    between atoms: C_13  and  N_15
REMARK    9  A    between atoms: C_16  and  C_18
REMARK                            x       y       z     vdW  Elec       q    Type
REMARK                         _______ _______ _______ _____ _____    ______ ____
ROOT
ATOM      1  N   UNL     1       0.440  -1.254   1.421  0.00  0.00    -0.313 N 
ATOM      2  C   UNL     1       0.495  -2.591   1.259  0.00  0.00    +0.244 C 
ATOM      3  O   UNL     1      -0.058  -3.323   2.056  0.00  0.00    -0.270 OA
ATOM      4  H   UNL     1       0.881  -0.670   0.784  0.00  0.00    +0.149 HD
ENDROOT
BRANCH   2   5
ATOM      5  C   UNL     1       1.227  -3.167   0.111  0.00  0.00    +0.039 A 
ATOM      6  C   UNL     1       1.858  -2.328  -0.810  0.00  0.00    +0.014 A 
ATOM      7  C   UNL     1       2.545  -2.868  -1.877  0.00  0.00    +0.022 A 
ATOM      8  C   UNL     1       2.602  -4.240  -2.046  0.00  0.00    +0.062 A 
ATOM      9  C   UNL     1       1.972  -5.084  -1.137  0.00  0.00    +0.053 A 
ATOM     10  C   UNL     1       1.285  -4.551  -0.059  0.00  0.00    +0.037 A 
ATOM     11 CL   UNL     1       3.463  -4.910  -3.397  0.00  0.00    -0.082 Cl
BRANCH   9  12
ATOM     12  N   UNL     1       2.034  -6.471  -1.312  0.00  0.00    -0.280 N 
ATOM     13  C   UNL     1       0.999  -7.245  -0.929  0.00  0.00    +0.255 C 
ATOM     14  O   UNL     1      -0.026  -6.731  -0.520  0.00  0.00    -0.269 OA
ATOM     15  H   UNL     1       2.821  -6.875  -1.708  0.00  0.00    +0.155 HD
BRANCH  13  16
ATOM     16  C   UNL     1       1.107  -8.704  -1.006  0.00  0.00    +0.074 A 
ATOM     17  C   UNL     1       0.172  -9.669  -0.667  0.00  0.00    +0.021 A 
ATOM     18  C   UNL     1       0.536 -10.981  -0.840  0.00  0.00    +0.008 A 
ATOM     19  C   UNL     1       1.772 -11.268  -1.326  0.00  0.00    +0.046 A 
ATOM     20  S   UNL     1       2.475  -9.702  -1.569  0.00  0.00    -0.092 S 
ENDBRANCH  13  16
ENDBRANCH   9  12
ENDBRANCH   2   5
BRANCH   1  21
ATOM     21  C   UNL     1      -0.286  -0.684   2.558  0.00  0.00    +0.094 C 
BRANCH  21  22
ATOM     22  C   UNL     1      -0.337   0.839   2.418  0.00  0.00    -0.020 C 
BRANCH  22  23
ATOM     23  C   UNL     1      -1.000   1.433   3.634  0.00  0.00    -0.041 A 
ATOM     24  C   UNL     1      -2.353   1.716   3.614  0.00  0.00    +0.003 A 
ATOM     25  C   UNL     1      -2.962   2.261   4.729  0.00  0.00    +0.000 A 
ATOM     26  C   UNL     1      -2.218   2.524   5.865  0.00  0.00    +0.001 A 
ATOM     27  C   UNL     1      -0.865   2.241   5.885  0.00  0.00    +0.020 A 
ATOM     28  C   UNL     1      -0.257   1.691   4.771  0.00  0.00    +0.043 A 
ATOM     29 CL   UNL     1       1.441   1.329   4.799  0.00  0.00    -0.083 Cl
ENDBRANCH  22  23
BRANCH  22  32
ATOM     30  C   UNL     1      -2.202   0.242   0.993  0.00  0.00    -0.096 C 
ATOM     31  C   UNL     1      -0.233   1.280   0.040  0.00  0.00    -0.096 C 
ATOM     32  N   UNL     1      -1.118   1.220   1.222  0.00  0.00    +0.382 N 
ATOM     33  H   UNL     1      -1.532   2.147   1.376  0.00  0.00    -0.082 HD
ENDBRANCH  22  32
ENDBRANCH  21  22
ENDBRANCH   1  21
TORSDOF 7
