REMARK  Name = ZINC08430048
REMARK  7 active torsions:
REMARK  status: ('A' for Active; 'I' for Inactive)
REMARK    1  A    between atoms: C_3  and  C_6
REMARK    2  A    between atoms: C_6  and  N_54
REMARK    3  A    between atoms: C_7  and  C_8
REMARK    4  A    between atoms: C_7  and  N_54
REMARK    5  A    between atoms: N_10  and  C_11
REMARK    6  A    between atoms: C_12  and  C_21
REMARK    7  A    between atoms: N_23  and  C_24
REMARK                            x       y       z     vdW  Elec       q    Type
REMARK                         _______ _______ _______ _____ _____    ______ ____
ROOT
ATOM      1  C   UNL     1       4.359  -1.700   1.456  0.00  0.00    +0.084 A 
ATOM      2  C   UNL     1       3.005  -1.644   1.747  0.00  0.00    +0.069 A 
ATOM      3  C   UNL     1       2.193  -0.680   1.017  0.00  0.00    -0.023 A 
ATOM      4  C   UNL     1       2.867   0.062   0.113  0.00  0.00    -0.004 A 
ATOM      5  S   UNL     1       4.546  -0.492   0.229  0.00  0.00    -0.077 S 
ATOM      6  C   UNL     1       2.317   1.110  -0.803  0.00  0.00    +0.043 C 
ATOM      7  C   UNL     1       1.442   2.079   0.003  0.00  0.00    +0.005 C 
ATOM      8  C   UNL     1       0.013   1.545   0.012  0.00  0.00    +0.001 C 
ATOM      9  C   UNL     1       0.022   0.018   0.002  0.00  0.00    +0.005 C 
ATOM     10  C   UNL     1       0.698  -0.519   1.259  0.00  0.00    +0.037 C 
ENDROOT
BRANCH   1  13
ATOM     11  C   UNL     1       6.606  -2.432   1.596  0.00  0.00    +0.201 C 
ATOM     12  O   UNL     1       6.910  -1.631   0.737  0.00  0.00    -0.278 OA
ATOM     13  N   UNL     1       5.327  -2.522   2.011  0.00  0.00    -0.281 N 
ATOM     14  H   UNL     1       5.084  -3.163   2.697  0.00  0.00    +0.155 HD
BRANCH  11  15
ATOM     15  C   UNL     1       7.659  -3.326   2.199  0.00  0.00    +0.016 C 
BRANCH  15  16
ATOM     16  N   UNL     1       8.962  -3.028   1.575  0.00  0.00    +0.389 N 
ATOM     17  H   UNL     1       8.900  -3.196   0.564  0.00  0.00    -0.085 HD
ATOM     18  H   UNL     1       9.201  -2.044   1.745  0.00  0.00    -0.085 HD
BRANCH  16  19
ATOM     19  C   UNL     1      10.013  -3.890   2.148  0.00  0.00    -0.006 C 
BRANCH  19  22
ATOM     20  C   UNL     1      13.301  -2.670   1.015  0.00  0.00    +0.041 A 
ATOM     21  C   UNL     1      12.214  -2.644   1.919  0.00  0.00    +0.042 A 
ATOM     22  C   UNL     1      11.330  -3.564   1.493  0.00  0.00    +0.088 A 
ATOM     23  O   UNL     1      11.824  -4.146   0.388  0.00  0.00    -0.470 OA
ATOM     24  C   UNL     1      13.016  -3.604   0.090  0.00  0.00    +0.195 A 
ENDBRANCH  19  22
ENDBRANCH  16  19
ENDBRANCH  15  16
ENDBRANCH  11  15
ENDBRANCH   1  13
BRANCH   2  25
ATOM     25  C   UNL     1       2.410  -2.526   2.757  0.00  0.00    +0.251 C 
ATOM     26  O   UNL     1       1.973  -3.614   2.432  0.00  0.00    -0.270 OA
ATOM     27  N   UNL     1       2.347  -2.131   4.044  0.00  0.00    -0.281 N 
ATOM     28  H   UNL     1       2.755  -1.293   4.314  0.00  0.00    +0.155 HD
BRANCH  27  29
ATOM     29  C   UNL     1       1.694  -2.928   4.989  0.00  0.00    +0.034 A 
ATOM     30  C   UNL     1       0.994  -2.338   6.033  0.00  0.00    +0.024 A 
ATOM     31  C   UNL     1       0.344  -3.128   6.961  0.00  0.00    +0.017 A 
ATOM     32  C   UNL     1       0.402  -4.506   6.859  0.00  0.00    +0.018 A 
ATOM     33  C   UNL     1       1.104  -5.098   5.824  0.00  0.00    +0.017 A 
ATOM     34  C   UNL     1       1.750  -4.312   4.889  0.00  0.00    +0.024 A 
ATOM     35 BR   UNL     1      -0.482  -5.585   8.137  0.00  0.00    -0.050 Br
ENDBRANCH  27  29
ENDBRANCH   2  25
TORSDOF 7
