REMARK  Name = ZINC43465450
REMARK  11 active torsions:
REMARK  status: ('A' for Active; 'I' for Inactive)
REMARK    1  A    between atoms: C_3  and  O_21
REMARK    2  A    between atoms: C_4  and  O_20
REMARK    3  A    between atoms: C_6  and  C_7
REMARK    4  A    between atoms: C_12  and  O_19
REMARK    5  A    between atoms: C_14  and  O_18
REMARK    6  A    between atoms: O_21  and  C_22
REMARK    7  A    between atoms: C_24  and  O_37
REMARK    8  A    between atoms: C_26  and  O_36
REMARK    9  A    between atoms: C_28  and  O_35
REMARK   10  A    between atoms: C_30  and  C_33
REMARK   11  A    between atoms: C_33  and  O_34
REMARK                            x       y       z     vdW  Elec       q    Type
REMARK                         _______ _______ _______ _____ _____    ______ ____
ROOT
ATOM      1  C   UNL     1      -0.017   1.393   0.010  0.00  0.00    +0.015 A 
ATOM      2  C   UNL     1       1.167   2.098   0.002  0.00  0.00    +0.050 A 
ATOM      3  C   UNL     1       2.380   1.424  -0.013  0.00  0.00    +0.165 A 
ATOM      4  C   UNL     1       2.407   0.030  -0.021  0.00  0.00    +0.159 A 
ATOM      5  C   UNL     1       1.224  -0.683  -0.014  0.00  0.00    +0.060 A 
ATOM      6  C   UNL     1       0.002  -0.004   0.002  0.00  0.00    +0.021 A 
ENDROOT
BRANCH   6   7
ATOM      7  C   UNL     1      -1.264  -0.761   0.011  0.00  0.00    +0.139 A 
ATOM      8  C   UNL     1      -2.437  -0.072   0.020  0.00  0.00    +0.098 A 
ATOM      9  C   UNL     1      -3.662  -0.781   0.029  0.00  0.00    +0.197 A 
ATOM     10  O   UNL     1      -4.733  -0.196   0.037  0.00  0.00    -0.287 OA
ATOM     11  C   UNL     1      -3.594  -2.252   0.026  0.00  0.00    +0.105 A 
ATOM     12  C   UNL     1      -4.755  -3.034   0.033  0.00  0.00    +0.135 A 
ATOM     13  C   UNL     1      -4.648  -4.413   0.030  0.00  0.00    +0.091 A 
ATOM     14  C   UNL     1      -3.396  -5.016   0.020  0.00  0.00    +0.124 A 
ATOM     15  C   UNL     1      -2.241  -4.248   0.013  0.00  0.00    +0.092 A 
ATOM     16  C   UNL     1      -2.329  -2.865   0.016  0.00  0.00    +0.146 A 
ATOM     17  O   UNL     1      -1.215  -2.102   0.003  0.00  0.00    -0.454 OA
BRANCH  14  18
ATOM     18  O   UNL     1      -3.302  -6.370   0.018  0.00  0.00    -0.507 OA
ATOM     19  H   UNL     1      -3.281  -6.762  -0.866  0.00  0.00    +0.292 HD
ENDBRANCH  14  18
BRANCH  12  20
ATOM     20  O   UNL     1      -5.977  -2.444   0.044  0.00  0.00    -0.506 OA
ATOM     21  H   UNL     1      -6.338  -2.271  -0.837  0.00  0.00    +0.292 HD
ENDBRANCH  12  20
ENDBRANCH   6   7
BRANCH   4  22
ATOM     22  O   UNL     1       3.597  -0.627  -0.037  0.00  0.00    -0.503 OA
ATOM     23  H   UNL     1       3.950  -0.822   0.842  0.00  0.00    +0.292 HD
ENDBRANCH   4  22
BRANCH   3  24
ATOM     24  O   UNL     1       3.545   2.124  -0.022  0.00  0.00    -0.457 OA
BRANCH  24  25
ATOM     25  C   UNL     1       3.445   3.549  -0.014  0.00  0.00    +0.339 C 
ATOM     26  C   UNL     1       4.824   4.159  -0.275  0.00  0.00    +0.214 C 
ATOM     27  C   UNL     1       5.776   3.753   0.856  0.00  0.00    +0.180 C 
ATOM     28  C   UNL     1       5.184   4.206   2.194  0.00  0.00    +0.177 C 
ATOM     29  C   UNL     1       3.790   3.595   2.359  0.00  0.00    +0.179 C 
ATOM     30  O   UNL     1       2.965   3.986   1.260  0.00  0.00    -0.331 OA
BRANCH  28  31
ATOM     31  O   UNL     1       5.086   5.632   2.215  0.00  0.00    -0.386 OA
ATOM     32  H   UNL     1       5.934   6.085   2.110  0.00  0.00    +0.210 HD
ENDBRANCH  28  31
BRANCH  27  33
ATOM     33  O   UNL     1       5.937   2.333   0.858  0.00  0.00    -0.386 OA
ATOM     34  H   UNL     1       6.302   1.978   0.037  0.00  0.00    +0.210 HD
ENDBRANCH  27  33
BRANCH  26  35
ATOM     35  O   UNL     1       5.331   3.679  -1.522  0.00  0.00    -0.383 OA
ATOM     36  H   UNL     1       4.774   3.897  -2.282  0.00  0.00    +0.210 HD
ENDBRANCH  26  35
BRANCH  29  37
ATOM     37  C   UNL     1       3.167   4.090   3.666  0.00  0.00    +0.190 C 
BRANCH  37  38
ATOM     38  O   UNL     1       1.918   3.430   3.878  0.00  0.00    -0.392 OA
ATOM     39  H   UNL     1       1.465   3.696   4.691  0.00  0.00    +0.210 HD
ENDBRANCH  37  38
ENDBRANCH  29  37
ENDBRANCH  24  25
ENDBRANCH   3  24
TORSDOF 11
