REMARK  Name = ZINC48098254
REMARK  7 active torsions:
REMARK  status: ('A' for Active; 'I' for Inactive)
REMARK    1  A    between atoms: C_1  and  C_2
REMARK    2  A    between atoms: C_5  and  C_7
REMARK    3  A    between atoms: C_7  and  C_9
REMARK    4  A    between atoms: C_7  and  N_10
REMARK    5  A    between atoms: N_10  and  C_11
REMARK    6  A    between atoms: N_14  and  C_15
REMARK    7  A    between atoms: C_19  and  C_21
REMARK                            x       y       z     vdW  Elec       q    Type
REMARK                         _______ _______ _______ _____ _____    ______ ____
ROOT
ATOM      1  N   UNL     1       4.772  -4.680   0.626  0.00  0.00    -0.281 N 
ATOM      2  C   UNL     1       3.597  -4.003   0.070  0.00  0.00    +0.134 C 
ATOM      3  C   UNL     1       4.672  -5.357   1.787  0.00  0.00    +0.307 C 
ATOM      4  O   UNL     1       5.647  -5.919   2.248  0.00  0.00    -0.252 OA
ATOM      5  N   UNL     1       3.493  -5.412   2.436  0.00  0.00    -0.269 N 
ATOM      6  H   UNL     1       2.733  -4.909   2.104  0.00  0.00    +0.156 HD
ENDROOT
BRANCH   5   7
ATOM      7  C   UNL     1       3.365  -6.194   3.590  0.00  0.00    +0.035 A 
ATOM      8  C   UNL     1       2.172  -6.860   3.849  0.00  0.00    +0.023 A 
ATOM      9  C   UNL     1       2.041  -7.633   4.987  0.00  0.00    +0.003 A 
ATOM     10  C   UNL     1       3.092  -7.750   5.873  0.00  0.00    +0.013 A 
ATOM     11  C   UNL     1       4.294  -7.086   5.622  0.00  0.00    +0.039 A 
ATOM     12  C   UNL     1       4.428  -6.309   4.471  0.00  0.00    +0.036 A 
BRANCH  11  13
ATOM     13  C   UNL     1       5.422  -7.209   6.569  0.00  0.00    +0.247 C 
ATOM     14  O   UNL     1       5.730  -8.300   7.009  0.00  0.00    -0.270 OA
ATOM     15  N   UNL     1       6.109  -6.112   6.945  0.00  0.00    -0.298 N 
ATOM     16  C   UNL     1       5.806  -4.801   6.358  0.00  0.00    +0.108 C 
ATOM     17  C   UNL     1       5.539  -3.803   7.489  0.00  0.00    +0.019 C 
ATOM     18  C   UNL     1       6.729  -3.800   8.452  0.00  0.00    +0.003 C 
ATOM     19  C   UNL     1       6.895  -5.193   9.065  0.00  0.00    +0.019 C 
ATOM     20  C   UNL     1       7.173  -6.205   7.955  0.00  0.00    +0.108 C 
ENDBRANCH  11  13
ENDBRANCH   5   7
BRANCH   1  21
ATOM     21  C   UNL     1       6.054  -4.621  -0.081  0.00  0.00    +0.111 C 
ATOM     22  C   UNL     1       6.496  -3.162  -0.213  0.00  0.00    +0.034 C 
BRANCH  21  27
ATOM     23  C   UNL     1       4.603  -6.431  -5.249  0.00  0.00    +0.051 C 
ATOM     24  C   UNL     1       5.209  -6.088  -3.913  0.00  0.00    -0.013 A 
ATOM     25  C   UNL     1       6.402  -6.468  -3.394  0.00  0.00    +0.011 A 
ATOM     26  C   UNL     1       6.756  -6.027  -2.133  0.00  0.00    +0.013 A 
ATOM     27  C   UNL     1       5.900  -5.226  -1.452  0.00  0.00    +0.010 A 
ATOM     28  S   UNL     1       4.546  -5.068  -2.605  0.00  0.00    -0.097 S 
ENDBRANCH  21  27
ENDBRANCH   1  21
TORSDOF 4
