REMARK  Name = ZINC09580697
REMARK  4 active torsions:
REMARK  status: ('A' for Active; 'I' for Inactive)
REMARK    1  A    between atoms: C_1  and  C_2
REMARK    2  A    between atoms: C_5  and  C_8
REMARK    3  A    between atoms: C_13  and  N_17
REMARK    4  A    between atoms: C_22  and  N_53
REMARK                            x       y       z     vdW  Elec       q    Type
REMARK                         _______ _______ _______ _____ _____    ______ ____
ROOT
ATOM      1  C   UNL     1      -1.714  -0.971   2.588  0.00  0.00    +0.002 A 
ATOM      2  C   UNL     1      -2.130  -1.905   3.476  0.00  0.00    +0.056 A 
ATOM      3  S   UNL     1      -0.836  -1.918   4.703  0.00  0.00    -0.076 S 
ATOM      4  C   UNL     1       0.225  -0.680   4.005  0.00  0.00    +0.114 A 
ATOM      5  C   UNL     1      -0.453  -0.280   2.835  0.00  0.00    +0.055 A 
ATOM      6  C   UNL     1       0.198   0.720   2.065  0.00  0.00    +0.133 A 
ATOM      7  N   UNL     1       1.356   1.206   2.483  0.00  0.00    -0.220 NA
ATOM      8  C   UNL     1       1.933   0.788   3.595  0.00  0.00    +0.224 A 
ATOM      9  N   UNL     1       1.379  -0.142   4.349  0.00  0.00    -0.228 NA
ENDROOT
BRANCH   1  14
ATOM     10  C   UNL     1      -4.876   0.267  -2.062  0.00  0.00    +0.044 C 
ATOM     11  C   UNL     1      -4.049  -0.057  -0.844  0.00  0.00    -0.050 A 
ATOM     12  C   UNL     1      -3.630  -1.357  -0.622  0.00  0.00    +0.004 A 
ATOM     13  C   UNL     1      -2.872  -1.659   0.490  0.00  0.00    +0.009 A 
ATOM     14  C   UNL     1      -2.528  -0.652   1.392  0.00  0.00    -0.017 A 
ATOM     15  C   UNL     1      -2.959   0.654   1.165  0.00  0.00    +0.009 A 
ATOM     16  C   UNL     1      -3.712   0.946   0.046  0.00  0.00    +0.004 A 
ENDBRANCH   1  14
BRANCH   6  17
ATOM     17  N   UNL     1      -0.374   1.185   0.894  0.00  0.00    -0.318 N 
ATOM     18  C   UNL     1       0.332   0.660  -0.282  0.00  0.00    +0.088 C 
ATOM     19  C   UNL     1      -0.378   1.132  -1.554  0.00  0.00    -0.059 C 
ATOM     20  C   UNL     1      -1.118   3.126  -0.400  0.00  0.00    -0.059 C 
ATOM     21  C   UNL     1      -0.409   2.654   0.872  0.00  0.00    +0.088 C 
ATOM     22  N   UNL     1      -0.385   2.609  -1.575  0.00  0.00    +0.385 N 
ATOM     23  H   UNL     1       0.584   2.949  -1.539  0.00  0.00    -0.081 HD
BRANCH  22  24
ATOM     24  C   UNL     1      -1.019   3.094  -2.819  0.00  0.00    -0.046 C 
ATOM     25  C   UNL     1      -1.040   4.632  -2.812  0.00  0.00    +0.009 C 
ATOM     26  C   UNL     1      -1.373   5.162  -4.227  0.00  0.00    +0.164 C 
ATOM     27  S   UNL     1      -0.738   3.825  -5.319  0.00  0.00    -0.033 S 
ATOM     28  O   UNL     1      -1.826   3.257  -6.035  0.00  0.00    -0.174 OA
ATOM     29  O   UNL     1       0.392   4.308  -6.032  0.00  0.00    -0.174 OA
ATOM     30  C   UNL     1      -0.173   2.627  -4.038  0.00  0.00    +0.151 C 
ENDBRANCH  22  24
ENDBRANCH   6  17
TORSDOF 3
