REMARK  Name = ZINC09450621
REMARK  4 active torsions:
REMARK  status: ('A' for Active; 'I' for Inactive)
REMARK    1  A    between atoms: C_6  and  C_7
REMARK    2  A    between atoms: C_7  and  C_8
REMARK    3  A    between atoms: C_8  and  N_10
REMARK    4  A    between atoms: N_12  and  C_23
REMARK                            x       y       z     vdW  Elec       q    Type
REMARK                         _______ _______ _______ _____ _____    ______ ____
ROOT
ATOM      1  N   UNL     1      -3.108  -0.843  -1.907  0.00  0.00    -0.159 NA
ATOM      2  C   UNL     1      -3.318  -1.386  -3.100  0.00  0.00    +0.154 C 
ATOM      3  N   UNL     1      -2.524  -1.304  -4.213  0.00  0.00    -0.276 N 
ATOM      4  C   UNL     1      -3.090  -1.631  -5.497  0.00  0.00    +0.116 C 
ATOM      5  C   UNL     1      -2.837  -0.575  -6.572  0.00  0.00    +0.190 C 
ATOM      6  S   UNL     1      -4.515   0.076  -6.938  0.00  0.00    -0.028 S 
ATOM      7  O   UNL     1      -4.856  -0.258  -8.277  0.00  0.00    -0.174 OA
ATOM      8  O   UNL     1      -4.585   1.431  -6.518  0.00  0.00    -0.174 OA
ATOM      9  C   UNL     1      -5.516  -0.955  -5.795  0.00  0.00    +0.182 C 
ATOM     10  C   UNL     1      -4.554  -2.097  -5.441  0.00  0.00    +0.097 C 
ATOM     11  S   UNL     1      -4.697  -2.398  -3.619  0.00  0.00    -0.086 S 
ENDROOT
BRANCH   3  12
ATOM     12  C   UNL     1      -1.185  -0.909  -4.105  0.00  0.00    +0.039 A 
ATOM     13  C   UNL     1      -0.829   0.410  -4.351  0.00  0.00    +0.027 A 
ATOM     14  C   UNL     1       0.492   0.802  -4.245  0.00  0.00    +0.051 A 
ATOM     15  C   UNL     1       1.464  -0.120  -3.893  0.00  0.00    +0.166 A 
ATOM     16  C   UNL     1       1.110  -1.444  -3.645  0.00  0.00    +0.168 A 
ATOM     17  C   UNL     1      -0.215  -1.835  -3.747  0.00  0.00    +0.073 A 
ATOM     18  O   UNL     1       2.236  -2.144  -3.321  0.00  0.00    -0.453 OA
ATOM     19  C   UNL     1       3.337  -1.331  -3.769  0.00  0.00    +0.466 C 
ATOM     20  O   UNL     1       2.814   0.009  -3.722  0.00  0.00    -0.453 OA
ENDBRANCH   3  12
BRANCH   1  21
ATOM     21  C   UNL     1      -1.940  -0.265  -1.635  0.00  0.00    +0.243 C 
ATOM     22  O   UNL     1      -0.905  -0.881  -1.800  0.00  0.00    -0.273 OA
BRANCH  21  23
ATOM     23  C   UNL     1      -1.901   1.151  -1.121  0.00  0.00    +0.133 C 
BRANCH  23  29
ATOM     24  C   UNL     1       0.264   2.267  -1.698  0.00  0.00    +0.007 A 
ATOM     25  C   UNL     1       1.568   2.614  -1.401  0.00  0.00    +0.038 A 
ATOM     26  C   UNL     1       2.131   2.220  -0.198  0.00  0.00    +0.123 A 
ATOM     27  C   UNL     1       1.387   1.480   0.704  0.00  0.00    +0.038 A 
ATOM     28  C   UNL     1       0.083   1.135   0.405  0.00  0.00    +0.007 A 
ATOM     29  C   UNL     1      -0.478   1.528  -0.796  0.00  0.00    -0.038 A 
ATOM     30  F   UNL     1       3.407   2.558   0.093  0.00  0.00    -0.205 F 
ENDBRANCH  23  29
ENDBRANCH  21  23
ENDBRANCH   1  21
TORSDOF 4
