REMARK  Name = ZINC04620491
REMARK  6 active torsions:
REMARK  status: ('A' for Active; 'I' for Inactive)
REMARK    1  A    between atoms: C_1  and  N_2
REMARK    2  A    between atoms: N_2  and  C_3
REMARK    3  A    between atoms: N_2  and  C_4
REMARK    4  A    between atoms: C_11  and  N_25
REMARK    5  A    between atoms: C_12  and  C_23
REMARK    6  A    between atoms: C_13  and  C_15
REMARK                            x       y       z     vdW  Elec       q    Type
REMARK                         _______ _______ _______ _____ _____    ______ ____
ROOT
ATOM      1  C   UNL     1      -3.552   1.083  -3.489  0.00  0.00    +0.033 A 
ATOM      2  C   UNL     1      -2.476   1.959  -3.570  0.00  0.00    +0.023 A 
ATOM      3  C   UNL     1      -1.767   2.286  -2.432  0.00  0.00    +0.010 A 
ATOM      4  C   UNL     1      -2.122   1.746  -1.208  0.00  0.00    +0.008 A 
ATOM      5  C   UNL     1      -3.194   0.872  -1.121  0.00  0.00    +0.136 A 
ATOM      6  C   UNL     1      -3.910   0.540  -2.264  0.00  0.00    +0.069 A 
ATOM      7  O   UNL     1      -3.557   0.333   0.069  0.00  0.00    -0.441 OA
ATOM      8  C   UNL     1      -3.157   0.908   1.215  0.00  0.00    +0.199 C 
ATOM      9  C   UNL     1      -2.109   1.764   1.260  0.00  0.00    +0.098 C 
ATOM     10  C   UNL     1      -1.335   2.117   0.021  0.00  0.00    +0.099 C 
ENDROOT
BRANCH  10  11
ATOM     11  C   UNL     1      -0.027   1.369   0.020  0.00  0.00    -0.016 A 
ATOM     12  C   UNL     1      -0.021  -0.014   0.022  0.00  0.00    +0.007 A 
ATOM     13  C   UNL     1       1.178  -0.700   0.015  0.00  0.00    +0.020 A 
ATOM     14  C   UNL     1       2.374  -0.004   0.007  0.00  0.00    +0.042 A 
ATOM     15  C   UNL     1       2.369   1.379   0.005  0.00  0.00    +0.040 A 
ATOM     16  C   UNL     1       1.168   2.066   0.012  0.00  0.00    +0.046 A 
ATOM     17 CL   UNL     1       1.161   3.802   0.010  0.00  0.00    -0.083 Cl
ATOM     18 CL   UNL     1       3.881  -0.867  -0.000  0.00  0.00    -0.083 Cl
ENDBRANCH  10  11
BRANCH   1  20
ATOM     19  C   UNL     1      -5.322  -0.269  -4.576  0.00  0.00    +0.129 C 
ATOM     20  N   UNL     1      -4.270   0.749  -4.639  0.00  0.00    -0.336 N 
ATOM     21  C   UNL     1      -3.973   1.417  -5.909  0.00  0.00    +0.129 C 
ENDBRANCH   1  20
BRANCH   8  22
ATOM     22  N   UNL     1      -3.830   0.618   2.376  0.00  0.00    -0.328 N 
ATOM     23  H   UNL     1      -4.582   0.006   2.360  0.00  0.00    +0.145 HD
ATOM     24  H   UNL     1      -3.553   1.025   3.212  0.00  0.00    +0.145 HD
ENDBRANCH   8  22
BRANCH   9  25
ATOM     25  C   UNL     1      -1.731   2.346   2.513  0.00  0.00    +0.101 C 
ATOM     26  N   UNL     1      -1.431   2.807   3.506  0.00  0.00    -0.191 NA
ENDBRANCH   9  25
TORSDOF 4
