REMARK  Name = ZINC04631547
REMARK  8 active torsions:
REMARK  status: ('A' for Active; 'I' for Inactive)
REMARK    1  A    between atoms: C_1  and  C_2
REMARK    2  A    between atoms: C_2  and  C_3
REMARK    3  A    between atoms: C_3  and  N_4
REMARK    4  A    between atoms: C_11  and  C_23
REMARK    5  A    between atoms: C_13  and  C_19
REMARK    6  A    between atoms: C_13  and  C_21
REMARK    7  A    between atoms: C_14  and  N_18
REMARK    8  A    between atoms: C_15  and  C_16
REMARK                            x       y       z     vdW  Elec       q    Type
REMARK                         _______ _______ _______ _____ _____    ______ ____
ROOT
ATOM      1  N   UNL     1      -0.823   5.811  -2.023  0.00  0.00    -0.298 NA
ATOM      2  C   UNL     1      -2.229   5.577  -1.652  0.00  0.00    +0.112 C 
ATOM      3  C   UNL     1      -2.327   4.185  -1.079  0.00  0.00    -0.007 C 
ATOM      4  C   UNL     1      -1.312   3.679  -0.428  0.00  0.00    -0.026 C 
ATOM      5  C   UNL     1      -0.048   4.432  -0.128  0.00  0.00    +0.044 C 
ATOM      6  C   UNL     1       0.029   5.769  -0.831  0.00  0.00    +0.093 C 
ATOM      7  C   UNL     1       1.138   3.532  -0.482  0.00  0.00    +0.068 C 
ATOM      8  C   UNL     1       1.105   2.293   0.412  0.00  0.00    +0.188 C 
ATOM      9  C   UNL     1      -0.240   1.633   0.398  0.00  0.00    +0.054 C 
ATOM     10  C   UNL     1      -1.380   2.264   0.016  0.00  0.00    +0.074 C 
ENDROOT
BRANCH   7  11
ATOM     11  C   UNL     1       2.426   4.281  -0.260  0.00  0.00    -0.037 A 
ATOM     12  C   UNL     1       3.437   4.210  -1.201  0.00  0.00    +0.008 A 
ATOM     13  C   UNL     1       4.618   4.900  -1.004  0.00  0.00    +0.050 A 
ATOM     14  C   UNL     1       4.798   5.655   0.143  0.00  0.00    +0.166 A 
ATOM     15  C   UNL     1       3.782   5.722   1.094  0.00  0.00    +0.166 A 
ATOM     16  C   UNL     1       2.598   5.033   0.887  0.00  0.00    +0.053 A 
ATOM     17  O   UNL     1       4.198   6.520   2.120  0.00  0.00    -0.453 OA
ATOM     18  C   UNL     1       5.628   6.610   1.983  0.00  0.00    +0.466 C 
ATOM     19  O   UNL     1       5.849   6.411   0.574  0.00  0.00    -0.453 OA
ENDBRANCH   7  11
BRANCH   9  20
ATOM     20  N   UNL     1      -0.324   0.325   0.784  0.00  0.00    -0.358 N 
ATOM     21  H   UNL     1      -1.297  -0.188   0.785  0.00  0.00    +0.142 HD
ATOM     22  H   UNL     1       0.582  -0.216   1.096  0.00  0.00    +0.142 HD
ENDBRANCH   9  20
BRANCH  10  23
ATOM     23  C   UNL     1      -2.634   1.574   0.044  0.00  0.00    +0.101 C 
ATOM     24  N   UNL     1      -3.629   1.026   0.067  0.00  0.00    -0.191 NA
ENDBRANCH  10  23
BRANCH   8  25
ATOM     25  C   UNL     1       1.431   2.688   1.792  0.00  0.00    +0.091 C 
ATOM     26  N   UNL     1       1.682   2.994   2.857  0.00  0.00    -0.194 NA
ENDBRANCH   8  25
BRANCH   8  27
ATOM     27  C   UNL     1       2.115   1.333  -0.062  0.00  0.00    +0.091 C 
ATOM     28  N   UNL     1       2.895   0.593  -0.429  0.00  0.00    -0.194 NA
ENDBRANCH   8  27
BRANCH   1  29
ATOM     29  C   UNL     1      -0.671   7.088  -2.734  0.00  0.00    +0.084 C 
BRANCH  29  31
ATOM     30  C   UNL     1      -1.587   8.529  -4.558  0.00  0.00    +0.005 C 
ATOM     31  C   UNL     1      -1.745   7.199  -3.818  0.00  0.00    +0.012 C 
ENDBRANCH  29  31
ENDBRANCH   1  29
TORSDOF 7
