REMARK  Name = ZINC65298626
REMARK  4 active torsions:
REMARK  status: ('A' for Active; 'I' for Inactive)
REMARK    1  A    between atoms: C_1  and  C_2
REMARK    2  A    between atoms: C_11  and  C_23
REMARK    3  A    between atoms: C_14  and  C_16
REMARK    4  A    between atoms: C_21  and  O_22
REMARK                            x       y       z     vdW  Elec       q    Type
REMARK                         _______ _______ _______ _____ _____    ______ ____
ROOT
ATOM      1  C   UNL     1      -0.018   1.503   0.010  0.00  0.00    +0.109 C 
ATOM      2  C   UNL     1       0.002  -0.004   0.002  0.00  0.00    +0.212 C 
ATOM      3  O   UNL     1       1.060  -0.596  -0.011  0.00  0.00    -0.276 OA
ATOM      4  N   UNL     1      -1.156  -0.694   0.009  0.00  0.00    -0.302 N 
ATOM      5  C   UNL     1      -2.446   0.009   0.019  0.00  0.00    +0.108 C 
ATOM      6  C   UNL     1      -3.284  -0.514   1.190  0.00  0.00    +0.029 C 
ATOM      7  C   UNL     1      -3.402  -2.038   1.088  0.00  0.00    +0.032 C 
ATOM      8  C   UNL     1      -2.005  -2.660   1.179  0.00  0.00    +0.029 C 
ATOM      9  C   UNL     1      -1.153  -2.163   0.001  0.00  0.00    +0.108 C 
ATOM     10  N   UNL     1      -4.222  -2.533   2.202  0.00  0.00    +0.400 N 
ATOM     11  C   UNL     1      -5.604  -2.057   2.025  0.00  0.00    -0.032 C 
ATOM     12  C   UNL     1      -6.208  -2.779   0.816  0.00  0.00    +0.044 C 
ATOM     13  C   UNL     1      -5.241  -2.718  -0.334  0.00  0.00    +0.044 C 
ATOM     14  N   UNL     1      -4.011  -2.393  -0.190  0.00  0.00    -0.300 NA
ATOM     15  H   UNL     1      -4.210  -3.542   2.209  0.00  0.00    -0.081 HD
ATOM     16  H   UNL     1      -3.854  -2.183   3.074  0.00  0.00    -0.081 HD
ENDROOT
BRANCH  11  17
ATOM     17  C   UNL     1      -6.411  -2.368   3.259  0.00  0.00    -0.059 A 
ATOM     18  C   UNL     1      -6.233  -3.572   3.915  0.00  0.00    +0.005 A 
ATOM     19  C   UNL     1      -6.972  -3.859   5.048  0.00  0.00    +0.040 A 
ATOM     20  C   UNL     1      -7.890  -2.940   5.526  0.00  0.00    +0.142 A 
ATOM     21  C   UNL     1      -8.067  -1.733   4.868  0.00  0.00    +0.076 A 
ATOM     22  C   UNL     1      -7.323  -1.447   3.738  0.00  0.00    +0.025 A 
ATOM     23 CL   UNL     1      -9.218  -0.579   5.466  0.00  0.00    -0.081 Cl
ATOM     24  F   UNL     1      -8.613  -3.219   6.633  0.00  0.00    -0.204 F 
ENDBRANCH  11  17
BRANCH  13  25
ATOM     25  C   UNL     1      -5.731  -3.046  -1.685  0.00  0.00    +0.037 A 
ATOM     26  C   UNL     1      -7.068  -3.400  -1.881  0.00  0.00    +0.013 A 
ATOM     27  C   UNL     1      -7.519  -3.705  -3.147  0.00  0.00    +0.001 A 
ATOM     28  C   UNL     1      -6.653  -3.664  -4.226  0.00  0.00    +0.004 A 
ATOM     29  C   UNL     1      -5.329  -3.316  -4.047  0.00  0.00    +0.046 A 
ATOM     30  C   UNL     1      -4.859  -3.000  -2.781  0.00  0.00    +0.126 A 
BRANCH  30  31
ATOM     31  O   UNL     1      -3.559  -2.653  -2.604  0.00  0.00    -0.506 OA
ATOM     32  H   UNL     1      -2.973  -3.401  -2.422  0.00  0.00    +0.292 HD
ENDBRANCH  30  31
ENDBRANCH  13  25
TORSDOF 3
