REMARK  Name = ZINC39684045
REMARK  6 active torsions:
REMARK  status: ('A' for Active; 'I' for Inactive)
REMARK    1  A    between atoms: C_1  and  C_2
REMARK    2  A    between atoms: C_7  and  C_11
REMARK    3  A    between atoms: C_11  and  C_12
REMARK    4  A    between atoms: C_12  and  N_13
REMARK    5  A    between atoms: C_14  and  C_16
REMARK    6  A    between atoms: C_27  and  C_29
REMARK                            x       y       z     vdW  Elec       q    Type
REMARK                         _______ _______ _______ _____ _____    ______ ____
ROOT
ATOM      1  C   UNL     1      -8.679   1.728  -6.213  0.00  0.00    +0.100 C 
ATOM      2  C   UNL     1      -9.911   2.118  -5.365  0.00  0.00    +0.121 C 
ATOM      3  N   UNL     1     -11.074   1.668  -6.166  0.00  0.00    -0.296 N 
ATOM      4  C   UNL     1     -10.647   0.369  -6.739  0.00  0.00    +0.115 C 
ATOM      5  C   UNL     1      -9.166   0.580  -7.113  0.00  0.00    -0.004 C 
ATOM      6  C   UNL     1      -9.043   0.973  -8.582  0.00  0.00    -0.010 C 
ATOM      7  C   UNL     1      -9.480  -0.205  -9.458  0.00  0.00    -0.082 C 
ATOM      8  N   UNL     1      -8.636  -1.371  -9.169  0.00  0.00    +0.379 N 
ATOM      9  C   UNL     1      -8.830  -1.798  -7.779  0.00  0.00    -0.082 C 
ATOM     10  C   UNL     1      -8.366  -0.688  -6.832  0.00  0.00    -0.010 C 
ATOM     11  C   UNL     1     -12.254   2.298  -6.335  0.00  0.00    +0.248 C 
ATOM     12  O   UNL     1     -12.420   3.411  -5.875  0.00  0.00    -0.270 OA
ATOM     13  H   UNL     1      -8.885  -2.127  -9.790  0.00  0.00    -0.086 HD
ATOM     14  H   UNL     1      -7.667  -1.127  -9.313  0.00  0.00    -0.086 HD
ENDROOT
BRANCH  11  15
ATOM     15  C   UNL     1     -13.345   1.635  -7.078  0.00  0.00    +0.055 A 
ATOM     16  C   UNL     1     -13.519   0.253  -6.983  0.00  0.00    +0.016 A 
ATOM     17  C   UNL     1     -14.539  -0.360  -7.679  0.00  0.00    +0.021 A 
ATOM     18  C   UNL     1     -15.391   0.392  -8.473  0.00  0.00    +0.042 A 
ATOM     19  C   UNL     1     -15.224   1.763  -8.572  0.00  0.00    +0.040 A 
ATOM     20  C   UNL     1     -14.210   2.390  -7.875  0.00  0.00    +0.054 A 
ATOM     21 CL   UNL     1     -14.006   4.110  -7.994  0.00  0.00    -0.083 Cl
ATOM     22 CL   UNL     1     -16.672  -0.388  -9.346  0.00  0.00    -0.083 Cl
ENDBRANCH  11  15
BRANCH   1  24
ATOM     23  N   UNL     1      -6.289   1.266  -5.777  0.00  0.00    -0.315 N 
ATOM     24  C   UNL     1      -7.558   1.258  -5.323  0.00  0.00    +0.218 C 
ATOM     25  O   UNL     1      -7.797   0.872  -4.198  0.00  0.00    -0.275 OA
ATOM     26  H   UNL     1      -6.097   1.575  -6.676  0.00  0.00    +0.149 HD
BRANCH  23  27
ATOM     27  C   UNL     1      -5.198   0.809  -4.912  0.00  0.00    +0.109 C 
BRANCH  27  28
ATOM     28  C   UNL     1      -3.870   0.919  -5.664  0.00  0.00    +0.056 C 
BRANCH  28  35
ATOM     29  C   UNL     1       0.542  -2.025  -2.320  0.00  0.00    +0.046 C 
ATOM     30  C   UNL     1      -0.603  -2.061  -3.298  0.00  0.00    -0.027 A 
ATOM     31  C   UNL     1      -1.025  -3.263  -3.824  0.00  0.00    +0.005 A 
ATOM     32  C   UNL     1      -2.079  -3.310  -4.726  0.00  0.00    +0.001 A 
ATOM     33  C   UNL     1      -2.716  -2.163  -5.110  0.00  0.00    +0.010 A 
ATOM     34  C   UNL     1      -2.305  -0.935  -4.589  0.00  0.00    +0.003 A 
ATOM     35  C   UNL     1      -2.748   0.449  -4.774  0.00  0.00    -0.021 A 
ATOM     36  C   UNL     1      -1.966   1.219  -4.002  0.00  0.00    +0.087 A 
ATOM     37  N   UNL     1      -1.057   0.441  -3.337  0.00  0.00    -0.360 N 
ATOM     38  C   UNL     1      -1.241  -0.882  -3.670  0.00  0.00    +0.050 A 
ATOM     39  H   UNL     1      -0.386   0.772  -2.720  0.00  0.00    +0.165 HD
ENDBRANCH  28  35
ENDBRANCH  27  28
ENDBRANCH  23  27
ENDBRANCH   1  24
TORSDOF 5
