REMARK  Name = ZINC13031433
REMARK  4 active torsions:
REMARK  status: ('A' for Active; 'I' for Inactive)
REMARK    1  A    between atoms: C_6  and  C_7
REMARK    2  A    between atoms: N_12  and  S_13
REMARK    3  A    between atoms: S_13  and  C_16
REMARK    4  A    between atoms: C_20  and  C_22
REMARK                            x       y       z     vdW  Elec       q    Type
REMARK                         _______ _______ _______ _____ _____    ______ ____
ROOT
ATOM      1  C   UNL     1      -1.268  -0.762   0.011  0.00  0.00    +0.055 A 
ATOM      2  C   UNL     1      -1.252  -2.110   0.009  0.00  0.00    +0.075 A 
ATOM      3  S   UNL     1      -2.993  -2.506   0.022  0.00  0.00    -0.056 S 
ATOM      4  C   UNL     1      -3.629  -0.838   0.029  0.00  0.00    +0.192 A 
ATOM      5  N   UNL     1      -2.466  -0.098   0.026  0.00  0.00    -0.332 N 
ATOM      6  N   UNL     1      -4.872  -0.425   0.040  0.00  0.00    -0.103 NA
ATOM      7  H   UNL     1      -2.496   0.872   0.032  0.00  0.00    +0.168 HD
ENDROOT
BRANCH   1  13
ATOM      8  C   UNL     1      -0.017   1.391   0.010  0.00  0.00    +0.013 A 
ATOM      9  C   UNL     1       1.168   2.100   0.002  0.00  0.00    +0.048 A 
ATOM     10  C   UNL     1       2.379   1.428  -0.013  0.00  0.00    +0.142 A 
ATOM     11  C   UNL     1       2.405   0.032  -0.021  0.00  0.00    +0.076 A 
ATOM     12  C   UNL     1       1.222  -0.683  -0.013  0.00  0.00    +0.037 A 
ATOM     13  C   UNL     1       0.002  -0.004   0.002  0.00  0.00    +0.001 A 
ATOM     14  N   UNL     1       3.640  -0.630  -0.038  0.00  0.00    -0.280 N 
ATOM     15  C   UNL     1       4.759   0.062   0.270  0.00  0.00    +0.255 C 
ATOM     16  O   UNL     1       5.842  -0.483   0.233  0.00  0.00    -0.272 OA
ATOM     17  C   UNL     1       4.655   1.514   0.660  0.00  0.00    +0.325 C 
ATOM     18  O   UNL     1       3.552   2.117  -0.020  0.00  0.00    -0.481 OA
ATOM     19  H   UNL     1       3.692  -1.571  -0.268  0.00  0.00    +0.155 HD
ENDBRANCH   1  13
BRANCH   6  20
ATOM     20  S   UNL     1      -6.109  -1.526   0.049  0.00  0.00    +0.101 S 
ATOM     21  O   UNL     1      -6.056  -2.207  -1.198  0.00  0.00    -0.146 OA
ATOM     22  O   UNL     1      -6.036  -2.209   1.293  0.00  0.00    -0.146 OA
BRANCH  20  23
ATOM     23  C   UNL     1      -7.617  -0.615   0.061  0.00  0.00    +0.114 A 
ATOM     24  C   UNL     1      -8.195  -0.254   1.267  0.00  0.00    +0.032 A 
ATOM     25  C   UNL     1      -9.378   0.460   1.289  0.00  0.00    +0.041 A 
ATOM     26  C   UNL     1      -9.993   0.821   0.104  0.00  0.00    +0.138 A 
ATOM     27  C   UNL     1      -9.414   0.459  -1.118  0.00  0.00    +0.100 A 
ATOM     28  C   UNL     1      -8.214  -0.259  -1.128  0.00  0.00    +0.047 A 
ATOM     29  F   UNL     1     -11.150   1.519   0.126  0.00  0.00    -0.205 F 
BRANCH  27  30
ATOM     30  C   UNL     1     -10.062   0.838  -2.386  0.00  0.00    +0.389 C 
ATOM     31  O   UNL     1      -9.552   0.520  -3.451  0.00  0.00    -0.240 OA
ATOM     32  O   UNL     1     -11.109   1.470  -2.373  0.00  0.00    -0.240 OA
ENDBRANCH  27  30
ENDBRANCH  20  23
ENDBRANCH   6  20
TORSDOF 4
