REMARK  Name = ZINC09817626
REMARK  9 active torsions:
REMARK  status: ('A' for Active; 'I' for Inactive)
REMARK    1  A    between atoms: C_1  and  C_2
REMARK    2  A    between atoms: C_4  and  C_31
REMARK    3  A    between atoms: C_5  and  N_9
REMARK    4  A    between atoms: C_6  and  C_8
REMARK    5  A    between atoms: C_10  and  C_12
REMARK    6  A    between atoms: C_12  and  S_13
REMARK    7  A    between atoms: S_13  and  C_14
REMARK    8  A    between atoms: N_17  and  C_21
REMARK    9  A    between atoms: C_21  and  C_22
REMARK                            x       y       z     vdW  Elec       q    Type
REMARK                         _______ _______ _______ _____ _____    ______ ____
ROOT
ATOM      1  C   UNL     1       1.396   2.670   1.606  0.00  0.00    +0.108 A 
ATOM      2  C   UNL     1       0.289   3.132   2.352  0.00  0.00    +0.004 A 
ATOM      3  C   UNL     1      -0.911   2.535   2.179  0.00  0.00    +0.029 A 
ATOM      4  N   UNL     1      -1.022   1.508   1.286  0.00  0.00    -0.293 N 
ATOM      5  C   UNL     1       0.052   1.087   0.595  0.00  0.00    +0.350 A 
ATOM      6  O   UNL     1      -0.066   0.165  -0.195  0.00  0.00    -0.244 OA
ATOM      7  N   UNL     1       1.241   1.665   0.753  0.00  0.00    -0.186 NA
ATOM      8  C   UNL     1      -1.949   3.182   3.069  0.00  0.00    +0.054 C 
ATOM      9  C   UNL     1      -1.330   4.532   3.493  0.00  0.00    +0.011 C 
ATOM     10  C   UNL     1       0.182   4.241   3.374  0.00  0.00    +0.040 C 
ENDROOT
BRANCH   1  11
ATOM     11  S   UNL     1       2.976   3.425   1.807  0.00  0.00    -0.096 S 
BRANCH  11  12
ATOM     12  C   UNL     1       3.945   2.441   0.636  0.00  0.00    +0.171 C 
BRANCH  12  14
ATOM     13  N   UNL     1       6.284   2.333  -0.162  0.00  0.00    -0.284 N 
ATOM     14  C   UNL     1       5.373   2.922   0.638  0.00  0.00    +0.227 C 
ATOM     15  O   UNL     1       5.703   3.840   1.359  0.00  0.00    -0.275 OA
ATOM     16  H   UNL     1       6.033   1.566  -0.700  0.00  0.00    +0.155 HD
BRANCH  13  21
ATOM     17  C   UNL     1      11.585   4.340  -0.388  0.00  0.00    +0.044 C 
ATOM     18  C   UNL     1      10.177   3.807  -0.328  0.00  0.00    -0.050 A 
ATOM     19  C   UNL     1       9.957   2.464  -0.080  0.00  0.00    +0.008 A 
ATOM     20  C   UNL     1       8.668   1.973  -0.025  0.00  0.00    -0.029 A 
ATOM     21  C   UNL     1       7.591   2.828  -0.217  0.00  0.00    +0.039 A 
ATOM     22  C   UNL     1       7.815   4.175  -0.471  0.00  0.00    -0.029 A 
ATOM     23  C   UNL     1       9.107   4.662  -0.520  0.00  0.00    +0.008 A 
ATOM     24  C   UNL     1       6.650   5.106  -0.686  0.00  0.00    +0.045 C 
ATOM     25  C   UNL     1       8.430   0.509   0.246  0.00  0.00    +0.045 C 
ENDBRANCH  13  21
ENDBRANCH  12  14
ENDBRANCH  11  12
ENDBRANCH   1  11
BRANCH   4  26
ATOM     26  C   UNL     1      -2.318   0.856   1.084  0.00  0.00    +0.158 C 
BRANCH  26  27
ATOM     27  C   UNL     1      -2.460  -0.310   2.065  0.00  0.00    +0.138 C 
ATOM     28  C   UNL     1      -3.795  -1.058   1.821  0.00  0.00    +0.035 C 
ATOM     29  C   UNL     1      -3.453  -2.463   2.388  0.00  0.00    +0.031 C 
ATOM     30  C   UNL     1      -1.957  -2.605   2.033  0.00  0.00    +0.160 C 
ATOM     31  O   UNL     1      -1.434  -1.287   1.830  0.00  0.00    -0.375 OA
ENDBRANCH  26  27
ENDBRANCH   4  26
TORSDOF 6
