REMARK  Name = ZINC12939727
REMARK  10 active torsions:
REMARK  status: ('A' for Active; 'I' for Inactive)
REMARK    1  A    between atoms: C_1  and  C_2
REMARK    2  A    between atoms: C_3  and  C_18
REMARK    3  A    between atoms: C_4  and  C_17
REMARK    4  A    between atoms: N_5  and  C_7
REMARK    5  A    between atoms: C_11  and  C_13
REMARK    6  A    between atoms: C_18  and  C_20
REMARK    7  A    between atoms: N_22  and  C_23
REMARK    8  A    between atoms: C_23  and  C_24
REMARK    9  A    between atoms: C_27  and  S_30
REMARK   10  A    between atoms: S_30  and  N_33
REMARK                            x       y       z     vdW  Elec       q    Type
REMARK                         _______ _______ _______ _____ _____    ______ ____
ROOT
ATOM      1  C   UNL     1      -1.334   8.537  -0.810  0.00  0.00    +0.251 C 
ATOM      2  O   UNL     1      -1.084   8.993  -1.907  0.00  0.00    -0.282 OA
ENDROOT
BRANCH   1   5
ATOM      3  C   UNL     1       1.305   8.495   0.955  0.00  0.00    +0.068 C 
ATOM      4  C   UNL     1       0.541   7.299   0.450  0.00  0.00    +0.072 A 
ATOM      5  C   UNL     1      -0.636   7.335  -0.337  0.00  0.00    +0.071 A 
ATOM      6  C   UNL     1      -1.001   6.020  -0.581  0.00  0.00    +0.053 A 
ATOM      7  N   UNL     1      -0.100   5.234   0.032  0.00  0.00    -0.236 N 
ATOM      8  N   UNL     1       0.847   6.049   0.661  0.00  0.00    -0.171 NA
ATOM      9  C   UNL     1      -2.191   5.557  -1.383  0.00  0.00    +0.066 C 
BRANCH   7  10
ATOM     10  C   UNL     1      -0.105   3.833   0.036  0.00  0.00    +0.066 A 
ATOM     11  C   UNL     1      -1.309   3.141   0.064  0.00  0.00    +0.028 A 
ATOM     12  C   UNL     1      -1.311   1.760   0.061  0.00  0.00    +0.003 A 
ATOM     13  C   UNL     1      -0.115   1.066   0.044  0.00  0.00    +0.012 A 
ATOM     14  C   UNL     1       1.086   1.752   0.017  0.00  0.00    +0.057 A 
ATOM     15  C   UNL     1       1.094   3.133   0.013  0.00  0.00    +0.040 A 
BRANCH  14  16
ATOM     16  C   UNL     1       2.387   0.991  -0.008  0.00  0.00    +0.417 C 
ATOM     17  F   UNL     1       2.124  -0.383   0.001  0.00  0.00    -0.166 F 
ATOM     18  F   UNL     1       3.098   1.322  -1.167  0.00  0.00    -0.166 F 
ATOM     19  F   UNL     1       3.146   1.329   1.117  0.00  0.00    -0.166 F 
ENDBRANCH  14  16
ENDBRANCH   7  10
ENDBRANCH   1   5
BRANCH   1  20
ATOM     20  C   UNL     1      -2.352   9.200   0.059  0.00  0.00    +0.285 C 
ATOM     21  O   UNL     1      -2.532   8.805   1.192  0.00  0.00    -0.267 OA
ATOM     22  N   UNL     1      -3.070  10.237  -0.416  0.00  0.00    -0.305 N 
ATOM     23  H   UNL     1      -2.927  10.553  -1.321  0.00  0.00    +0.149 HD
BRANCH  22  24
ATOM     24  C   UNL     1      -4.069  10.887   0.437  0.00  0.00    +0.140 C 
BRANCH  24  25
ATOM     25  C   UNL     1      -4.727  12.008  -0.326  0.00  0.00    -0.030 A 
ATOM     26  C   UNL     1      -4.197  13.284  -0.274  0.00  0.00    +0.007 A 
ATOM     27  C   UNL     1      -4.798  14.311  -0.977  0.00  0.00    +0.029 A 
ATOM     28  C   UNL     1      -5.934  14.065  -1.724  0.00  0.00    +0.105 A 
ATOM     29  C   UNL     1      -6.467  12.790  -1.772  0.00  0.00    +0.029 A 
ATOM     30  C   UNL     1      -5.863  11.762  -1.073  0.00  0.00    +0.007 A 
BRANCH  28  31
ATOM     31  S   UNL     1      -6.703  15.375  -2.617  0.00  0.00    +0.056 S 
ATOM     32  O   UNL     1      -5.699  16.354  -2.847  0.00  0.00    -0.153 OA
ATOM     33  O   UNL     1      -7.435  14.771  -3.675  0.00  0.00    -0.153 OA
BRANCH  31  34
ATOM     34  N   UNL     1      -7.817  16.068  -1.607  0.00  0.00    -0.204 NA
ATOM     35  H   UNL     1      -8.031  17.010  -1.694  0.00  0.00    +0.144 HD
ATOM     36  H   UNL     1      -8.255  15.532  -0.927  0.00  0.00    +0.144 HD
ENDBRANCH  31  34
ENDBRANCH  28  31
ENDBRANCH  24  25
ENDBRANCH  22  24
ENDBRANCH   1  20
TORSDOF 8
