REMARK  Name = ZINC36628567
REMARK  11 active torsions:
REMARK  status: ('A' for Active; 'I' for Inactive)
REMARK    1  A    between atoms: C_1  and  C_2
REMARK    2  A    between atoms: C_4  and  C_33
REMARK    3  A    between atoms: C_6  and  S_8
REMARK    4  A    between atoms: S_8  and  C_9
REMARK    5  A    between atoms: C_9  and  C_10
REMARK    6  A    between atoms: C_13  and  C_16
REMARK    7  A    between atoms: N_18  and  N_19
REMARK    8  A    between atoms: C_20  and  C_22
REMARK    9  A    between atoms: C_25  and  N_31
REMARK   10  A    between atoms: C_26  and  N_28
REMARK   11  A    between atoms: N_31  and  C_32
REMARK                            x       y       z     vdW  Elec       q    Type
REMARK                         _______ _______ _______ _____ _____    ______ ____
ROOT
ATOM      1  C   UNL     1       0.042  -3.623   9.322  0.00  0.00    +0.260 C 
ATOM      2  O   UNL     1      -0.973  -3.664   9.989  0.00  0.00    -0.269 OA
ATOM      3  N   UNL     1       1.205  -4.069   9.836  0.00  0.00    -0.230 N 
ATOM      4  H   UNL     1       2.015  -4.036   9.304  0.00  0.00    +0.173 HD
ENDROOT
BRANCH   1   8
ATOM      5  C   UNL     1      -0.075  -2.070   5.370  0.00  0.00    -0.037 A 
ATOM      6  C   UNL     1      -1.233  -2.116   6.127  0.00  0.00    +0.005 A 
ATOM      7  C   UNL     1      -1.202  -2.619   7.411  0.00  0.00    +0.013 A 
ATOM      8  C   UNL     1       0.001  -3.082   7.946  0.00  0.00    +0.038 A 
ATOM      9  C   UNL     1       1.165  -3.033   7.178  0.00  0.00    +0.013 A 
ATOM     10  C   UNL     1       1.119  -2.532   5.893  0.00  0.00    +0.005 A 
BRANCH   5  11
ATOM     11  C   UNL     1      -0.117  -1.519   3.968  0.00  0.00    +0.112 C 
BRANCH  11  12
ATOM     12  S   UNL     1      -0.475  -2.861   2.802  0.00  0.00    -0.081 S 
BRANCH  12  18
ATOM     13  C   UNL     1      -0.008   1.348  -0.073  0.00  0.00    +0.066 C 
ATOM     14  C   UNL     1      -0.267  -0.135  -0.004  0.00  0.00    +0.043 A 
ATOM     15  C   UNL     1      -0.512  -0.859  -1.161  0.00  0.00    +0.046 A 
ATOM     16  C   UNL     1      -0.746  -2.221  -1.053  0.00  0.00    +0.043 A 
ATOM     17  N   UNL     1      -0.728  -2.787   0.142  0.00  0.00    -0.227 NA
ATOM     18  C   UNL     1      -0.490  -2.066   1.229  0.00  0.00    +0.189 A 
ATOM     19  N   UNL     1      -0.257  -0.763   1.160  0.00  0.00    -0.227 NA
ATOM     20  C   UNL     1      -1.018  -3.047  -2.284  0.00  0.00    +0.066 C 
ENDBRANCH  12  18
ENDBRANCH  11  12
ENDBRANCH   5  11
ENDBRANCH   1   8
BRANCH   3  21
ATOM     21  N   UNL     1       1.244  -4.582  11.140  0.00  0.00    -0.230 N 
ATOM     22  C   UNL     1       2.407  -5.028  11.654  0.00  0.00    +0.260 C 
ATOM     23  O   UNL     1       3.422  -4.987  10.987  0.00  0.00    -0.269 OA
ATOM     24  H   UNL     1       0.433  -4.615  11.672  0.00  0.00    +0.173 HD
BRANCH  22  25
ATOM     25  C   UNL     1       2.447  -5.567  13.027  0.00  0.00    +0.040 A 
ATOM     26  C   UNL     1       1.279  -5.621  13.793  0.00  0.00    +0.015 A 
ATOM     27  C   UNL     1       1.321  -6.124  15.073  0.00  0.00    +0.026 A 
ATOM     28  C   UNL     1       2.524  -6.580  15.605  0.00  0.00    +0.058 A 
ATOM     29  C   UNL     1       3.689  -6.528  14.844  0.00  0.00    +0.148 A 
ATOM     30  C   UNL     1       3.653  -6.031  13.561  0.00  0.00    +0.047 A 
BRANCH  29  31
ATOM     31  N   UNL     1       4.966  -7.013  15.414  0.00  0.00    +0.058 N 
ATOM     32  O   UNL     1       5.998  -6.437  15.161  0.00  0.00    -0.126 OA
ATOM     33  O   UNL     1       4.977  -7.986  16.132  0.00  0.00    -0.126 OA
ENDBRANCH  29  31
BRANCH  28  34
ATOM     34  N   UNL     1       2.562  -7.088  16.899  0.00  0.00    -0.345 N 
ATOM     35  C   UNL     1       1.320  -7.264  17.654  0.00  0.00    +0.125 C 
ATOM     36  H   UNL     1       3.412  -7.326  17.301  0.00  0.00    +0.146 HD
ENDBRANCH  28  34
ENDBRANCH  22  25
ENDBRANCH   3  21
TORSDOF 8
