REMARK  Name = ZINC21326869
REMARK  9 active torsions:
REMARK  status: ('A' for Active; 'I' for Inactive)
REMARK    1  A    between atoms: C_1  and  O_2
REMARK    2  A    between atoms: O_2  and  C_3
REMARK    3  A    between atoms: C_5  and  C_13
REMARK    4  A    between atoms: C_7  and  N_10
REMARK    5  A    between atoms: N_14  and  N_15
REMARK    6  A    between atoms: C_19  and  S_22
REMARK    7  A    between atoms: N_20  and  N_21
REMARK    8  A    between atoms: S_22  and  C_23
REMARK    9  A    between atoms: C_23  and  C_24
REMARK                            x       y       z     vdW  Elec       q    Type
REMARK                         _______ _______ _______ _____ _____    ______ ____
ROOT
ATOM      1  N   UNL     1      -1.197   7.164   1.993  0.00  0.00    -0.204 N 
ATOM      2  C   UNL     1      -0.913   5.947   1.513  0.00  0.00    +0.254 A 
ATOM      3  N   UNL     1      -0.264   5.673   0.368  0.00  0.00    -0.109 NA
ATOM      4  N   UNL     1      -0.168   4.400   0.221  0.00  0.00    -0.119 NA
ATOM      5  C   UNL     1      -0.750   3.778   1.264  0.00  0.00    +0.210 A 
ATOM      6  N   UNL     1      -1.236   4.746   2.096  0.00  0.00    -0.211 N 
ATOM      7  H   UNL     1      -1.735   7.267   2.946  0.00  0.00    +0.177 HD
ENDROOT
BRANCH   6   8
ATOM      8  N   UNL     1      -1.906   4.558   3.271  0.00  0.00    -0.294 N 
ATOM      9  H   UNL     1      -2.105   3.539   3.634  0.00  0.00    +0.163 HD
ATOM     10  H   UNL     1      -2.247   5.426   3.855  0.00  0.00    +0.163 HD
ENDBRANCH   6   8
BRANCH   1  12
ATOM     11  C   UNL     1      -1.117   9.414   1.810  0.00  0.00    +0.138 C 
ATOM     12  N   UNL     1      -0.838   8.215   1.337  0.00  0.00    -0.188 NA
BRANCH  11  15
ATOM     13  C   UNL     1      -0.633  12.965   0.885  0.00  0.00    +0.169 A 
ATOM     14  C   UNL     1      -1.020  11.848   1.592  0.00  0.00    +0.059 A 
ATOM     15  C   UNL     1      -0.724  10.568   1.090  0.00  0.00    +0.000 A 
ATOM     16  C   UNL     1      -0.029  10.439  -0.128  0.00  0.00    +0.046 A 
ATOM     17  C   UNL     1       0.345  11.552  -0.822  0.00  0.00    +0.177 A 
ATOM     18  C   UNL     1       0.053  12.821  -0.327  0.00  0.00    +0.250 A 
ATOM     19  O   UNL     1       0.433  13.921  -1.023  0.00  0.00    -0.282 OA
BRANCH  17  20
ATOM     20  N   UNL     1       1.070  11.410  -2.105  0.00  0.00    +0.060 N 
ATOM     21  O   UNL     1       1.348  10.212  -2.575  0.00  0.00    -0.126 OA
ATOM     22  O   UNL     1       1.437  12.482  -2.775  0.00  0.00    -0.126 OA
ENDBRANCH  17  20
BRANCH  13  24
ATOM     23  C   UNL     1      -1.617  14.277   2.607  0.00  0.00    +0.277 C 
ATOM     24  O   UNL     1      -0.915  14.206   1.364  0.00  0.00    -0.491 OA
ENDBRANCH  13  24
ENDBRANCH  11  15
ENDBRANCH   1  12
BRANCH   5  25
ATOM     25  S   UNL     1      -0.866   2.087   1.500  0.00  0.00    -0.080 S 
BRANCH  25  26
ATOM     26  C   UNL     1      -0.018   1.503   0.010  0.00  0.00    +0.112 C 
BRANCH  26  27
ATOM     27  C   UNL     1       0.002  -0.004   0.002  0.00  0.00    -0.037 A 
ATOM     28  C   UNL     1       1.057  -0.684   0.582  0.00  0.00    +0.007 A 
ATOM     29  C   UNL     1       1.074  -2.066   0.579  0.00  0.00    +0.038 A 
ATOM     30  C   UNL     1       0.040  -2.769  -0.014  0.00  0.00    +0.123 A 
ATOM     31  C   UNL     1      -1.013  -2.087  -0.599  0.00  0.00    +0.038 A 
ATOM     32  C   UNL     1      -1.031  -0.706  -0.591  0.00  0.00    +0.007 A 
ATOM     33  F   UNL     1       0.058  -4.120  -0.021  0.00  0.00    -0.205 F 
ENDBRANCH  26  27
ENDBRANCH  25  26
ENDBRANCH   5  25
TORSDOF 8
