REMARK  Name = ZINC16486019
REMARK  7 active torsions:
REMARK  status: ('A' for Active; 'I' for Inactive)
REMARK    1  A    between atoms: C_1  and  C_2
REMARK    2  A    between atoms: C_9  and  S_11
REMARK    3  A    between atoms: S_11  and  C_12
REMARK    4  A    between atoms: C_12  and  C_13
REMARK    5  A    between atoms: C_15  and  C_18
REMARK    6  A    between atoms: N_23  and  C_26
REMARK    7  A    between atoms: C_30  and  C_32
REMARK                            x       y       z     vdW  Elec       q    Type
REMARK                         _______ _______ _______ _____ _____    ______ ____
ROOT
ATOM      1  C   UNL     1      -1.665  10.469   2.021  0.00  0.00    +0.266 C 
ATOM      2  O   UNL     1      -1.381   9.755   1.079  0.00  0.00    -0.268 OA
ATOM      3  N   UNL     1      -1.389  10.068   3.278  0.00  0.00    -0.293 N 
ATOM      4  C   UNL     1      -0.763   8.762   3.533  0.00  0.00    +0.127 C 
ATOM      5  C   UNL     1       0.457   8.981   4.442  0.00  0.00    +0.124 C 
ATOM      6  N   UNL     1       0.040   9.715   5.644  0.00  0.00    -0.327 N 
ATOM      7  C   UNL     1      -0.460  11.054   5.305  0.00  0.00    +0.124 C 
ATOM      8  C   UNL     1      -1.712  10.922   4.431  0.00  0.00    +0.127 C 
ENDROOT
BRANCH   6   9
ATOM      9  C   UNL     1       1.081   9.789   6.572  0.00  0.00    +0.030 A 
ATOM     10  C   UNL     1       1.510  11.025   7.039  0.00  0.00    +0.023 A 
ATOM     11  C   UNL     1       2.538  11.095   7.959  0.00  0.00    +0.002 A 
ATOM     12  C   UNL     1       3.146   9.937   8.408  0.00  0.00    +0.012 A 
ATOM     13  C   UNL     1       2.725   8.706   7.942  0.00  0.00    +0.057 A 
ATOM     14  C   UNL     1       1.694   8.628   7.025  0.00  0.00    +0.035 A 
BRANCH  13  15
ATOM     15  C   UNL     1       3.390   7.447   8.434  0.00  0.00    +0.417 C 
ATOM     16  F   UNL     1       4.469   7.132   7.600  0.00  0.00    -0.166 F 
ATOM     17  F   UNL     1       3.853   7.643   9.739  0.00  0.00    -0.166 F 
ATOM     18  F   UNL     1       2.468   6.395   8.419  0.00  0.00    -0.166 F 
ENDBRANCH  13  15
ENDBRANCH   6   9
BRANCH   1  21
ATOM     19  C   UNL     1      -3.384  13.638   2.564  0.00  0.00    +0.089 A 
ATOM     20  N   UNL     1      -2.812  12.485   2.799  0.00  0.00    -0.239 NA
ATOM     21  C   UNL     1      -2.309  11.773   1.790  0.00  0.00    +0.133 A 
ATOM     22  C   UNL     1      -2.410  12.303   0.528  0.00  0.00    +0.080 A 
ATOM     23  S   UNL     1      -3.230  13.798   0.845  0.00  0.00    -0.079 S 
BRANCH  19  24
ATOM     24  C   UNL     1      -4.015  14.592   3.545  0.00  0.00    +0.141 C 
BRANCH  24  25
ATOM     25  S   UNL     1      -2.765  15.755   4.145  0.00  0.00    -0.060 S 
BRANCH  25  34
ATOM     26  C   UNL     1      -3.252  20.126   7.932  0.00  0.00    +0.046 C 
ATOM     27  C   UNL     1      -4.457  19.288   7.588  0.00  0.00    -0.021 A 
ATOM     28  C   UNL     1      -5.676  19.558   8.171  0.00  0.00    +0.005 A 
ATOM     29  C   UNL     1      -6.787  18.790   7.859  0.00  0.00    +0.004 A 
ATOM     30  C   UNL     1      -6.688  17.747   6.960  0.00  0.00    +0.048 A 
ATOM     31  C   UNL     1      -5.470  17.462   6.365  0.00  0.00    +0.156 A 
ATOM     32  C   UNL     1      -4.342  18.236   6.678  0.00  0.00    +0.113 A 
ATOM     33  N   UNL     1      -3.309  17.733   5.949  0.00  0.00    -0.203 NA
ATOM     34  C   UNL     1      -3.748  16.723   5.241  0.00  0.00    +0.258 A 
ATOM     35  O   UNL     1      -5.060  16.534   5.471  0.00  0.00    -0.431 OA
ENDBRANCH  25  34
ENDBRANCH  24  25
ENDBRANCH  19  24
ENDBRANCH   1  21
TORSDOF 6
