REMARK  Name = ZINC08623449
REMARK  7 active torsions:
REMARK  status: ('A' for Active; 'I' for Inactive)
REMARK    1  A    between atoms: C_3  and  N_9
REMARK    2  A    between atoms: C_10  and  O_12
REMARK    3  A    between atoms: O_12  and  C_13
REMARK    4  A    between atoms: C_13  and  C_14
REMARK    5  A    between atoms: C_22  and  C_24
REMARK    6  A    between atoms: C_26  and  C_36
REMARK    7  A    between atoms: C_28  and  C_30
REMARK                            x       y       z     vdW  Elec       q    Type
REMARK                         _______ _______ _______ _____ _____    ______ ____
ROOT
ATOM      1  C   UNL     1      -0.316   3.447   0.399  0.00  0.00    -0.030 C 
ATOM      2  C   UNL     1      -0.422   1.949   0.102  0.00  0.00    -0.008 C 
ATOM      3  C   UNL     1       0.293   1.655  -1.223  0.00  0.00    -0.007 C 
ATOM      4  C   UNL     1       1.759   2.089  -1.095  0.00  0.00    -0.015 C 
ATOM      5  C   UNL     1       1.805   3.583  -0.764  0.00  0.00    -0.078 C 
ATOM      6  C   UNL     1      -0.263   3.969  -1.965  0.00  0.00    -0.068 C 
ATOM      7  C   UNL     1      -0.362   2.472  -2.344  0.00  0.00    +0.024 C 
ATOM      8  N   UNL     1       0.435   4.135  -0.673  0.00  0.00    +0.384 N 
ATOM      9  H   UNL     1       0.493   5.135  -0.451  0.00  0.00    -0.081 HD
ENDROOT
BRANCH   7  10
ATOM     10  C   UNL     1      -1.813   2.083  -2.470  0.00  0.00    +0.047 A 
ATOM     11  C   UNL     1      -2.732   2.968  -3.014  0.00  0.00    +0.047 A 
ATOM     12  C   UNL     1      -4.057   2.570  -3.112  0.00  0.00    +0.048 A 
ATOM     13  N   UNL     1      -4.402   1.367  -2.686  0.00  0.00    -0.232 NA
ATOM     14  C   UNL     1      -3.499   0.546  -2.171  0.00  0.00    +0.160 A 
ATOM     15  N   UNL     1      -2.224   0.893  -2.068  0.00  0.00    -0.232 NA
BRANCH  14  16
ATOM     16  C   UNL     1      -3.924  -0.797  -1.704  0.00  0.00    +0.022 A 
ATOM     17  C   UNL     1      -3.000  -1.694  -1.161  0.00  0.00    +0.031 A 
ATOM     18  C   UNL     1      -3.440  -2.931  -0.733  0.00  0.00    +0.111 A 
ATOM     19  N   UNL     1      -4.708  -3.274  -0.843  0.00  0.00    -0.263 NA
ATOM     20  C   UNL     1      -5.611  -2.459  -1.354  0.00  0.00    +0.111 A 
ATOM     21  C   UNL     1      -5.258  -1.202  -1.801  0.00  0.00    +0.031 A 
ENDBRANCH  14  16
BRANCH  12  22
ATOM     22  C   UNL     1      -5.091   3.499  -3.696  0.00  0.00    +0.038 C 
ATOM     23  C   UNL     1      -5.029   3.456  -5.237  0.00  0.00    +0.010 C 
ATOM     24  C   UNL     1      -5.302   4.918  -5.668  0.00  0.00    +0.001 C 
ATOM     25  C   UNL     1      -4.554   5.739  -4.588  0.00  0.00    +0.001 C 
ATOM     26  C   UNL     1      -4.788   4.950  -3.284  0.00  0.00    +0.010 C 
ENDBRANCH  12  22
ENDBRANCH   7  10
BRANCH   1  27
ATOM     27  C   UNL     1      -1.720   4.051   0.486  0.00  0.00    +0.219 C 
BRANCH  27  28
ATOM     28  O   UNL     1      -1.620   5.463   0.810  0.00  0.00    -0.452 OA
BRANCH  28  30
ATOM     29  N   UNL     1      -2.734   7.502   1.016  0.00  0.00    -0.248 N 
ATOM     30  C   UNL     1      -2.767   6.169   0.825  0.00  0.00    +0.405 C 
ATOM     31  O   UNL     1      -3.830   5.603   0.667  0.00  0.00    -0.226 OA
ATOM     32  H   UNL     1      -1.883   7.965   1.063  0.00  0.00    +0.158 HD
BRANCH  29  35
ATOM     33  C   UNL     1      -6.277   8.278   1.639  0.00  0.00    +0.040 A 
ATOM     34  C   UNL     1      -5.099   7.567   1.507  0.00  0.00    +0.029 A 
ATOM     35  C   UNL     1      -3.931   8.221   1.145  0.00  0.00    +0.072 A 
ATOM     36  C   UNL     1      -3.950   9.591   0.904  0.00  0.00    +0.147 A 
ATOM     37  C   UNL     1      -5.132  10.297   1.031  0.00  0.00    +0.078 A 
ATOM     38  C   UNL     1      -6.295   9.641   1.399  0.00  0.00    +0.126 A 
ATOM     39  F   UNL     1      -7.449  10.333   1.524  0.00  0.00    -0.205 F 
ATOM     40  F   UNL     1      -2.815  10.230   0.545  0.00  0.00    -0.203 F 
ENDBRANCH  29  35
ENDBRANCH  28  30
ENDBRANCH  27  28
ENDBRANCH   1  27
TORSDOF 7
