REMARK  Name = ZINC13735374
REMARK  3 active torsions:
REMARK  status: ('A' for Active; 'I' for Inactive)
REMARK    1  A    between atoms: C_5  and  O_7
REMARK    2  A    between atoms: O_7  and  C_8
REMARK    3  A    between atoms: N_20  and  C_23
REMARK                            x       y       z     vdW  Elec       q    Type
REMARK                         _______ _______ _______ _____ _____    ______ ____
ROOT
ATOM      1  C   UNL     1       0.091  -2.777  -0.060  0.00  0.00    +0.210 A 
ATOM      2  C   UNL     1      -1.108  -2.167  -0.128  0.00  0.00    +0.245 A 
ATOM      3  O   UNL     1      -2.264  -2.842  -0.168  0.00  0.00    -0.459 OA
ATOM      4  C   UNL     1      -2.315  -4.189  -0.140  0.00  0.00    +0.147 A 
ATOM      5  C   UNL     1      -1.123  -4.931  -0.072  0.00  0.00    +0.068 A 
ATOM      6  C   UNL     1       0.155  -4.199  -0.035  0.00  0.00    +0.235 A 
ATOM      7  O   UNL     1       1.223  -4.787   0.019  0.00  0.00    -0.283 OA
ATOM      8  C   UNL     1      -1.164  -6.326  -0.045  0.00  0.00    +0.019 A 
ATOM      9  C   UNL     1      -2.368  -6.967  -0.085  0.00  0.00    +0.047 A 
ATOM     10  C   UNL     1      -3.558  -6.240  -0.152  0.00  0.00    +0.130 A 
ATOM     11  C   UNL     1      -3.532  -4.857  -0.177  0.00  0.00    +0.051 A 
ATOM     12  C   UNL     1      -4.810  -4.061  -0.240  0.00  0.00    +0.130 C 
ATOM     13  N   UNL     1      -5.912  -4.929  -0.680  0.00  0.00    -0.261 NA
ATOM     14  C   UNL     1      -5.923  -6.172   0.109  0.00  0.00    +0.319 C 
ATOM     15  O   UNL     1      -4.738  -6.913  -0.193  0.00  0.00    -0.476 OA
ENDROOT
BRANCH  13  16
ATOM     16  C   UNL     1      -7.202  -4.233  -0.583  0.00  0.00    +0.083 C 
ATOM     17  C   UNL     1      -7.534  -3.957   0.893  0.00  0.00    +0.043 C 
ATOM     18  C   UNL     1      -9.013  -3.522   1.029  0.00  0.00    +0.167 C 
ATOM     19  S   UNL     1      -9.812  -4.357  -0.402  0.00  0.00    -0.029 S 
ATOM     20  O   UNL     1     -10.669  -5.383   0.081  0.00  0.00    -0.174 OA
ATOM     21  O   UNL     1     -10.331  -3.369  -1.282  0.00  0.00    -0.174 OA
ATOM     22  C   UNL     1      -8.328  -5.129  -1.173  0.00  0.00    +0.184 C 
ENDBRANCH  13  16
BRANCH   1  23
ATOM     23  O   UNL     1       1.235  -2.039  -0.022  0.00  0.00    -0.448 OA
BRANCH  23  28
ATOM     24  C   UNL     1       2.256  -2.766   3.393  0.00  0.00    +0.004 A 
ATOM     25  C   UNL     1       3.481  -2.126   3.438  0.00  0.00    +0.001 A 
ATOM     26  C   UNL     1       3.955  -1.456   2.325  0.00  0.00    +0.019 A 
ATOM     27  C   UNL     1       3.204  -1.426   1.164  0.00  0.00    +0.060 A 
ATOM     28  C   UNL     1       1.975  -2.068   1.117  0.00  0.00    +0.143 A 
ATOM     29  C   UNL     1       1.502  -2.739   2.236  0.00  0.00    +0.047 A 
ATOM     30 BR   UNL     1       3.852  -0.508  -0.357  0.00  0.00    -0.046 Br
ENDBRANCH  23  28
ENDBRANCH   1  23
TORSDOF 3
