REMARK  Name = ZINC34749092
REMARK  10 active torsions:
REMARK  status: ('A' for Active; 'I' for Inactive)
REMARK    1  A    between atoms: C_1  and  C_2
REMARK    2  A    between atoms: C_2  and  C_3
REMARK    3  A    between atoms: C_4  and  C_33
REMARK    4  A    between atoms: N_10  and  C_23
REMARK    5  A    between atoms: N_16  and  C_19
REMARK    6  A    between atoms: C_19  and  C_20
REMARK    7  A    between atoms: C_20  and  C_21
REMARK    8  A    between atoms: C_20  and  C_22
REMARK    9  A    between atoms: C_23  and  C_24
REMARK   10  A    between atoms: N_26  and  C_27
REMARK                            x       y       z     vdW  Elec       q    Type
REMARK                         _______ _______ _______ _____ _____    ______ ____
ROOT
ATOM      1  C   UNL     1      -1.202   0.411  -0.768  0.00  0.00    -0.023 A 
ATOM      2  C   UNL     1      -1.747   0.266   0.449  0.00  0.00    -0.007 A 
ATOM      3  S   UNL     1      -3.344  -0.449   0.105  0.00  0.00    -0.073 S 
ATOM      4  C   UNL     1      -3.234  -0.532  -1.664  0.00  0.00    +0.117 A 
ATOM      5  C   UNL     1      -1.961   0.003  -1.938  0.00  0.00    +0.076 A 
ATOM      6  C   UNL     1      -1.597   0.065  -3.320  0.00  0.00    +0.264 A 
ATOM      7  O   UNL     1      -0.512   0.509  -3.654  0.00  0.00    -0.267 OA
ATOM      8  N   UNL     1      -2.468  -0.374  -4.247  0.00  0.00    -0.271 N 
ATOM      9  C   UNL     1      -3.686  -0.875  -3.893  0.00  0.00    +0.202 A 
ATOM     10  N   UNL     1      -4.043  -0.953  -2.628  0.00  0.00    -0.208 NA
ATOM     11  N   UNL     1      -4.547  -1.313  -4.868  0.00  0.00    -0.304 N 
ATOM     12  C   UNL     1      -4.589  -2.730  -5.259  0.00  0.00    +0.089 C 
ATOM     13  C   UNL     1      -6.047  -3.199  -5.230  0.00  0.00    -0.060 C 
ATOM     14  N   UNL     1      -6.862  -2.314  -6.071  0.00  0.00    +0.382 N 
ATOM     15  C   UNL     1      -6.872  -0.958  -5.508  0.00  0.00    -0.060 C 
ATOM     16  C   UNL     1      -5.459  -0.379  -5.548  0.00  0.00    +0.089 C 
ATOM     17  C   UNL     1      -1.152   0.621   1.787  0.00  0.00    +0.052 C 
ATOM     18  H   UNL     1      -6.475  -2.287  -7.003  0.00  0.00    -0.082 HD
ENDROOT
BRANCH   1  20
ATOM     19  C   UNL     1       0.076   2.515  -1.062  0.00  0.00    +0.009 C 
ATOM     20  C   UNL     1       0.178   0.995  -0.920  0.00  0.00    +0.033 C 
ENDBRANCH   1  20
BRANCH  14  21
ATOM     21  C   UNL     1      -8.238  -2.828  -6.131  0.00  0.00    -0.076 C 
BRANCH  21  22
ATOM     22  C   UNL     1      -8.250  -4.168  -6.868  0.00  0.00    -0.034 C 
ATOM     23  C   UNL     1      -9.670  -4.738  -6.866  0.00  0.00    +0.005 C 
ATOM     24  C   UNL     1      -7.785  -3.961  -8.311  0.00  0.00    +0.005 C 
ENDBRANCH  21  22
ENDBRANCH  14  21
BRANCH   8  25
ATOM     25  C   UNL     1      -2.100  -0.314  -5.664  0.00  0.00    +0.223 C 
BRANCH  25  26
ATOM     26  C   UNL     1      -1.308  -1.542  -6.030  0.00  0.00    +0.233 C 
ATOM     27  O   UNL     1      -1.074  -2.386  -5.191  0.00  0.00    -0.274 OA
ATOM     28  N   UNL     1      -0.860  -1.704  -7.291  0.00  0.00    -0.311 N 
ATOM     29  H   UNL     1      -1.048  -1.030  -7.963  0.00  0.00    +0.149 HD
BRANCH  28  30
ATOM     30  C   UNL     1      -0.090  -2.899  -7.648  0.00  0.00    +0.073 C 
ATOM     31  C   UNL     1      -1.049  -4.038  -7.998  0.00  0.00    +0.022 C 
ATOM     32  C   UNL     1      -0.245  -5.285  -8.370  0.00  0.00    +0.002 C 
ATOM     33  C   UNL     1       0.644  -4.978  -9.577  0.00  0.00    +0.000 C 
ATOM     34  C   UNL     1       1.603  -3.838  -9.226  0.00  0.00    +0.002 C 
ATOM     35  C   UNL     1       0.799  -2.591  -8.854  0.00  0.00    +0.022 C 
ENDBRANCH  28  30
ENDBRANCH  25  26
ENDBRANCH   8  25
TORSDOF 6
