REMARK  Name = ZINC15775179
REMARK  11 active torsions:
REMARK  status: ('A' for Active; 'I' for Inactive)
REMARK    1  A    between atoms: C_6  and  N_7
REMARK    2  A    between atoms: C_11  and  C_13
REMARK    3  A    between atoms: C_13  and  C_15
REMARK    4  A    between atoms: C_13  and  O_26
REMARK    5  A    between atoms: C_15  and  C_17
REMARK    6  A    between atoms: C_15  and  O_25
REMARK    7  A    between atoms: C_17  and  C_19
REMARK    8  A    between atoms: C_17  and  O_24
REMARK    9  A    between atoms: C_19  and  C_21
REMARK   10  A    between atoms: C_19  and  O_23
REMARK   11  A    between atoms: C_21  and  O_22
REMARK                            x       y       z     vdW  Elec       q    Type
REMARK                         _______ _______ _______ _____ _____    ______ ____
ROOT
ATOM      1  C   UNL     1       1.287   1.555   2.514  0.00  0.00    +0.203 C 
ENDROOT
BRANCH   1   6
ATOM      2  N   UNL     1       4.321   0.657   7.048  0.00  0.00    -0.292 N 
ATOM      3  C   UNL     1       3.524   0.688   5.912  0.00  0.00    +0.186 A 
ATOM      4  N   UNL     1       2.893  -0.296   5.285  0.00  0.00    -0.126 NA
ATOM      5  N   UNL     1       2.201  -0.090   4.251  0.00  0.00    -0.142 NA
ATOM      6  C   UNL     1       2.061   1.112   3.728  0.00  0.00    +0.135 A 
ATOM      7  S   UNL     1       3.058   2.066   4.869  0.00  0.00    -0.033 S 
ATOM      8  H   UNL     1       4.784   1.459   7.337  0.00  0.00    +0.154 HD
BRANCH   2  14
ATOM      9  C   UNL     1       3.461  -1.497   7.719  0.00  0.00    +0.025 A 
ATOM     10  C   UNL     1       3.601  -2.671   8.433  0.00  0.00    +0.022 A 
ATOM     11  C   UNL     1       4.725  -2.879   9.213  0.00  0.00    +0.041 A 
ATOM     12  C   UNL     1       5.715  -1.914   9.275  0.00  0.00    +0.022 A 
ATOM     13  C   UNL     1       5.584  -0.741   8.558  0.00  0.00    +0.025 A 
ATOM     14  C   UNL     1       4.456  -0.530   7.774  0.00  0.00    +0.033 A 
ATOM     15 CL   UNL     1       4.893  -4.353  10.115  0.00  0.00    -0.084 Cl
ENDBRANCH   2  14
ENDBRANCH   1   6
BRANCH   1  16
ATOM     16  O   UNL     1      -0.005   0.943   2.522  0.00  0.00    -0.382 OA
ATOM     17  H   UNL     1       0.018  -0.024   2.509  0.00  0.00    +0.210 HD
ENDBRANCH   1  16
BRANCH   1  18
ATOM     18  C   UNL     1       2.040   1.138   1.249  0.00  0.00    +0.180 C 
BRANCH  18  19
ATOM     19  O   UNL     1       3.332   1.750   1.240  0.00  0.00    -0.386 OA
ATOM     20  H   UNL     1       3.309   2.717   1.253  0.00  0.00    +0.210 HD
ENDBRANCH  18  19
BRANCH  18  21
ATOM     21  C   UNL     1       1.254   1.588   0.015  0.00  0.00    +0.176 C 
BRANCH  21  22
ATOM     22  O   UNL     1      -0.037   0.976   0.024  0.00  0.00    -0.386 OA
ATOM     23  H   UNL     1      -0.014   0.010   0.011  0.00  0.00    +0.210 HD
ENDBRANCH  21  22
BRANCH  21  24
ATOM     24  C   UNL     1       2.008   1.171  -1.249  0.00  0.00    +0.171 C 
BRANCH  24  25
ATOM     25  O   UNL     1       3.299   1.783  -1.258  0.00  0.00    -0.387 OA
ATOM     26  H   UNL     1       3.277   2.750  -1.245  0.00  0.00    +0.210 HD
ENDBRANCH  24  25
BRANCH  24  27
ATOM     27  C   UNL     1       1.222   1.621  -2.483  0.00  0.00    +0.189 C 
BRANCH  27  28
ATOM     28  O   UNL     1       1.865   1.132  -3.661  0.00  0.00    -0.392 OA
ATOM     29  H   UNL     1       1.420   1.379  -4.484  0.00  0.00    +0.210 HD
ENDBRANCH  27  28
ENDBRANCH  24  27
ENDBRANCH  21  24
ENDBRANCH  18  21
ENDBRANCH   1  18
TORSDOF 11
