REMARK  Name = ZINC06887347
REMARK  5 active torsions:
REMARK  status: ('A' for Active; 'I' for Inactive)
REMARK    1  A    between atoms: C_1  and  C_2
REMARK    2  A    between atoms: C_7  and  N_8
REMARK    3  A    between atoms: N_8  and  S_9
REMARK    4  A    between atoms: S_9  and  C_12
REMARK    5  A    between atoms: C_17  and  C_18
REMARK                            x       y       z     vdW  Elec       q    Type
REMARK                         _______ _______ _______ _____ _____    ______ ____
ROOT
ATOM      1  C   UNL     1       2.447  -0.433   3.251  0.00  0.00    +0.113 A 
ATOM      2  C   UNL     1       3.340   0.302   4.005  0.00  0.00    +0.056 A 
ATOM      3  C   UNL     1       4.668   0.403   3.606  0.00  0.00    +0.068 A 
ATOM      4  C   UNL     1       5.092  -0.241   2.442  0.00  0.00    +0.066 A 
ATOM      5  C   UNL     1       4.183  -0.978   1.691  0.00  0.00    +0.033 A 
ATOM      6  C   UNL     1       2.869  -1.076   2.100  0.00  0.00    -0.022 A 
ATOM      7  C   UNL     1       1.887  -1.881   1.287  0.00  0.00    +0.046 C 
ATOM      8  N   UNL     1       6.418  -0.151   2.026  0.00  0.00    -0.316 N 
ATOM      9  H   UNL     1       6.702  -0.602   1.215  0.00  0.00    +0.169 HD
ATOM     10  C   UNL     1       7.306   0.562   2.747  0.00  0.00    +0.314 A 
ATOM     11  O   UNL     1       8.463   0.643   2.388  0.00  0.00    -0.262 OA
ATOM     12  C   UNL     1       6.853   1.249   3.991  0.00  0.00    +0.314 A 
ATOM     13  O   UNL     1       7.638   1.896   4.655  0.00  0.00    -0.262 OA
ATOM     14  N   UNL     1       5.563   1.146   4.370  0.00  0.00    -0.316 N 
ATOM     15  H   UNL     1       5.258   1.590   5.177  0.00  0.00    +0.169 HD
ENDROOT
BRANCH   1  16
ATOM     16  S   UNL     1       0.764  -0.558   3.760  0.00  0.00    +0.073 S 
ATOM     17  O   UNL     1      -0.028  -0.251   2.622  0.00  0.00    -0.150 OA
ATOM     18  O   UNL     1       0.655   0.161   4.981  0.00  0.00    -0.150 OA
BRANCH  16  19
ATOM     19  N   UNL     1       0.479  -2.149   4.121  0.00  0.00    -0.216 N 
ATOM     20  H   UNL     1      -0.201  -2.642   3.636  0.00  0.00    +0.174 HD
BRANCH  19  27
ATOM     21  C   UNL     1       1.145  -4.893   3.770  0.00  0.00    +0.046 C 
ATOM     22  C   UNL     1       1.565  -4.120   4.994  0.00  0.00    -0.028 A 
ATOM     23  C   UNL     1       2.301  -4.740   5.985  0.00  0.00    +0.005 A 
ATOM     24  C   UNL     1       2.686  -4.032   7.108  0.00  0.00    +0.000 A 
ATOM     25  C   UNL     1       2.337  -2.700   7.243  0.00  0.00    +0.002 A 
ATOM     26  C   UNL     1       1.603  -2.074   6.256  0.00  0.00    +0.025 A 
ATOM     27  C   UNL     1       1.218  -2.781   5.124  0.00  0.00    +0.051 A 
ENDBRANCH  19  27
ENDBRANCH  16  19
ENDBRANCH   1  16
TORSDOF 3
