REMARK  Name = ZINC02851223
REMARK  9 active torsions:
REMARK  status: ('A' for Active; 'I' for Inactive)
REMARK    1  A    between atoms: C_1  and  C_2
REMARK    2  A    between atoms: C_11  and  N_13
REMARK    3  A    between atoms: N_13  and  C_14
REMARK    4  A    between atoms: C_14  and  N_16
REMARK    5  A    between atoms: N_16  and  N_17
REMARK    6  A    between atoms: C_18  and  C_20
REMARK    7  A    between atoms: C_23  and  C_25
REMARK    8  A    between atoms: C_25  and  O_26
REMARK    9  A    between atoms: O_26  and  C_27
REMARK                            x       y       z     vdW  Elec       q    Type
REMARK                         _______ _______ _______ _____ _____    ______ ____
ROOT
ATOM      1  N   UNL     1       2.881   4.545  -0.007  0.00  0.00    -0.229 N 
ATOM      2  C   UNL     1       1.540   4.684  -0.001  0.00  0.00    +0.295 C 
ATOM      3  O   UNL     1       1.040   5.772  -0.223  0.00  0.00    -0.265 OA
ATOM      4  H   UNL     1       3.279   3.679   0.170  0.00  0.00    +0.173 HD
ENDROOT
BRANCH   2   5
ATOM      5  C   UNL     1       0.683   3.526   0.273  0.00  0.00    +0.191 A 
ATOM      6  C   UNL     1      -0.681   3.528   0.309  0.00  0.00    +0.055 A 
ATOM      7  C   UNL     1      -1.079   2.213   0.599  0.00  0.00    +0.049 A 
ATOM      8  C   UNL     1       0.046   1.478   0.734  0.00  0.00    +0.143 A 
ATOM      9  O   UNL     1       1.106   2.272   0.534  0.00  0.00    -0.452 OA
BRANCH   8  10
ATOM     10  C   UNL     1       0.100   0.006   1.052  0.00  0.00    +0.303 C 
BRANCH  10  11
ATOM     11  O   UNL     1       0.082  -0.745  -0.164  0.00  0.00    -0.484 OA
BRANCH  11  12
ATOM     12  C   UNL     1       0.125  -2.099  -0.053  0.00  0.00    +0.121 A 
ATOM     13  C   UNL     1       0.183  -2.693   1.199  0.00  0.00    +0.046 A 
ATOM     14  C   UNL     1       0.226  -4.069   1.306  0.00  0.00    +0.007 A 
ATOM     15  C   UNL     1       0.212  -4.859   0.168  0.00  0.00    -0.044 A 
ATOM     16  C   UNL     1       0.154  -4.269  -1.081  0.00  0.00    -0.041 A 
ATOM     17  C   UNL     1       0.105  -2.890  -1.191  0.00  0.00    +0.049 A 
ATOM     18  C   UNL     1       0.151  -5.338  -2.152  0.00  0.00    +0.036 C 
ATOM     19  C   UNL     1      -0.228  -6.643  -1.420  0.00  0.00    +0.009 C 
ATOM     20  C   UNL     1       0.251  -6.365   0.021  0.00  0.00    +0.036 C 
ENDBRANCH  11  12
ENDBRANCH  10  11
ENDBRANCH   8  10
ENDBRANCH   2   5
BRANCH   1  21
ATOM     21  N   UNL     1       3.699   5.652  -0.268  0.00  0.00    -0.245 N 
ATOM     22  H   UNL     1       3.300   6.519  -0.445  0.00  0.00    +0.172 HD
BRANCH  21  23
ATOM     23  C   UNL     1       5.039   5.513  -0.274  0.00  0.00    +0.151 C 
ATOM     24  S   UNL     1       6.039   6.865  -0.594  0.00  0.00    -0.017 S 
BRANCH  23  25
ATOM     25  N   UNL     1       5.593   4.309  -0.028  0.00  0.00    -0.296 N 
ATOM     26  H   UNL     1       5.032   3.561   0.232  0.00  0.00    +0.154 HD
BRANCH  25  37
ATOM     27  C   UNL     1      11.924   4.230  -1.661  0.00  0.00    +0.045 C 
ATOM     28  C   UNL     1      11.155   3.623  -0.516  0.00  0.00    -0.033 A 
ATOM     29  C   UNL     1      11.785   2.890   0.438  0.00  0.00    +0.096 A 
ATOM     30  C   UNL     1      11.043   2.333   1.499  0.00  0.00    +0.337 A 
ATOM     31  O   UNL     1      11.621   1.677   2.348  0.00  0.00    -0.245 OA
ATOM     32  O   UNL     1       9.716   2.507   1.599  0.00  0.00    -0.422 OA
ATOM     33  C   UNL     1       9.028   3.225   0.685  0.00  0.00    +0.141 A 
ATOM     34  C   UNL     1       9.707   3.809  -0.402  0.00  0.00    +0.021 A 
ATOM     35  C   UNL     1       8.999   4.555  -1.351  0.00  0.00    +0.013 A 
ATOM     36  C   UNL     1       7.649   4.709  -1.224  0.00  0.00    +0.024 A 
ATOM     37  C   UNL     1       6.971   4.137  -0.147  0.00  0.00    +0.036 A 
ATOM     38  C   UNL     1       7.658   3.396   0.803  0.00  0.00    +0.070 A 
ENDBRANCH  25  37
ENDBRANCH  23  25
ENDBRANCH  21  23
ENDBRANCH   1  21
TORSDOF 8
