REMARK  Name = ZINC12939788
REMARK  9 active torsions:
REMARK  status: ('A' for Active; 'I' for Inactive)
REMARK    1  A    between atoms: C_1  and  C_2
REMARK    2  A    between atoms: C_4  and  N_11
REMARK    3  A    between atoms: C_6  and  C_8
REMARK    4  A    between atoms: C_8  and  C_9
REMARK    5  A    between atoms: C_8  and  C_10
REMARK    6  A    between atoms: N_14  and  C_17
REMARK    7  A    between atoms: C_17  and  C_19
REMARK    8  A    between atoms: C_17  and  C_20
REMARK    9  A    between atoms: N_22  and  C_23
REMARK                            x       y       z     vdW  Elec       q    Type
REMARK                         _______ _______ _______ _____ _____    ______ ____
ROOT
ATOM      1  N   UNL     1       0.092  -2.917  -2.319  0.00  0.00    -0.313 N 
ATOM      2  C   UNL     1       0.094  -4.388  -2.300  0.00  0.00    +0.122 C 
ATOM      3  C   UNL     1      -1.047  -4.888  -3.192  0.00  0.00    +0.104 C 
ATOM      4  N   UNL     1      -0.922  -4.283  -4.525  0.00  0.00    -0.289 NA
ATOM      5  C   UNL     1      -1.063  -2.822  -4.463  0.00  0.00    +0.104 C 
ATOM      6  C   UNL     1       0.071  -2.238  -3.623  0.00  0.00    +0.122 C 
ENDROOT
BRANCH   1  10
ATOM      7  C   UNL     1       0.110   1.391   0.063  0.00  0.00    +0.063 C 
ATOM      8  C   UNL     1       0.112  -0.116   0.037  0.00  0.00    +0.017 A 
ATOM      9  C   UNL     1       0.100  -0.795  -1.165  0.00  0.00    +0.064 A 
ATOM     10  C   UNL     1       0.104  -2.191  -1.139  0.00  0.00    +0.125 A 
ATOM     11  N   UNL     1       0.118  -2.812   0.037  0.00  0.00    -0.219 NA
ATOM     12  C   UNL     1       0.128  -2.124   1.161  0.00  0.00    +0.112 A 
ATOM     13  N   UNL     1       0.131  -0.806   1.169  0.00  0.00    -0.347 N 
ATOM     14  H   UNL     1       0.143  -0.334   2.016  0.00  0.00    +0.167 HD
BRANCH  12  15
ATOM     15  C   UNL     1       0.144  -2.865   2.473  0.00  0.00    +0.049 C 
ATOM     16  C   UNL     1       1.587  -3.003   2.963  0.00  0.00    +0.015 C 
ATOM     17  C   UNL     1      -0.674  -2.089   3.507  0.00  0.00    +0.015 C 
ENDBRANCH  12  15
ENDBRANCH   1  10
BRANCH   4  18
ATOM     18  C   UNL     1      -1.894  -4.867  -5.460  0.00  0.00    +0.140 C 
ATOM     19  C   UNL     1      -3.304  -4.412  -5.080  0.00  0.00    +0.034 C 
BRANCH  18  20
ATOM     20  C   UNL     1      -1.579  -4.409  -6.862  0.00  0.00    +0.234 C 
ATOM     21  O   UNL     1      -0.639  -3.670  -7.061  0.00  0.00    -0.274 OA
ATOM     22  N   UNL     1      -2.343  -4.822  -7.892  0.00  0.00    -0.282 N 
ATOM     23  H   UNL     1      -3.143  -5.345  -7.725  0.00  0.00    +0.155 HD
BRANCH  22  24
ATOM     24  C   UNL     1      -1.982  -4.495  -9.206  0.00  0.00    +0.069 A 
ATOM     25  C   UNL     1      -0.643  -4.410  -9.559  0.00  0.00    +0.027 A 
ATOM     26  C   UNL     1      -0.289  -4.088 -10.855  0.00  0.00    +0.022 A 
ATOM     27  C   UNL     1      -1.269  -3.849 -11.802  0.00  0.00    +0.044 A 
ATOM     28  C   UNL     1      -2.606  -3.933 -11.455  0.00  0.00    +0.060 A 
ATOM     29  C   UNL     1      -2.966  -4.260 -10.161  0.00  0.00    +0.146 A 
ATOM     30  F   UNL     1      -4.271  -4.347  -9.823  0.00  0.00    -0.203 F 
ATOM     31 CL   UNL     1      -0.821  -3.444 -13.430  0.00  0.00    -0.083 Cl
ENDBRANCH  22  24
ENDBRANCH  18  20
ENDBRANCH   4  18
TORSDOF 5
