REMARK  Name = ZINC41013557
REMARK  4 active torsions:
REMARK  status: ('A' for Active; 'I' for Inactive)
REMARK    1  A    between atoms: C_1  and  C_2
REMARK    2  A    between atoms: C_11  and  N_15
REMARK    3  A    between atoms: C_12  and  C_13
REMARK    4  A    between atoms: C_16  and  C_18
REMARK                            x       y       z     vdW  Elec       q    Type
REMARK                         _______ _______ _______ _____ _____    ______ ____
ROOT
ATOM      1  C   UNL     1      -0.019   1.526   0.010  0.00  0.00    +0.008 C 
ATOM      2  C   UNL     1       0.002  -0.004   0.002  0.00  0.00    -0.009 C 
ATOM      3  C   UNL     1       0.739  -0.508  -1.246  0.00  0.00    +0.008 C 
ATOM      4  C   UNL     1       0.542  -2.015  -1.327  0.00  0.00    +0.037 C 
ATOM      5  C   UNL     1       0.942  -2.701  -0.028  0.00  0.00    -0.023 A 
ATOM      6  C   UNL     1       1.014  -2.005   1.126  0.00  0.00    -0.022 A 
ATOM      7  C   UNL     1       1.354  -2.607   2.371  0.00  0.00    +0.061 A 
ATOM      8  S   UNL     1       1.423  -1.706   3.825  0.00  0.00    -0.044 S 
ATOM      9  S   UNL     1       1.702  -4.349   2.324  0.00  0.00    -0.065 S 
ATOM     10  C   UNL     1       1.574  -4.992   0.775  0.00  0.00    +0.091 A 
ATOM     11  C   UNL     1       1.208  -4.075  -0.202  0.00  0.00    +0.083 A 
ATOM     12  C   UNL     1       0.757  -0.518   1.222  0.00  0.00    +0.040 C 
ENDROOT
BRANCH  10  13
ATOM     13  N   UNL     1       1.813  -6.319   0.498  0.00  0.00    -0.276 N 
ATOM     14  C   UNL     1       2.165  -7.161   1.490  0.00  0.00    +0.262 C 
ATOM     15  O   UNL     1       2.272  -6.750   2.626  0.00  0.00    -0.271 OA
ATOM     16  H   UNL     1       1.727  -6.648  -0.410  0.00  0.00    +0.155 HD
BRANCH  14  17
ATOM     17  C   UNL     1       2.426  -8.614   1.187  0.00  0.00    +0.296 C 
ATOM     18  C   UNL     1       1.127  -9.288   0.724  0.00  0.00    +0.283 C 
ATOM     19  O   UNL     1       1.407 -10.667   0.459  0.00  0.00    -0.484 OA
ATOM     20  C   UNL     1       2.137 -11.334   1.394  0.00  0.00    +0.162 A 
ATOM     21  C   UNL     1       2.140 -12.721   1.394  0.00  0.00    +0.049 A 
ATOM     22  C   UNL     1       2.878 -13.412   2.336  0.00  0.00    +0.004 A 
ATOM     23  C   UNL     1       3.616 -12.723   3.280  0.00  0.00    +0.004 A 
ATOM     24  C   UNL     1       3.617 -11.341   3.287  0.00  0.00    +0.049 A 
ATOM     25  C   UNL     1       2.877 -10.641   2.346  0.00  0.00    +0.163 A 
ATOM     26  O   UNL     1       2.881  -9.280   2.370  0.00  0.00    -0.473 OA
ENDBRANCH  14  17
ENDBRANCH  10  13
BRANCH  11  27
ATOM     27  C   UNL     1       1.088  -4.582  -1.536  0.00  0.00    +0.102 C 
ATOM     28  N   UNL     1       0.993  -4.984  -2.594  0.00  0.00    -0.191 NA
ENDBRANCH  11  27
TORSDOF 3
