REMARK  Name = ZINC07526746
REMARK  12 active torsions:
REMARK  status: ('A' for Active; 'I' for Inactive)
REMARK    1  A    between atoms: C_1  and  C_2
REMARK    2  A    between atoms: C_3  and  C_29
REMARK    3  A    between atoms: C_4  and  C_28
REMARK    4  A    between atoms: C_7  and  C_8
REMARK    5  A    between atoms: C_8  and  C_10
REMARK    6  A    between atoms: C_10  and  N_11
REMARK    7  A    between atoms: C_14  and  C_18
REMARK    8  A    between atoms: C_14  and  C_19
REMARK    9  A    between atoms: C_22  and  C_25
REMARK   10  A    between atoms: C_25  and  C_26
REMARK   11  A    between atoms: C_25  and  C_27
REMARK   12  A    between atoms: C_29  and  C_31
REMARK                            x       y       z     vdW  Elec       q    Type
REMARK                         _______ _______ _______ _____ _____    ______ ____
ROOT
ATOM      1  N   UNL     1      -4.862   2.311   0.658  0.00  0.00    -0.216 N 
ATOM      2  C   UNL     1      -5.690   2.020  -0.364  0.00  0.00    +0.251 C 
ATOM      3  O   UNL     1      -5.516   2.262  -1.540  0.00  0.00    -0.272 OA
ATOM      4  C   UNL     1      -6.884   1.326   0.260  0.00  0.00    +0.135 C 
ATOM      5  N   UNL     1      -6.563   1.311   1.698  0.00  0.00    -0.281 N 
ATOM      6  C   UNL     1      -5.364   1.907   1.831  0.00  0.00    +0.310 C 
ATOM      7  O   UNL     1      -4.801   2.062   2.896  0.00  0.00    -0.252 OA
ATOM      8  C   UNL     1      -8.165   2.123   0.003  0.00  0.00    +0.047 C 
ATOM      9  H   UNL     1      -7.109   0.942   2.410  0.00  0.00    +0.152 HD
ENDROOT
BRANCH   4  10
ATOM     10  C   UNL     1      -7.021  -0.079  -0.267  0.00  0.00    -0.015 A 
ATOM     11  C   UNL     1      -6.683  -0.362  -1.577  0.00  0.00    +0.006 A 
ATOM     12  C   UNL     1      -6.805  -1.652  -2.060  0.00  0.00    +0.004 A 
ATOM     13  C   UNL     1      -7.274  -2.657  -1.234  0.00  0.00    -0.045 A 
ATOM     14  C   UNL     1      -7.617  -2.373   0.074  0.00  0.00    +0.004 A 
ATOM     15  C   UNL     1      -7.491  -1.084   0.558  0.00  0.00    +0.006 A 
BRANCH  13  16
ATOM     16  C   UNL     1      -7.411  -4.062  -1.762  0.00  0.00    +0.013 C 
ATOM     17  C   UNL     1      -8.383  -4.070  -2.944  0.00  0.00    +0.012 C 
ATOM     18  C   UNL     1      -6.044  -4.570  -2.223  0.00  0.00    +0.012 C 
ENDBRANCH  13  16
ENDBRANCH   4  10
BRANCH   1  19
ATOM     19  C   UNL     1      -3.573   2.990   0.505  0.00  0.00    +0.199 C 
BRANCH  19  20
ATOM     20  C   UNL     1      -2.487   1.966   0.296  0.00  0.00    +0.197 C 
ATOM     21  O   UNL     1      -2.763   0.784   0.276  0.00  0.00    -0.289 OA
BRANCH  20  28
ATOM     22  C   UNL     1      -0.081   0.051  -0.151  0.00  0.00    +0.047 C 
ATOM     23  C   UNL     1      -0.061   1.556  -0.077  0.00  0.00    -0.012 A 
ATOM     24  C   UNL     1       1.071   2.392  -0.206  0.00  0.00    +0.041 A 
ATOM     25  C   UNL     1       0.630   3.700  -0.073  0.00  0.00    +0.024 A 
ATOM     26  N   UNL     1      -0.695   3.688   0.126  0.00  0.00    -0.355 N 
ATOM     27  H   UNL     1      -1.251   4.473   0.250  0.00  0.00    +0.166 HD
ATOM     28  C   UNL     1      -1.145   2.383   0.122  0.00  0.00    +0.088 A 
ATOM     29  C   UNL     1       1.497   4.931  -0.142  0.00  0.00    +0.064 C 
BRANCH  24  30
ATOM     30  C   UNL     1       2.453   1.957  -0.437  0.00  0.00    +0.162 C 
ATOM     31  O   UNL     1       3.172   1.694   0.504  0.00  0.00    -0.292 OA
ATOM     32  C   UNL     1       2.980   1.837  -1.844  0.00  0.00    +0.091 C 
ENDBRANCH  24  30
ENDBRANCH  20  28
ENDBRANCH  19  20
ENDBRANCH   1  19
TORSDOF 6
