REMARK  Name = ZINC09237923
REMARK  6 active torsions:
REMARK  status: ('A' for Active; 'I' for Inactive)
REMARK    1  A    between atoms: C_1  and  C_2
REMARK    2  A    between atoms: C_6  and  N_9
REMARK    3  A    between atoms: C_7  and  C_8
REMARK    4  A    between atoms: C_10  and  C_12
REMARK    5  A    between atoms: C_14  and  C_24
REMARK    6  A    between atoms: C_18  and  C_23
REMARK                            x       y       z     vdW  Elec       q    Type
REMARK                         _______ _______ _______ _____ _____    ______ ____
ROOT
ATOM      1  C   UNL     1      -2.370  -3.004   0.108  0.00  0.00    +0.166 C 
ATOM      2  C   UNL     1      -2.105  -4.240   0.978  0.00  0.00    +0.140 C 
ATOM      3  N   UNL     1      -0.834  -4.864   0.605  0.00  0.00    -0.272 N 
ATOM      4  N   UNL     1      -0.782  -5.268  -0.690  0.00  0.00    -0.225 N 
ATOM      5  C   UNL     1       0.046  -6.206  -1.238  0.00  0.00    +0.148 A 
ATOM      6  N   UNL     1      -0.226  -6.266  -2.513  0.00  0.00    -0.132 NA
ATOM      7  N   UNL     1      -1.168  -5.438  -2.806  0.00  0.00    -0.121 NA
ATOM      8  C   UNL     1      -1.544  -4.809  -1.727  0.00  0.00    +0.209 A 
ATOM      9  S   UNL     1      -2.800  -3.579  -1.563  0.00  0.00    -0.069 S 
ATOM     10  C   UNL     1       1.082  -7.020  -0.506  0.00  0.00    +0.090 C 
ATOM     11  H   UNL     1      -0.057  -4.260   0.827  0.00  0.00    +0.167 HD
ENDROOT
BRANCH   2  12
ATOM     12  C   UNL     1      -2.055  -3.827   2.426  0.00  0.00    -0.024 A 
ATOM     13  C   UNL     1      -0.904  -3.262   2.944  0.00  0.00    +0.005 A 
ATOM     14  C   UNL     1      -0.859  -2.880   4.272  0.00  0.00    +0.000 A 
ATOM     15  C   UNL     1      -1.962  -3.071   5.084  0.00  0.00    +0.000 A 
ATOM     16  C   UNL     1      -3.110  -3.640   4.567  0.00  0.00    +0.000 A 
ATOM     17  C   UNL     1      -3.157  -4.019   3.239  0.00  0.00    +0.005 A 
ENDBRANCH   2  12
BRANCH   1  19
ATOM     18  N   UNL     1      -0.258  -2.293  -0.966  0.00  0.00    -0.284 N 
ATOM     19  C   UNL     1      -1.133  -2.146   0.049  0.00  0.00    +0.233 C 
ATOM     20  O   UNL     1      -0.924  -1.324   0.915  0.00  0.00    -0.274 OA
ATOM     21  H   UNL     1      -0.464  -2.893  -1.700  0.00  0.00    +0.155 HD
BRANCH  18  27
ATOM     22  C   UNL     1       3.602  -0.488  -3.417  0.00  0.00    +0.044 C 
ATOM     23  C   UNL     1       2.838  -0.691  -2.134  0.00  0.00    -0.046 A 
ATOM     24  C   UNL     1       3.328  -0.173  -0.949  0.00  0.00    +0.004 A 
ATOM     25  C   UNL     1       2.630  -0.358   0.230  0.00  0.00    +0.002 A 
ATOM     26  C   UNL     1       1.441  -1.060   0.228  0.00  0.00    +0.023 A 
ATOM     27  C   UNL     1       0.946  -1.581  -0.960  0.00  0.00    +0.037 A 
ATOM     28  C   UNL     1       1.649  -1.394  -2.143  0.00  0.00    -0.026 A 
ATOM     29  C   UNL     1       1.119  -1.963  -3.434  0.00  0.00    +0.046 C 
ENDBRANCH  18  27
ENDBRANCH   1  19
TORSDOF 3
