REMARK  Name = ZINC45766061
REMARK  3 active torsions:
REMARK  status: ('A' for Active; 'I' for Inactive)
REMARK    1  A    between atoms: C_1  and  C_2
REMARK    2  A    between atoms: N_16  and  C_17
REMARK    3  A    between atoms: C_17  and  C_18
REMARK                            x       y       z     vdW  Elec       q    Type
REMARK                         _______ _______ _______ _____ _____    ______ ____
ROOT
ATOM      1  C   UNL     1      -0.108   1.501   0.222  0.00  0.00    -0.008 C 
ATOM      2  C   UNL     1      -0.001  -0.010   0.009  0.00  0.00    -0.040 C 
ATOM      3  C   UNL     1      -1.379  -0.616   0.050  0.00  0.00    -0.054 A 
ATOM      4  C   UNL     1      -2.420   0.062  -0.567  0.00  0.00    +0.051 A 
ATOM      5  C   UNL     1      -3.702  -0.462  -0.557  0.00  0.00    +0.162 A 
ATOM      6  C   UNL     1      -3.945  -1.677   0.074  0.00  0.00    +0.162 A 
ATOM      7  C   UNL     1      -2.903  -2.348   0.693  0.00  0.00    +0.053 A 
ATOM      8  C   UNL     1      -1.623  -1.817   0.682  0.00  0.00    -0.038 A 
ATOM      9  C   UNL     1      -0.519  -2.571   1.373  0.00  0.00    -0.019 C 
ATOM     10  C   UNL     1      -0.635  -4.073   1.053  0.00  0.00    +0.010 C 
ATOM     11  C   UNL     1      -0.236  -4.774   2.376  0.00  0.00    +0.001 C 
ATOM     12  C   UNL     1      -0.861  -3.854   3.454  0.00  0.00    +0.001 C 
ATOM     13  C   UNL     1      -0.661  -2.428   2.896  0.00  0.00    +0.010 C 
ATOM     14  C   UNL     1       0.845  -2.051   0.925  0.00  0.00    -0.066 C 
ATOM     15  N   UNL     1       0.850  -0.585   1.053  0.00  0.00    +0.388 N 
ATOM     16  O   UNL     1      -5.193  -2.217   0.087  0.00  0.00    -0.485 OA
ATOM     17  C   UNL     1      -6.280  -1.336  -0.219  0.00  0.00    +0.270 C 
ATOM     18  C   UNL     1      -5.901  -0.519  -1.461  0.00  0.00    +0.270 C 
ATOM     19  O   UNL     1      -4.710   0.220  -1.166  0.00  0.00    -0.485 OA
ATOM     20  H   UNL     1       0.494  -0.324   1.961  0.00  0.00    -0.080 HD
ENDROOT
BRANCH  15  21
ATOM     21  C   UNL     1       2.223  -0.085   0.900  0.00  0.00    -0.021 C 
BRANCH  21  22
ATOM     22  C   UNL     1       3.068  -0.577   2.047  0.00  0.00    +0.032 A 
ATOM     23  C   UNL     1       4.117  -1.444   1.809  0.00  0.00    +0.092 A 
ATOM     24  C   UNL     1       4.887  -1.886   2.891  0.00  0.00    +0.259 A 
ATOM     25  O   UNL     1       5.821  -2.653   2.714  0.00  0.00    -0.267 OA
ATOM     26  N   UNL     1       4.582  -1.452   4.132  0.00  0.00    -0.267 N 
ATOM     27  C   UNL     1       5.323  -1.873   5.194  0.00  0.00    +0.116 A 
ATOM     28  C   UNL     1       5.037  -1.452   6.448  0.00  0.00    +0.058 A 
ATOM     29  C   UNL     1       3.967  -0.571   6.667  0.00  0.00    +0.025 A 
ATOM     30  C   UNL     1       3.220  -0.144   5.610  0.00  0.00    +0.048 A 
ATOM     31  C   UNL     1       3.534  -0.593   4.315  0.00  0.00    +0.140 A 
ATOM     32  N   UNL     1       2.808  -0.173   3.280  0.00  0.00    -0.236 NA
ATOM     33 CL   UNL     1       5.994  -2.002   7.787  0.00  0.00    -0.082 Cl
ENDBRANCH  21  22
ENDBRANCH  15  21
TORSDOF 2
