REMARK  Name = ZINC12983419
REMARK  5 active torsions:
REMARK  status: ('A' for Active; 'I' for Inactive)
REMARK    1  A    between atoms: C_1  and  C_2
REMARK    2  A    between atoms: C_4  and  C_26
REMARK    3  A    between atoms: C_6  and  C_25
REMARK    4  A    between atoms: C_10  and  C_11
REMARK    5  A    between atoms: C_20  and  C_24
REMARK                            x       y       z     vdW  Elec       q    Type
REMARK                         _______ _______ _______ _____ _____    ______ ____
ROOT
ATOM      1  C   UNL     1      -3.788  -5.936  -2.333  0.00  0.00    +0.257 C 
ATOM      2  O   UNL     1      -4.069  -6.803  -1.528  0.00  0.00    -0.269 OA
ATOM      3  N   UNL     1      -4.105  -6.096  -3.634  0.00  0.00    -0.260 N 
ATOM      4  C   UNL     1      -4.752  -7.251  -4.054  0.00  0.00    +0.165 A 
ATOM      5  N   UNL     1      -5.129  -8.293  -3.343  0.00  0.00    -0.229 NA
ATOM      6  C   UNL     1      -5.750  -9.336  -3.889  0.00  0.00    +0.054 A 
ATOM      7  C   UNL     1      -5.962  -9.268  -5.229  0.00  0.00    +0.015 A 
ATOM      8  S   UNL     1      -5.264  -7.696  -5.654  0.00  0.00    -0.057 S 
ATOM      9  C   UNL     1      -6.622 -10.280  -6.103  0.00  0.00    +0.047 C 
ATOM     10  C   UNL     1      -7.367 -11.280  -5.204  0.00  0.00    -0.009 C 
ATOM     11  C   UNL     1      -6.432 -11.716  -4.073  0.00  0.00    +0.010 C 
ATOM     12  C   UNL     1      -6.207 -10.558  -3.100  0.00  0.00    +0.056 C 
ATOM     13  C   UNL     1      -7.781 -12.501  -6.028  0.00  0.00    +0.008 C 
ATOM     14  H   UNL     1      -3.882  -5.404  -4.276  0.00  0.00    +0.157 HD
ENDROOT
BRANCH   1  24
ATOM     15  C   UNL     1      -2.961  -5.313   0.518  0.00  0.00    +0.046 C 
ATOM     16  C   UNL     1      -2.708  -4.374  -0.633  0.00  0.00    -0.020 A 
ATOM     17  C   UNL     1      -2.063  -3.147  -0.412  0.00  0.00    +0.032 A 
ATOM     18  C   UNL     1      -1.571  -2.596   0.797  0.00  0.00    +0.050 A 
ATOM     19  N   UNL     1      -0.992  -1.416   0.779  0.00  0.00    -0.237 NA
ATOM     20  C   UNL     1      -0.848  -0.714  -0.332  0.00  0.00    +0.128 A 
ATOM     21  N   UNL     1      -1.288  -1.164  -1.490  0.00  0.00    -0.225 NA
ATOM     22  C   UNL     1      -1.874  -2.339  -1.564  0.00  0.00    +0.113 A 
ATOM     23  S   UNL     1      -2.590  -3.310  -2.865  0.00  0.00    -0.064 S 
ATOM     24  C   UNL     1      -3.104  -4.714  -1.889  0.00  0.00    +0.080 A 
ATOM     25  C   UNL     1      -0.173   0.632  -0.271  0.00  0.00    +0.088 C 
ATOM     26  C   UNL     1      -1.710  -3.356   2.091  0.00  0.00    +0.066 C 
ENDBRANCH   1  24
TORSDOF 1
