REMARK  Name = ZINC23259821
REMARK  11 active torsions:
REMARK  status: ('A' for Active; 'I' for Inactive)
REMARK    1  A    between atoms: C_1  and  C_2
REMARK    2  A    between atoms: C_5  and  N_9
REMARK    3  A    between atoms: C_6  and  C_8
REMARK    4  A    between atoms: C_13  and  C_15
REMARK    5  A    between atoms: C_15  and  N_16
REMARK    6  A    between atoms: N_16  and  C_17
REMARK    7  A    between atoms: N_16  and  C_18
REMARK    8  A    between atoms: C_18  and  C_20
REMARK    9  A    between atoms: C_18  and  C_21
REMARK   10  A    between atoms: C_24  and  S_27
REMARK   11  A    between atoms: S_27  and  N_30
REMARK                            x       y       z     vdW  Elec       q    Type
REMARK                         _______ _______ _______ _____ _____    ______ ____
ROOT
ATOM      1  C   UNL     1       0.134   1.395  -0.071  0.00  0.00    +0.019 C 
ENDROOT
BRANCH   1   6
ATOM      2  N   UNL     1       1.296  -2.888  -1.919  0.00  0.00    -0.269 N 
ATOM      3  C   UNL     1       0.701  -2.172  -0.944  0.00  0.00    +0.310 C 
ATOM      4  O   UNL     1       0.152  -2.742  -0.021  0.00  0.00    -0.252 OA
ATOM      5  N   UNL     1       0.714  -0.826  -0.992  0.00  0.00    -0.241 N 
ATOM      6  C   UNL     1       0.119  -0.111  -0.017  0.00  0.00    +0.204 C 
ATOM      7  O   UNL     1      -0.429  -0.679   0.903  0.00  0.00    -0.277 OA
ATOM      8  H   UNL     1       1.711  -2.377  -2.800  0.00  0.00    +0.156 HD
ATOM      9  H   UNL     1       1.211  -0.310  -1.827  0.00  0.00    +0.159 HD
BRANCH   2  14
ATOM     10  C   UNL     1       1.661  -8.532  -1.477  0.00  0.00    +0.044 C 
ATOM     11  C   UNL     1       1.564  -7.032  -1.594  0.00  0.00    -0.050 A 
ATOM     12  C   UNL     1       1.448  -6.257  -0.455  0.00  0.00    +0.005 A 
ATOM     13  C   UNL     1       1.358  -4.883  -0.559  0.00  0.00    +0.024 A 
ATOM     14  C   UNL     1       1.386  -4.280  -1.810  0.00  0.00    +0.038 A 
ATOM     15  C   UNL     1       1.498  -5.061  -2.952  0.00  0.00    -0.029 A 
ATOM     16  C   UNL     1       1.593  -6.435  -2.841  0.00  0.00    +0.008 A 
ATOM     17  C   UNL     1       1.523  -4.411  -4.311  0.00  0.00    +0.045 C 
ENDBRANCH   2  14
ENDBRANCH   1   6
BRANCH   1  18
ATOM     18  N   UNL     1      -0.576   1.934   1.097  0.00  0.00    +0.388 N 
ATOM     19  C   UNL     1       0.143   1.622   2.340  0.00  0.00    -0.095 C 
ATOM     20  H   UNL     1      -1.562   1.450   1.147  0.00  0.00    -0.081 HD
BRANCH  18  21
ATOM     21  C   UNL     1      -0.789   3.381   0.962  0.00  0.00    -0.041 C 
ATOM     22  C   UNL     1      -1.632   3.884   2.136  0.00  0.00    -0.008 C 
BRANCH  21  23
ATOM     23  C   UNL     1      -1.508   3.665  -0.331  0.00  0.00    -0.061 A 
ATOM     24  C   UNL     1      -2.593   2.892  -0.703  0.00  0.00    +0.004 A 
ATOM     25  C   UNL     1      -3.256   3.155  -1.887  0.00  0.00    +0.029 A 
ATOM     26  C   UNL     1      -2.828   4.183  -2.705  0.00  0.00    +0.105 A 
ATOM     27  C   UNL     1      -1.740   4.953  -2.336  0.00  0.00    +0.029 A 
ATOM     28  C   UNL     1      -1.081   4.694  -1.149  0.00  0.00    +0.004 A 
BRANCH  26  29
ATOM     29  S   UNL     1      -3.668   4.514  -4.218  0.00  0.00    +0.056 S 
ATOM     30  O   UNL     1      -4.986   4.003  -4.070  0.00  0.00    -0.153 OA
ATOM     31  O   UNL     1      -3.410   5.874  -4.537  0.00  0.00    -0.153 OA
BRANCH  29  32
ATOM     32  N   UNL     1      -2.938   3.604  -5.393  0.00  0.00    -0.204 NA
ATOM     33  H   UNL     1      -3.435   3.783  -6.357  0.00  0.00    +0.144 HD
ATOM     34  H   UNL     1      -3.015   2.538  -5.132  0.00  0.00    +0.144 HD
ENDBRANCH  29  32
ENDBRANCH  26  29
ENDBRANCH  21  23
ENDBRANCH  18  21
ENDBRANCH   1  18
TORSDOF 7
