REMARK  Name = ZINC20527428
REMARK  9 active torsions:
REMARK  status: ('A' for Active; 'I' for Inactive)
REMARK    1  A    between atoms: C_3  and  C_31
REMARK    2  A    between atoms: C_5  and  N_7
REMARK    3  A    between atoms: C_8  and  C_10
REMARK    4  A    between atoms: C_10  and  S_11
REMARK    5  A    between atoms: S_11  and  C_12
REMARK    6  A    between atoms: N_16  and  N_17
REMARK    7  A    between atoms: N_18  and  N_19
REMARK    8  A    between atoms: C_20  and  C_21
REMARK    9  A    between atoms: C_23  and  N_28
REMARK                            x       y       z     vdW  Elec       q    Type
REMARK                         _______ _______ _______ _____ _____    ______ ____
ROOT
ATOM      1  C   UNL     1       2.442   9.738   0.478  0.00  0.00    +0.210 A 
ATOM      2  N   UNL     1       1.229  10.327   0.480  0.00  0.00    -0.119 NA
ATOM      3  N   UNL     1       1.368  11.600   0.594  0.00  0.00    -0.109 NA
ATOM      4  C   UNL     1       2.676  11.907   0.663  0.00  0.00    +0.254 A 
ATOM      5  N   UNL     1       3.377  10.728   0.590  0.00  0.00    -0.211 N 
ATOM      6  N   UNL     1       3.198  13.133   0.779  0.00  0.00    -0.204 N 
ATOM      7  H   UNL     1       4.289  13.265   0.826  0.00  0.00    +0.177 HD
ENDROOT
BRANCH   5   8
ATOM      8  N   UNL     1       4.734  10.576   0.623  0.00  0.00    -0.294 N 
ATOM      9  H   UNL     1       5.384  11.459   0.716  0.00  0.00    +0.163 HD
ATOM     10  H   UNL     1       5.176   9.571   0.556  0.00  0.00    +0.163 HD
ENDBRANCH   5   8
BRANCH   6  11
ATOM     11  N   UNL     1       2.421  14.162   0.837  0.00  0.00    -0.187 NA
ATOM     12  C   UNL     1       2.935  15.370   0.952  0.00  0.00    +0.142 C 
BRANCH  12  13
ATOM     13  C   UNL     1       2.082  16.499   1.016  0.00  0.00    +0.043 A 
ATOM     14  C   UNL     1       2.624  17.790   1.138  0.00  0.00    +0.046 A 
ATOM     15  C   UNL     1       1.796  18.873   1.199  0.00  0.00    +0.127 A 
ATOM     16  C   UNL     1       0.418  18.713   1.140  0.00  0.00    +0.036 A 
ATOM     17  C   UNL     1      -0.139  17.454   1.020  0.00  0.00    +0.054 A 
ATOM     18  C   UNL     1       0.680  16.337   0.951  0.00  0.00    +0.188 A 
ATOM     19  O   UNL     1       0.140  15.101   0.827  0.00  0.00    -0.287 OA
BRANCH  15  20
ATOM     20  N   UNL     1       2.372  20.231   1.328  0.00  0.00    +0.056 N 
ATOM     21  O   UNL     1       3.679  20.389   1.383  0.00  0.00    -0.126 OA
ATOM     22  O   UNL     1       1.579  21.280   1.387  0.00  0.00    -0.126 OA
ENDBRANCH  15  20
ENDBRANCH  12  13
ENDBRANCH   6  11
BRANCH   1  23
ATOM     23  S   UNL     1       2.753   8.059   0.352  0.00  0.00    -0.075 S 
BRANCH  23  24
ATOM     24  C   UNL     1       1.059   7.433   0.245  0.00  0.00    +0.173 C 
BRANCH  24  26
ATOM     25  N   UNL     1      -0.069   5.242   0.029  0.00  0.00    -0.285 N 
ATOM     26  C   UNL     1       1.085   5.931   0.123  0.00  0.00    +0.227 C 
ATOM     27  O   UNL     1       2.146   5.342   0.111  0.00  0.00    -0.275 OA
ATOM     28  H   UNL     1      -1.026   5.779  -0.047  0.00  0.00    +0.155 HD
BRANCH  25  33
ATOM     29  C   UNL     1       0.922   1.778   0.762  0.00  0.00    +0.002 A 
ATOM     30  C   UNL     1      -0.014   1.076   0.025  0.00  0.00    +0.012 A 
ATOM     31  C   UNL     1      -0.966   1.754  -0.714  0.00  0.00    +0.057 A 
ATOM     32  C   UNL     1      -0.990   3.135  -0.711  0.00  0.00    +0.035 A 
ATOM     33  C   UNL     1      -0.051   3.842   0.028  0.00  0.00    +0.034 A 
ATOM     34  C   UNL     1       0.907   3.158   0.765  0.00  0.00    +0.023 A 
BRANCH  31  35
ATOM     35  C   UNL     1      -1.981   0.985  -1.521  0.00  0.00    +0.417 C 
ATOM     36  F   UNL     1      -1.759  -0.387  -1.363  0.00  0.00    -0.166 F 
ATOM     37  F   UNL     1      -3.268   1.304  -1.076  0.00  0.00    -0.166 F 
ATOM     38  F   UNL     1      -1.857   1.325  -2.872  0.00  0.00    -0.166 F 
ENDBRANCH  31  35
ENDBRANCH  25  33
ENDBRANCH  24  26
ENDBRANCH  23  24
ENDBRANCH   1  23
TORSDOF 9
