REMARK  Name = ZINC01445624
REMARK  5 active torsions:
REMARK  status: ('A' for Active; 'I' for Inactive)
REMARK    1  A    between atoms: C_1  and  C_2
REMARK    2  A    between atoms: C_5  and  S_8
REMARK    3  A    between atoms: S_8  and  N_11
REMARK    4  A    between atoms: C_24  and  N_29
REMARK    5  A    between atoms: C_32  and  N_50
REMARK                            x       y       z     vdW  Elec       q    Type
REMARK                         _______ _______ _______ _____ _____    ______ ____
ROOT
ATOM      1  N   UNL     1      -1.527  -4.976   0.111  0.00  0.00    -0.212 N 
ATOM      2  C   UNL     1      -2.295  -5.260  -1.025  0.00  0.00    +0.052 A 
ATOM      3  C   UNL     1      -1.673  -5.467  -2.249  0.00  0.00    +0.025 A 
ATOM      4  C   UNL     1      -2.433  -5.745  -3.368  0.00  0.00    +0.002 A 
ATOM      5  C   UNL     1      -3.811  -5.815  -3.266  0.00  0.00    +0.000 A 
ATOM      6  C   UNL     1      -4.430  -5.610  -2.048  0.00  0.00    +0.004 A 
ATOM      7  C   UNL     1      -3.677  -5.332  -0.920  0.00  0.00    -0.028 A 
ATOM      8  C   UNL     1      -4.370  -5.117   0.396  0.00  0.00    +0.032 C 
ATOM      9  C   UNL     1      -2.174  -5.091   1.425  0.00  0.00    +0.078 C 
ATOM     10  C   UNL     1      -2.208  -6.521   1.857  0.00  0.00    -0.027 A 
ATOM     11  C   UNL     1      -1.035  -7.055   2.382  0.00  0.00    +0.037 A 
ATOM     12  C   UNL     1      -0.972  -8.374   2.775  0.00  0.00    +0.127 A 
ATOM     13  C   UNL     1      -2.083  -9.190   2.653  0.00  0.00    +0.034 A 
ATOM     14  C   UNL     1      -3.253  -8.672   2.140  0.00  0.00    +0.017 A 
ATOM     15  C   UNL     1      -3.320  -7.338   1.746  0.00  0.00    +0.010 A 
ATOM     16  S   UNL     1      -4.846  -6.721   1.108  0.00  0.00    -0.136 S 
ATOM     17  C   UNL     1      -3.365  -3.018   1.066  0.00  0.00    -0.091 C 
ATOM     18  N   UNL     1      -3.502  -4.452   1.394  0.00  0.00    +0.405 N 
ATOM     19  H   UNL     1      -3.935  -4.542   2.321  0.00  0.00    -0.077 HD
ENDROOT
BRANCH   1  20
ATOM     20  S   UNL     1       0.062  -4.530  -0.023  0.00  0.00    +0.074 S 
ATOM     21  O   UNL     1       0.648  -5.399  -0.982  0.00  0.00    -0.150 OA
ATOM     22  O   UNL     1       0.562  -4.409   1.302  0.00  0.00    -0.150 OA
BRANCH  20  27
ATOM     23  C   UNL     1       0.168   1.006  -2.419  0.00  0.00    +0.044 C 
ATOM     24  C   UNL     1       0.142  -0.377  -1.821  0.00  0.00    -0.050 A 
ATOM     25  C   UNL     1       0.282  -1.485  -2.635  0.00  0.00    +0.005 A 
ATOM     26  C   UNL     1       0.263  -2.753  -2.085  0.00  0.00    +0.029 A 
ATOM     27  C   UNL     1       0.093  -2.913  -0.723  0.00  0.00    +0.109 A 
ATOM     28  C   UNL     1      -0.052  -1.805   0.091  0.00  0.00    +0.029 A 
ATOM     29  C   UNL     1      -0.028  -0.537  -0.458  0.00  0.00    +0.005 A 
ENDBRANCH  20  27
ENDBRANCH   1  20
BRANCH  12  30
ATOM     30  N   UNL     1       0.287  -8.920   3.330  0.00  0.00    +0.056 N 
ATOM     31  O   UNL     1       0.344 -10.086   3.678  0.00  0.00    -0.126 OA
ATOM     32  O   UNL     1       1.266  -8.203   3.438  0.00  0.00    -0.126 OA
ENDBRANCH  12  30
TORSDOF 3
