REMARK  Name = ZINC46009717
REMARK  3 active torsions:
REMARK  status: ('A' for Active; 'I' for Inactive)
REMARK    1  A    between atoms: C_1  and  N_2
REMARK    2  A    between atoms: C_6  and  N_12
REMARK    3  A    between atoms: N_15  and  C_16
REMARK                            x       y       z     vdW  Elec       q    Type
REMARK                         _______ _______ _______ _____ _____    ______ ____
ROOT
ATOM      1  N   UNL     1      -3.777  -4.071  -0.080  0.00  0.00    -0.269 N 
ATOM      2  C   UNL     1      -5.099  -3.839   0.038  0.00  0.00    +0.308 C 
ATOM      3  O   UNL     1      -5.523  -2.700  -0.009  0.00  0.00    -0.252 OA
ATOM      4  N   UNL     1      -5.952  -4.868   0.209  0.00  0.00    -0.267 N 
ATOM      5  H   UNL     1      -3.446  -4.982  -0.119  0.00  0.00    +0.156 HD
ATOM      6  H   UNL     1      -5.609  -5.768   0.326  0.00  0.00    +0.156 HD
ENDROOT
BRANCH   1  12
ATOM      7  C   UNL     1       0.853   0.683  -0.790  0.00  0.00    +0.156 C 
ATOM      8  N   UNL     1      -0.418   0.332  -0.152  0.00  0.00    -0.277 N 
ATOM      9  C   UNL     1      -1.101  -0.879  -0.283  0.00  0.00    +0.090 A 
ATOM     10  C   UNL     1      -0.843  -2.045  -0.987  0.00  0.00    +0.031 A 
ATOM     11  C   UNL     1      -1.730  -3.101  -0.919  0.00  0.00    +0.025 A 
ATOM     12  C   UNL     1      -2.880  -2.997  -0.145  0.00  0.00    +0.038 A 
ATOM     13  C   UNL     1      -3.142  -1.833   0.561  0.00  0.00    +0.072 A 
ATOM     14  C   UNL     1      -2.255  -0.771   0.494  0.00  0.00    +0.159 A 
ATOM     15  O   UNL     1      -2.245   0.461   1.060  0.00  0.00    -0.407 OA
ATOM     16  C   UNL     1      -1.139   1.116   0.674  0.00  0.00    +0.421 A 
ATOM     17  O   UNL     1      -0.835   2.244   1.014  0.00  0.00    -0.223 OA
ENDBRANCH   1  12
BRANCH   4  18
ATOM     18  C   UNL     1      -7.334  -4.639   0.218  0.00  0.00    +0.070 A 
ATOM     19  C   UNL     1      -7.853  -3.496  -0.374  0.00  0.00    +0.027 A 
ATOM     20  C   UNL     1      -9.216  -3.272  -0.364  0.00  0.00    +0.017 A 
ATOM     21  C   UNL     1     -10.065  -4.186   0.235  0.00  0.00    +0.021 A 
ATOM     22  C   UNL     1      -9.552  -5.327   0.826  0.00  0.00    +0.055 A 
ATOM     23  C   UNL     1      -8.189  -5.560   0.814  0.00  0.00    +0.146 A 
ATOM     24  F   UNL     1      -7.688  -6.676   1.386  0.00  0.00    -0.204 F 
ATOM     25 BR   UNL     1     -11.931  -3.875   0.245  0.00  0.00    -0.050 Br
ENDBRANCH   4  18
TORSDOF 2
