REMARK  Name = ZINC59798889
REMARK  10 active torsions:
REMARK  status: ('A' for Active; 'I' for Inactive)
REMARK    1  A    between atoms: C_1  and  C_2
REMARK    2  A    between atoms: C_3  and  C_17
REMARK    3  A    between atoms: C_4  and  C_16
REMARK    4  A    between atoms: N_5  and  C_7
REMARK    5  A    between atoms: C_7  and  C_8
REMARK    6  A    between atoms: C_18  and  C_19
REMARK    7  A    between atoms: N_21  and  C_22
REMARK    8  A    between atoms: C_22  and  C_24
REMARK    9  A    between atoms: C_22  and  C_25
REMARK   10  A    between atoms: C_25  and  N_26
REMARK                            x       y       z     vdW  Elec       q    Type
REMARK                         _______ _______ _______ _____ _____    ______ ____
ROOT
ATOM      1  C   UNL     1      -0.018   1.503   0.010  0.00  0.00    +0.068 C 
ATOM      2  C   UNL     1       0.002  -0.004   0.002  0.00  0.00    +0.067 A 
ATOM      3  C   UNL     1       0.008  -0.829  -1.147  0.00  0.00    +0.018 A 
ATOM      4  C   UNL     1       0.028  -2.140  -0.707  0.00  0.00    +0.044 A 
ATOM      5  N   UNL     1       0.034  -2.112   0.636  0.00  0.00    -0.263 N 
ATOM      6  N   UNL     1       0.023  -0.776   1.053  0.00  0.00    -0.175 NA
ATOM      7  C   UNL     1       0.040  -3.372  -1.574  0.00  0.00    +0.066 C 
ENDROOT
BRANCH   3   8
ATOM      8  C   UNL     1      -0.005  -0.377  -2.546  0.00  0.00    +0.016 C 
ATOM      9  C   UNL     1      -0.916   0.533  -2.953  0.00  0.00    +0.068 C 
BRANCH   9  10
ATOM     10  C   UNL     1      -0.928   0.969  -4.302  0.00  0.00    +0.237 C 
ATOM     11  O   UNL     1      -0.118   0.522  -5.094  0.00  0.00    -0.271 OA
ATOM     12  N   UNL     1      -1.837   1.877  -4.709  0.00  0.00    -0.308 N 
ATOM     13  H   UNL     1      -2.482   2.233  -4.078  0.00  0.00    +0.149 HD
BRANCH  12  14
ATOM     14  C   UNL     1      -1.850   2.327  -6.103  0.00  0.00    +0.087 C 
ATOM     15  C   UNL     1      -2.668   1.348  -6.947  0.00  0.00    +0.029 C 
BRANCH  14  16
ATOM     16  C   UNL     1      -2.479   3.720  -6.183  0.00  0.00    +0.129 C 
BRANCH  16  17
ATOM     17  N   UNL     1      -1.768   4.630  -5.282  0.00  0.00    -0.300 N 
ATOM     18  C   UNL     1      -2.123   4.848  -3.875  0.00  0.00    +0.108 C 
ATOM     19  C   UNL     1      -0.884   5.512  -3.235  0.00  0.00    +0.028 C 
ATOM     20  C   UNL     1      -0.220   6.185  -4.458  0.00  0.00    +0.097 C 
ATOM     21  C   UNL     1      -0.702   5.368  -5.637  0.00  0.00    +0.216 C 
ATOM     22  O   UNL     1      -0.201   5.380  -6.741  0.00  0.00    -0.276 OA
ENDBRANCH  16  17
ENDBRANCH  14  16
ENDBRANCH  12  14
ENDBRANCH   9  10
ENDBRANCH   3   8
BRANCH   5  23
ATOM     23  C   UNL     1       0.053  -3.283   1.517  0.00  0.00    +0.181 C 
BRANCH  23  24
ATOM     24  C   UNL     1       1.481  -3.665   1.812  0.00  0.00    +0.010 A 
ATOM     25  C   UNL     1       2.144  -4.556   0.987  0.00  0.00    +0.047 A 
ATOM     26  C   UNL     1       3.454  -4.906   1.259  0.00  0.00    +0.020 A 
ATOM     27  C   UNL     1       4.101  -4.367   2.355  0.00  0.00    +0.003 A 
ATOM     28  C   UNL     1       3.439  -3.477   3.179  0.00  0.00    +0.020 A 
ATOM     29  C   UNL     1       2.131  -3.121   2.905  0.00  0.00    +0.047 A 
ATOM     30 CL   UNL     1       1.303  -1.997   3.937  0.00  0.00    -0.083 Cl
ATOM     31 CL   UNL     1       1.331  -5.234  -0.389  0.00  0.00    -0.083 Cl
ENDBRANCH  23  24
ENDBRANCH   5  23
TORSDOF 7
