REMARK  Name = ZINC58891835
REMARK  7 active torsions:
REMARK  status: ('A' for Active; 'I' for Inactive)
REMARK    1  A    between atoms: C_1  and  N_2
REMARK    2  A    between atoms: N_2  and  C_3
REMARK    3  A    between atoms: N_2  and  C_4
REMARK    4  A    between atoms: C_4  and  C_6
REMARK    5  A    between atoms: C_4  and  C_19
REMARK    6  A    between atoms: C_6  and  N_7
REMARK    7  A    between atoms: N_10  and  C_11
REMARK                            x       y       z     vdW  Elec       q    Type
REMARK                         _______ _______ _______ _____ _____    ______ ____
ROOT
ATOM      1  N   UNL     1      -2.113  -1.491   1.491  0.00  0.00    -0.300 N 
ATOM      2  C   UNL     1      -2.204  -2.695   2.090  0.00  0.00    +0.304 C 
ATOM      3  O   UNL     1      -1.229  -3.181   2.629  0.00  0.00    -0.253 OA
ATOM      4  N   UNL     1      -3.377  -3.360   2.091  0.00  0.00    -0.268 N 
ATOM      5  H   UNL     1      -2.891  -1.103   1.061  0.00  0.00    +0.150 HD
ATOM      6  H   UNL     1      -4.132  -3.012   1.591  0.00  0.00    +0.156 HD
ENDROOT
BRANCH   4   7
ATOM      7  C   UNL     1      -3.505  -4.551   2.814  0.00  0.00    +0.050 A 
ATOM      8  C   UNL     1      -2.606  -4.849   3.829  0.00  0.00    +0.039 A 
ATOM      9  C   UNL     1      -2.735  -6.026   4.542  0.00  0.00    +0.020 A 
ATOM     10  C   UNL     1      -3.760  -6.907   4.245  0.00  0.00    +0.016 A 
ATOM     11  C   UNL     1      -4.657  -6.614   3.234  0.00  0.00    +0.018 A 
ATOM     12  C   UNL     1      -4.536  -5.435   2.522  0.00  0.00    +0.039 A 
ATOM     13 BR   UNL     1      -5.769  -5.030   1.146  0.00  0.00    -0.048 Br
ATOM     14 BR   UNL     1      -1.511  -6.433   5.924  0.00  0.00    -0.050 Br
ENDBRANCH   4   7
BRANCH   1  15
ATOM     15  C   UNL     1      -0.839  -0.768   1.490  0.00  0.00    +0.095 C 
BRANCH  15  16
ATOM     16  C   UNL     1      -0.971   0.498   0.642  0.00  0.00    -0.021 C 
BRANCH  16  17
ATOM     17  C   UNL     1      -1.186   0.117  -0.800  0.00  0.00    -0.057 A 
ATOM     18  C   UNL     1      -0.111  -0.259  -1.583  0.00  0.00    +0.002 A 
ATOM     19  C   UNL     1      -0.306  -0.608  -2.906  0.00  0.00    +0.003 A 
ATOM     20  C   UNL     1      -1.578  -0.582  -3.448  0.00  0.00    +0.038 A 
ATOM     21  C   UNL     1      -2.655  -0.205  -2.665  0.00  0.00    +0.124 A 
ATOM     22  C   UNL     1      -2.459   0.139  -1.338  0.00  0.00    +0.040 A 
ATOM     23  F   UNL     1      -3.898  -0.178  -3.193  0.00  0.00    -0.205 F 
ENDBRANCH  16  17
BRANCH  16  25
ATOM     24  C   UNL     1       0.151   2.485  -0.098  0.00  0.00    -0.096 C 
ATOM     25  N   UNL     1       0.256   1.297   0.760  0.00  0.00    +0.382 N 
ATOM     26  C   UNL     1       0.435   1.716   2.156  0.00  0.00    -0.096 C 
ATOM     27  H   UNL     1       1.047   0.742   0.471  0.00  0.00    -0.082 HD
ENDBRANCH  16  25
ENDBRANCH  15  16
ENDBRANCH   1  15
TORSDOF 5
