REMARK  Name = ZINC44219655
REMARK  10 active torsions:
REMARK  status: ('A' for Active; 'I' for Inactive)
REMARK    1  A    between atoms: C_6  and  O_7
REMARK    2  A    between atoms: O_7  and  C_8
REMARK    3  A    between atoms: C_8  and  C_9
REMARK    4  A    between atoms: C_8  and  C_16
REMARK    5  A    between atoms: C_9  and  C_11
REMARK    6  A    between atoms: C_9  and  N_15
REMARK    7  A    between atoms: C_11  and  C_12
REMARK    8  A    between atoms: C_16  and  C_18
REMARK    9  A    between atoms: C_16  and  N_22
REMARK   10  A    between atoms: C_18  and  C_19
REMARK                            x       y       z     vdW  Elec       q    Type
REMARK                         _______ _______ _______ _____ _____    ______ ____
ROOT
ATOM      1  C   UNL     1      -1.007  -2.239  -0.107  0.00  0.00    +0.146 C 
ENDROOT
BRANCH   1   2
ATOM      2  O   UNL     1      -1.093  -0.821   0.040  0.00  0.00    -0.492 OA
BRANCH   2   8
ATOM      3  C   UNL     1       1.284  -0.820   0.117  0.00  0.00    +0.047 A 
ATOM      4  C   UNL     1       2.474  -0.122   0.187  0.00  0.00    +0.023 A 
ATOM      5  C   UNL     1       2.463   1.260   0.252  0.00  0.00    +0.041 A 
ATOM      6  C   UNL     1       1.261   1.946   0.245  0.00  0.00    +0.023 A 
ATOM      7  C   UNL     1       0.069   1.251   0.175  0.00  0.00    +0.047 A 
ATOM      8  C   UNL     1       0.078  -0.135   0.110  0.00  0.00    +0.121 A 
ATOM      9 CL   UNL     1       3.959   2.136   0.341  0.00  0.00    -0.084 Cl
ENDBRANCH   2   8
ENDBRANCH   1   2
BRANCH   1  10
ATOM     10  C   UNL     1      -2.161  -2.902   0.649  0.00  0.00    -0.025 C 
BRANCH  10  11
ATOM     11  N   UNL     1      -2.024  -4.362   0.569  0.00  0.00    +0.383 N 
ATOM     12  H   UNL     1      -1.188  -4.649   1.056  0.00  0.00    -0.089 HD
ATOM     13  H   UNL     1      -2.828  -4.799   0.994  0.00  0.00    -0.089 HD
ATOM     14  H   UNL     1      -1.962  -4.642  -0.399  0.00  0.00    -0.089 HD
ENDBRANCH  10  11
BRANCH  10  15
ATOM     15  C   UNL     1      -2.127  -2.466   2.115  0.00  0.00    +0.112 C 
BRANCH  15  16
ATOM     16  C   UNL     1      -3.332  -3.019   2.831  0.00  0.00    +0.355 C 
ATOM     17  O   UNL     1      -4.143  -3.699   2.225  0.00  0.00    -0.246 OA
ATOM     18  O   UNL     1      -3.496  -2.787   4.017  0.00  0.00    -0.246 OA
ENDBRANCH  15  16
ENDBRANCH  10  15
ENDBRANCH   1  10
BRANCH   1  19
ATOM     19  C   UNL     1      -1.093  -2.604  -1.591  0.00  0.00    -0.025 C 
BRANCH  19  20
ATOM     20  N   UNL     1      -2.394  -2.179  -2.125  0.00  0.00    +0.383 N 
ATOM     21  H   UNL     1      -2.491  -1.180  -2.018  0.00  0.00    -0.089 HD
ATOM     22  H   UNL     1      -2.450  -2.420  -3.103  0.00  0.00    -0.089 HD
ATOM     23  H   UNL     1      -3.133  -2.645  -1.621  0.00  0.00    -0.089 HD
ENDBRANCH  19  20
BRANCH  19  24
ATOM     24  C   UNL     1       0.028  -1.898  -2.355  0.00  0.00    +0.112 C 
BRANCH  24  25
ATOM     25  C   UNL     1       0.028  -2.362  -3.789  0.00  0.00    +0.355 C 
ATOM     26  O   UNL     1      -0.792  -3.182  -4.164  0.00  0.00    -0.246 OA
ATOM     27  O   UNL     1       0.849  -1.918  -4.574  0.00  0.00    -0.246 OA
ENDBRANCH  24  25
ENDBRANCH  19  24
ENDBRANCH   1  19
TORSDOF 10
