REMARK  Name = ZINC09149613
REMARK  5 active torsions:
REMARK  status: ('A' for Active; 'I' for Inactive)
REMARK    1  A    between atoms: C_1  and  C_2
REMARK    2  A    between atoms: N_9  and  C_10
REMARK    3  A    between atoms: N_17  and  C_31
REMARK    4  A    between atoms: N_20  and  C_23
REMARK    5  A    between atoms: C_23  and  C_24
REMARK                            x       y       z     vdW  Elec       q    Type
REMARK                         _______ _______ _______ _____ _____    ______ ____
ROOT
ATOM      1  C   UNL     1      -5.939   0.080   0.033  0.00  0.00    +0.065 C 
ATOM      2  C   UNL     1      -4.684   0.914   0.031  0.00  0.00    +0.040 A 
ATOM      3  C   UNL     1      -3.438   0.449   0.022  0.00  0.00    +0.116 A 
ATOM      4  N   UNL     1      -2.570   1.526   0.023  0.00  0.00    -0.277 N 
ATOM      5  C   UNL     1      -1.236   1.907   0.018  0.00  0.00    +0.157 A 
ATOM      6  C   UNL     1      -1.227   3.302   0.030  0.00  0.00    +0.170 A 
ATOM      7  N   UNL     1      -2.494   3.709   0.044  0.00  0.00    -0.193 NA
ATOM      8  C   UNL     1      -3.305   2.662   0.033  0.00  0.00    +0.223 A 
ATOM      9  N   UNL     1      -4.628   2.296   0.038  0.00  0.00    -0.283 N 
ATOM     10  N   UNL     1      -0.007   3.961   0.023  0.00  0.00    -0.279 N 
ATOM     11  C   UNL     1       1.139   3.256   0.008  0.00  0.00    +0.334 A 
ATOM     12  O   UNL     1       2.201   3.849   0.001  0.00  0.00    -0.246 OA
ATOM     13  N   UNL     1       1.140   1.912   0.001  0.00  0.00    -0.255 N 
ATOM     14  C   UNL     1      -0.015   1.215   0.009  0.00  0.00    +0.283 A 
ATOM     15  O   UNL     1       0.002  -0.004   0.002  0.00  0.00    -0.265 OA
ATOM     16  C   UNL     1       0.034   5.426   0.030  0.00  0.00    +0.155 C 
ENDROOT
BRANCH   9  17
ATOM     17  C   UNL     1      -5.725   3.167   0.048  0.00  0.00    +0.050 A 
ATOM     18  C   UNL     1      -5.957   4.007  -1.033  0.00  0.00    +0.027 A 
ATOM     19  C   UNL     1      -7.043   4.859  -1.023  0.00  0.00    +0.022 A 
ATOM     20  C   UNL     1      -7.894   4.886   0.068  0.00  0.00    +0.041 A 
ATOM     21  C   UNL     1      -7.662   4.054   1.149  0.00  0.00    +0.022 A 
ATOM     22  C   UNL     1      -6.580   3.195   1.142  0.00  0.00    +0.027 A 
ATOM     23 CL   UNL     1      -9.254   5.965   0.081  0.00  0.00    -0.084 Cl
ENDBRANCH   9  17
BRANCH  13  24
ATOM     24  C   UNL     1       2.416   1.192  -0.014  0.00  0.00    +0.165 C 
BRANCH  24  25
ATOM     25  C   UNL     1       2.841   0.952  -1.440  0.00  0.00    -0.027 A 
ATOM     26  C   UNL     1       2.452  -0.204  -2.091  0.00  0.00    +0.007 A 
ATOM     27  C   UNL     1       2.836  -0.422  -3.401  0.00  0.00    +0.020 A 
ATOM     28  C   UNL     1       3.620   0.511  -4.056  0.00  0.00    +0.041 A 
ATOM     29  C   UNL     1       4.013   1.665  -3.401  0.00  0.00    +0.020 A 
ATOM     30  C   UNL     1       3.624   1.885  -2.094  0.00  0.00    +0.007 A 
ATOM     31 CL   UNL     1       4.108   0.235  -5.699  0.00  0.00    -0.084 Cl
ENDBRANCH  24  25
ENDBRANCH  13  24
TORSDOF 3
