REMARK  Name = ZINC08917919
REMARK  4 active torsions:
REMARK  status: ('A' for Active; 'I' for Inactive)
REMARK    1  A    between atoms: C_1  and  O_2
REMARK    2  A    between atoms: O_2  and  C_3
REMARK    3  A    between atoms: C_6  and  C_9
REMARK    4  A    between atoms: N_10  and  C_11
REMARK                            x       y       z     vdW  Elec       q    Type
REMARK                         _______ _______ _______ _____ _____    ______ ____
ROOT
ATOM      1  C   UNL     1      -1.230   7.600   0.053  0.00  0.00    +0.064 A 
ATOM      2  C   UNL     1      -0.374   8.294   0.907  0.00  0.00    +0.029 A 
ATOM      3  C   UNL     1      -0.340   9.674   0.938  0.00  0.00    +0.026 A 
ATOM      4  C   UNL     1      -1.201  10.367   0.076  0.00  0.00    +0.040 A 
ATOM      5  C   UNL     1      -2.088   9.662  -0.751  0.00  0.00    -0.018 A 
ATOM      6  C   UNL     1      -2.107   8.285  -0.803  0.00  0.00    +0.033 A 
ATOM      7  C   UNL     1      -2.969  10.656  -1.453  0.00  0.00    +0.003 C 
ATOM      8  C   UNL     1      -4.379  10.547  -0.800  0.00  0.00    -0.007 C 
ATOM      9  C   UNL     1      -5.303  10.090  -1.952  0.00  0.00    -0.077 C 
ATOM     10  C   UNL     1      -3.208  10.351  -2.912  0.00  0.00    -0.055 C 
ATOM     11  C   UNL     1      -2.354  11.087  -3.924  0.00  0.00    -0.006 C 
ATOM     12  C   UNL     1      -2.363  12.581  -3.545  0.00  0.00    +0.019 C 
ATOM     13  C   UNL     1      -1.590  12.661  -2.247  0.00  0.00    +0.047 C 
ATOM     14  C   UNL     1      -2.371  12.007  -1.110  0.00  0.00    +0.097 C 
ATOM     15  N   UNL     1      -1.266  11.723  -0.147  0.00  0.00    -0.267 N 
ATOM     16  C   UNL     1      -0.494  12.743   0.274  0.00  0.00    +0.223 C 
ATOM     17  O   UNL     1       0.066  12.653   1.346  0.00  0.00    -0.275 OA
ATOM     18  C   UNL     1      -0.305  13.988  -0.541  0.00  0.00    +0.128 C 
ATOM     19  C   UNL     1      -1.110  14.029  -1.833  0.00  0.00    +0.133 C 
ATOM     20  O   UNL     1      -2.177  14.968  -1.733  0.00  0.00    -0.372 OA
ATOM     21  C   UNL     1      -2.845  15.242  -2.970  0.00  0.00    +0.187 C 
ATOM     22  C   UNL     1      -4.003  14.292  -3.104  0.00  0.00    -0.002 C 
ATOM     23  C   UNL     1      -3.788  13.011  -3.319  0.00  0.00    -0.084 C 
ATOM     24  C   UNL     1      -4.936  12.073  -3.199  0.00  0.00    -0.047 C 
ATOM     25  N   UNL     1      -4.642  10.615  -3.111  0.00  0.00    +0.385 N 
ATOM     26  H   UNL     1      -4.971  10.146  -3.963  0.00  0.00    -0.081 HD
ENDROOT
BRANCH   1  28
ATOM     27  C   UNL     1      -0.074   5.596   0.032  0.00  0.00    +0.119 C 
ATOM     28  N   UNL     1      -1.212   6.232   0.046  0.00  0.00    -0.255 NA
BRANCH  27  32
ATOM     29  C   UNL     1      -0.016   1.353   0.009  0.00  0.00    +0.120 A 
ATOM     30  C   UNL     1      -1.231   2.030   0.019  0.00  0.00    +0.046 A 
ATOM     31  C   UNL     1      -1.254   3.406   0.031  0.00  0.00    +0.013 A 
ATOM     32  C   UNL     1      -0.054   4.125   0.024  0.00  0.00    -0.007 A 
ATOM     33  C   UNL     1       1.166   3.439   0.009  0.00  0.00    +0.013 A 
ATOM     34  C   UNL     1       1.179   2.062   0.002  0.00  0.00    +0.046 A 
BRANCH  29  36
ATOM     35  C   UNL     1      -1.262  -0.670   0.011  0.00  0.00    +0.277 C 
ATOM     36  O   UNL     1       0.002  -0.004   0.002  0.00  0.00    -0.495 OA
ENDBRANCH  29  36
ENDBRANCH  27  32
ENDBRANCH   1  28
TORSDOF 3
