REMARK  Name = ZINC08969088
REMARK  10 active torsions:
REMARK  status: ('A' for Active; 'I' for Inactive)
REMARK    1  A    between atoms: C_1  and  O_2
REMARK    2  A    between atoms: O_2  and  C_3
REMARK    3  A    between atoms: C_6  and  C_11
REMARK    4  A    between atoms: C_8  and  O_9
REMARK    5  A    between atoms: O_9  and  C_10
REMARK    6  A    between atoms: C_11  and  C_13
REMARK    7  A    between atoms: C_11  and  S_24
REMARK    8  A    between atoms: C_13  and  N_14
REMARK    9  A    between atoms: C_15  and  C_17
REMARK   10  A    between atoms: S_24  and  C_27
REMARK                            x       y       z     vdW  Elec       q    Type
REMARK                         _______ _______ _______ _____ _____    ______ ____
ROOT
ATOM      1  C   UNL     1       2.489   1.043  -0.016  0.00  0.00    +0.183 C 
ENDROOT
BRANCH   1   5
ATOM      2  C   UNL     1      -1.240   3.135   0.030  0.00  0.00    +0.162 A 
ATOM      3  C   UNL     1      -1.220   1.749   0.017  0.00  0.00    +0.050 A 
ATOM      4  C   UNL     1      -0.013   1.076   0.008  0.00  0.00    +0.009 A 
ATOM      5  C   UNL     1       1.176   1.782   0.000  0.00  0.00    -0.018 A 
ATOM      6  C   UNL     1       1.163   3.164   0.008  0.00  0.00    +0.055 A 
ATOM      7  C   UNL     1      -0.044   3.845   0.023  0.00  0.00    +0.162 A 
BRANCH   2   9
ATOM      8  C   UNL     1      -3.615   3.004   0.051  0.00  0.00    +0.277 C 
ATOM      9  O   UNL     1      -2.427   3.799   0.044  0.00  0.00    -0.491 OA
ENDBRANCH   2   9
BRANCH   7  10
ATOM     10  O   UNL     1      -0.059   5.205   0.031  0.00  0.00    -0.491 OA
ATOM     11  C   UNL     1       1.207   5.868   0.023  0.00  0.00    +0.277 C 
ENDBRANCH   7  10
ENDBRANCH   1   5
BRANCH   1  12
ATOM     12  S   UNL     1       2.583   0.009  -1.503  0.00  0.00    +0.011 S 
ATOM     13  O   UNL     1       2.312   0.788  -2.659  0.00  0.00    -0.168 OA
ATOM     14  O   UNL     1       3.731  -0.828  -1.446  0.00  0.00    -0.168 OA
BRANCH  12  15
ATOM     15  C   UNL     1       1.216  -1.095  -1.374  0.00  0.00    +0.126 A 
ATOM     16  C   UNL     1      -0.052  -0.941  -1.829  0.00  0.00    +0.035 A 
ATOM     17  C   UNL     1      -0.970  -1.951  -1.611  0.00  0.00    +0.009 A 
ATOM     18  C   UNL     1      -0.575  -3.067  -0.950  0.00  0.00    +0.047 A 
ATOM     19  S   UNL     1       1.142  -2.710  -0.617  0.00  0.00    -0.078 S 
ENDBRANCH  12  15
ENDBRANCH   1  12
BRANCH   1  20
ATOM     20  C   UNL     1       2.592   0.158   1.228  0.00  0.00    +0.136 C 
BRANCH  20  21
ATOM     21  N   UNL     1       3.868  -0.561   1.213  0.00  0.00    -0.309 N 
ATOM     22  C   UNL     1       4.179  -1.405   2.216  0.00  0.00    +0.244 C 
ATOM     23  O   UNL     1       3.400  -1.570   3.135  0.00  0.00    -0.270 OA
ATOM     24  H   UNL     1       4.490  -0.429   0.480  0.00  0.00    +0.149 HD
BRANCH  22  25
ATOM     25  C   UNL     1       5.466  -2.129   2.201  0.00  0.00    +0.037 A 
ATOM     26  C   UNL     1       6.361  -1.946   1.144  0.00  0.00    +0.016 A 
ATOM     27  C   UNL     1       7.563  -2.619   1.138  0.00  0.00    +0.039 A 
ATOM     28  C   UNL     1       7.880  -3.487   2.171  0.00  0.00    +0.123 A 
ATOM     29  C   UNL     1       6.993  -3.678   3.220  0.00  0.00    +0.039 A 
ATOM     30  C   UNL     1       5.790  -3.005   3.240  0.00  0.00    +0.016 A 
ATOM     31  F   UNL     1       9.057  -4.150   2.157  0.00  0.00    -0.205 F 
ENDBRANCH  22  25
ENDBRANCH  20  21
ENDBRANCH   1  20
TORSDOF 8
