REMARK  Name = ZINC19593802
REMARK  5 active torsions:
REMARK  status: ('A' for Active; 'I' for Inactive)
REMARK    1  A    between atoms: C_3  and  C_26
REMARK    2  A    between atoms: C_6  and  C_7
REMARK    3  A    between atoms: C_7  and  O_8
REMARK    4  A    between atoms: O_8  and  C_9
REMARK    5  A    between atoms: C_12  and  C_16
REMARK                            x       y       z     vdW  Elec       q    Type
REMARK                         _______ _______ _______ _____ _____    ______ ____
ROOT
ATOM      1  C   UNL     1      -3.475   2.353   1.075  0.00  0.00    +0.135 A 
ATOM      2  C   UNL     1      -4.473   2.657   0.155  0.00  0.00    +0.047 A 
ATOM      3  C   UNL     1      -5.478   3.518   0.489  0.00  0.00    +0.011 A 
ATOM      4  C   UNL     1      -5.508   4.100   1.765  0.00  0.00    -0.023 A 
ATOM      5  C   UNL     1      -4.501   3.794   2.694  0.00  0.00    +0.027 A 
ATOM      6  C   UNL     1      -3.496   2.921   2.347  0.00  0.00    +0.060 A 
ATOM      7 BR   UNL     1      -2.139   2.497   3.594  0.00  0.00    -0.046 Br
ENDROOT
BRANCH   4   8
ATOM      8  C   UNL     1      -6.584   5.023   2.127  0.00  0.00    +0.026 C 
ATOM      9  C   UNL     1      -6.961   6.021   1.249  0.00  0.00    +0.101 C 
ATOM     10  C   UNL     1      -6.163   6.334   0.047  0.00  0.00    +0.276 C 
ATOM     11  O   UNL     1      -5.144   5.718  -0.204  0.00  0.00    -0.268 OA
ATOM     12  N   UNL     1      -6.597   7.318  -0.768  0.00  0.00    -0.123 NA
ATOM     13  C   UNL     1      -7.714   8.009  -0.499  0.00  0.00    +0.333 C 
ATOM     14  O   UNL     1      -8.046   8.886  -1.271  0.00  0.00    -0.250 OA
ATOM     15  N   UNL     1      -8.484   7.784   0.574  0.00  0.00    -0.234 N 
ATOM     16  C   UNL     1      -8.178   6.827   1.474  0.00  0.00    +0.257 C 
ATOM     17  O   UNL     1      -8.886   6.632   2.444  0.00  0.00    -0.270 OA
ATOM     18  H   UNL     1      -9.389   8.387   0.738  0.00  0.00    +0.159 HD
ENDBRANCH   4   8
BRANCH   1  19
ATOM     19  O   UNL     1      -2.480   1.496   0.734  0.00  0.00    -0.486 OA
BRANCH  19  20
ATOM     20  C   UNL     1      -2.521   0.945  -0.584  0.00  0.00    +0.264 C 
BRANCH  20  26
ATOM     21  C   UNL     1      -0.156   0.522  -1.280  0.00  0.00    +0.008 A 
ATOM     22  C   UNL     1       0.923  -0.317  -1.468  0.00  0.00    +0.015 A 
ATOM     23  C   UNL     1       0.812  -1.673  -1.151  0.00  0.00    +0.063 A 
ATOM     24  C   UNL     1      -0.391  -2.169  -0.646  0.00  0.00    +0.015 A 
ATOM     25  C   UNL     1      -1.462  -1.319  -0.464  0.00  0.00    +0.008 A 
ATOM     26  C   UNL     1      -1.345   0.024  -0.780  0.00  0.00    -0.010 A 
BRANCH  23  27
ATOM     27  C   UNL     1       1.963  -2.577  -1.349  0.00  0.00    +0.387 C 
ATOM     28  O   UNL     1       1.864  -3.756  -1.072  0.00  0.00    -0.241 OA
ATOM     29  O   UNL     1       3.123  -2.095  -1.836  0.00  0.00    -0.241 OA
ENDBRANCH  23  27
ENDBRANCH  20  26
ENDBRANCH  19  20
ENDBRANCH   1  19
TORSDOF 5
