REMARK  Name = ZINC17126914
REMARK  8 active torsions:
REMARK  status: ('A' for Active; 'I' for Inactive)
REMARK    1  A    between atoms: C_1  and  C_2
REMARK    2  A    between atoms: C_3  and  C_14
REMARK    3  A    between atoms: C_5  and  C_7
REMARK    4  A    between atoms: N_16  and  C_17
REMARK    5  A    between atoms: C_17  and  C_18
REMARK    6  A    between atoms: C_18  and  C_19
REMARK    7  A    between atoms: C_22  and  S_25
REMARK    8  A    between atoms: S_25  and  N_28
REMARK                            x       y       z     vdW  Elec       q    Type
REMARK                         _______ _______ _______ _____ _____    ______ ____
ROOT
ATOM      1  C   UNL     1      -0.268   1.258  -2.409  0.00  0.00    +0.253 C 
ATOM      2  O   UNL     1       0.730   0.573  -2.534  0.00  0.00    -0.270 OA
ATOM      3  N   UNL     1      -0.721   1.571  -1.179  0.00  0.00    -0.311 N 
ATOM      4  H   UNL     1      -1.516   2.118  -1.079  0.00  0.00    +0.149 HD
ENDROOT
BRANCH   1   7
ATOM      5  C   UNL     1       0.497   0.730  -5.375  0.00  0.00    +0.067 C 
ATOM      6  C   UNL     1      -0.693   1.547  -4.942  0.00  0.00    +0.058 A 
ATOM      7  C   UNL     1      -0.977   1.744  -3.596  0.00  0.00    +0.097 A 
ATOM      8  S   UNL     1      -2.451   2.747  -3.716  0.00  0.00    -0.062 S 
ATOM      9  C   UNL     1      -2.540   2.815  -5.448  0.00  0.00    +0.109 A 
ATOM     10  N   UNL     1      -1.491   2.094  -5.819  0.00  0.00    -0.243 NA
BRANCH   9  11
ATOM     11  C   UNL     1      -3.538   3.499  -6.297  0.00  0.00    +0.007 A 
ATOM     12  C   UNL     1      -4.585   4.212  -5.711  0.00  0.00    +0.012 A 
ATOM     13  C   UNL     1      -5.510   4.853  -6.508  0.00  0.00    +0.020 A 
ATOM     14  C   UNL     1      -5.408   4.781  -7.888  0.00  0.00    +0.041 A 
ATOM     15  C   UNL     1      -4.374   4.071  -8.475  0.00  0.00    +0.020 A 
ATOM     16  C   UNL     1      -3.440   3.430  -7.688  0.00  0.00    +0.012 A 
ATOM     17 CL   UNL     1      -6.580   5.584  -8.885  0.00  0.00    -0.084 Cl
ENDBRANCH   9  11
ENDBRANCH   1   7
BRANCH   3  18
ATOM     18  C   UNL     1      -0.013   1.086   0.008  0.00  0.00    +0.109 C 
BRANCH  18  19
ATOM     19  C   UNL     1      -0.729   1.579   1.267  0.00  0.00    +0.054 C 
BRANCH  19  20
ATOM     20  C   UNL     1       0.000   1.080   2.488  0.00  0.00    -0.046 A 
ATOM     21  C   UNL     1      -0.347  -0.133   3.052  0.00  0.00    +0.005 A 
ATOM     22  C   UNL     1       0.324  -0.593   4.170  0.00  0.00    +0.029 A 
ATOM     23  C   UNL     1       1.337   0.164   4.728  0.00  0.00    +0.105 A 
ATOM     24  C   UNL     1       1.681   1.380   4.166  0.00  0.00    +0.029 A 
ATOM     25  C   UNL     1       1.012   1.838   3.046  0.00  0.00    +0.005 A 
BRANCH  23  26
ATOM     26  S   UNL     1       2.190  -0.420   6.154  0.00  0.00    +0.056 S 
ATOM     27  O   UNL     1       2.048  -1.834   6.162  0.00  0.00    -0.153 OA
ATOM     28  O   UNL     1       3.459   0.218   6.158  0.00  0.00    -0.153 OA
BRANCH  26  29
ATOM     29  N   UNL     1       1.372   0.145   7.479  0.00  0.00    -0.204 NA
ATOM     30  H   UNL     1       1.375  -0.365   8.304  0.00  0.00    +0.144 HD
ATOM     31  H   UNL     1       0.891   0.986   7.430  0.00  0.00    +0.144 HD
ENDBRANCH  26  29
ENDBRANCH  23  26
ENDBRANCH  19  20
ENDBRANCH  18  19
ENDBRANCH   3  18
TORSDOF 7
