REMARK  Name = ZINC03172883
REMARK  4 active torsions:
REMARK  status: ('A' for Active; 'I' for Inactive)
REMARK    1  A    between atoms: C_1  and  C_2
REMARK    2  A    between atoms: C_5  and  N_8
REMARK    3  A    between atoms: N_8  and  S_28
REMARK    4  A    between atoms: S_28  and  C_31
REMARK                            x       y       z     vdW  Elec       q    Type
REMARK                         _______ _______ _______ _____ _____    ______ ____
ROOT
ATOM      1  N   UNL     1       5.983   7.485  -0.323  0.00  0.00    -0.128 N 
ATOM      2  C   UNL     1       4.693   7.095  -0.338  0.00  0.00    +0.333 C 
ATOM      3  O   UNL     1       3.806   7.924  -0.288  0.00  0.00    -0.250 OA
ATOM      4  N   UNL     1       4.386   5.784  -0.410  0.00  0.00    -0.222 N 
ATOM      5  C   UNL     1       3.100   5.398  -0.519  0.00  0.00    +0.312 C 
ATOM      6  O   UNL     1       2.216   6.231  -0.552  0.00  0.00    -0.252 OA
ATOM      7  N   UNL     1       2.793   4.088  -0.590  0.00  0.00    -0.253 N 
ATOM      8  C   UNL     1       1.468   3.690  -0.702  0.00  0.00    +0.138 A 
ATOM      9  C   UNL     1       1.139   2.315  -0.853  0.00  0.00    +0.051 A 
ATOM     10  C   UNL     1       2.036   1.159  -0.913  0.00  0.00    -0.025 A 
ATOM     11  C   UNL     1       1.463  -0.052  -1.061  0.00  0.00    -0.004 A 
ATOM     12  S   UNL     1      -0.280   0.265  -1.129  0.00  0.00    -0.073 S 
ATOM     13  C   UNL     1      -0.238   2.030  -0.957  0.00  0.00    +0.114 A 
ATOM     14  N   UNL     1      -1.145   2.985  -0.912  0.00  0.00    -0.228 NA
ATOM     15  C   UNL     1      -0.777   4.245  -0.775  0.00  0.00    +0.224 A 
ATOM     16  N   UNL     1       0.495   4.585  -0.671  0.00  0.00    -0.220 NA
ATOM     17  C   UNL     1       2.155  -1.379  -1.149  0.00  0.00    +0.043 C 
ATOM     18  C   UNL     1       3.646  -1.131  -1.417  0.00  0.00    +0.005 C 
ATOM     19  C   UNL     1       4.149  -0.061  -0.444  0.00  0.00    +0.005 C 
ATOM     20  C   UNL     1       3.552   1.298  -0.813  0.00  0.00    +0.037 C 
ATOM     21  H   UNL     1       5.092   5.119  -0.383  0.00  0.00    +0.161 HD
ATOM     22  H   UNL     1       3.499   3.422  -0.564  0.00  0.00    +0.158 HD
ENDROOT
BRANCH   1  27
ATOM     23  C   UNL     1       7.277  12.971   0.322  0.00  0.00    +0.044 C 
ATOM     24  C   UNL     1       6.934  11.514   0.151  0.00  0.00    -0.050 A 
ATOM     25  C   UNL     1       5.767  11.011   0.698  0.00  0.00    +0.005 A 
ATOM     26  C   UNL     1       5.449   9.676   0.543  0.00  0.00    +0.025 A 
ATOM     27  C   UNL     1       6.302   8.838  -0.164  0.00  0.00    +0.061 A 
ATOM     28  C   UNL     1       7.475   9.345  -0.708  0.00  0.00    +0.025 A 
ATOM     29  C   UNL     1       7.785  10.682  -0.554  0.00  0.00    +0.005 A 
ENDBRANCH   1  27
BRANCH   1  30
ATOM     30  S   UNL     1       7.189   6.364  -0.491  0.00  0.00    +0.050 S 
ATOM     31  O   UNL     1       8.377   7.050  -0.119  0.00  0.00    -0.155 OA
ATOM     32  O   UNL     1       6.742   5.236   0.249  0.00  0.00    -0.155 OA
ATOM     33  C   UNL     1       7.221   5.976  -2.263  0.00  0.00    +0.219 C 
ENDBRANCH   1  30
TORSDOF 2
