REMARK  Name = ZINC50042649
REMARK  6 active torsions:
REMARK  status: ('A' for Active; 'I' for Inactive)
REMARK    1  A    between atoms: C_1  and  C_2
REMARK    2  A    between atoms: C_4  and  C_20
REMARK    3  A    between atoms: C_5  and  C_19
REMARK    4  A    between atoms: C_6  and  O_8
REMARK    5  A    between atoms: O_8  and  C_9
REMARK    6  A    between atoms: C_10  and  C_16
REMARK                            x       y       z     vdW  Elec       q    Type
REMARK                         _______ _______ _______ _____ _____    ______ ____
ROOT
ATOM      1  O   UNL     1       0.051  -2.776   2.358  0.00  0.00    -0.437 OA
ENDROOT
BRANCH   1   7
ATOM      2  C   UNL     1       0.225   1.535   0.076  0.00  0.00    +0.044 C 
ATOM      3  C   UNL     1       0.123   0.032   0.046  0.00  0.00    -0.047 A 
ATOM      4  C   UNL     1       0.017  -0.629  -1.164  0.00  0.00    +0.007 A 
ATOM      5  C   UNL     1      -0.077  -2.008  -1.196  0.00  0.00    -0.044 A 
ATOM      6  C   UNL     1      -0.066  -2.729  -0.017  0.00  0.00    -0.005 A 
ATOM      7  C   UNL     1       0.040  -2.068   1.198  0.00  0.00    +0.134 A 
ATOM      8  C   UNL     1       0.140  -0.685   1.226  0.00  0.00    +0.050 A 
ATOM      9  C   UNL     1      -0.170  -4.232  -0.052  0.00  0.00    +0.048 C 
ATOM     10  C   UNL     1      -0.192  -2.725  -2.516  0.00  0.00    +0.044 C 
ENDBRANCH   1   7
BRANCH   1  11
ATOM     11  C   UNL     1       1.236  -3.265   2.793  0.00  0.00    +0.235 A 
ATOM     12  C   UNL     1       1.279  -4.075   3.941  0.00  0.00    +0.126 A 
ATOM     13  C   UNL     1       2.517  -4.569   4.372  0.00  0.00    +0.037 A 
ATOM     14  C   UNL     1       3.646  -4.236   3.645  0.00  0.00    +0.037 A 
ATOM     15  C   UNL     1       3.522  -3.432   2.525  0.00  0.00    +0.130 A 
ATOM     16  N   UNL     1       2.346  -2.982   2.133  0.00  0.00    -0.219 NA
ATOM     17 BR   UNL     1       5.345  -4.873   4.178  0.00  0.00    -0.049 Br
BRANCH  12  18
ATOM     18  C   UNL     1       0.046  -4.397   4.676  0.00  0.00    +0.392 C 
ATOM     19  O   UNL     1       0.095  -5.104   5.673  0.00  0.00    -0.240 OA
ATOM     20  O   UNL     1      -1.029  -3.959   4.290  0.00  0.00    -0.240 OA
ENDBRANCH  12  18
ENDBRANCH   1  11
TORSDOF 3
