REMARK  Name = ZINC39898369
REMARK  9 active torsions:
REMARK  status: ('A' for Active; 'I' for Inactive)
REMARK    1  A    between atoms: C_1  and  C_2
REMARK    2  A    between atoms: C_2  and  C_3
REMARK    3  A    between atoms: C_3  and  N_4
REMARK    4  A    between atoms: C_5  and  C_23
REMARK    5  A    between atoms: C_8  and  C_15
REMARK    6  A    between atoms: C_20  and  O_21
REMARK    7  A    between atoms: C_25  and  O_31
REMARK    8  A    between atoms: C_26  and  O_30
REMARK    9  A    between atoms: O_31  and  C_32
REMARK                            x       y       z     vdW  Elec       q    Type
REMARK                         _______ _______ _______ _____ _____    ______ ____
ROOT
ATOM      1  N   UNL     1       0.624  -2.286  -1.507  0.00  0.00    -0.285 N 
ATOM      2  C   UNL     1       1.802  -2.752  -0.764  0.00  0.00    +0.141 C 
ATOM      3  C   UNL     1       1.632  -4.237  -0.602  0.00  0.00    +0.035 A 
ATOM      4  C   UNL     1       2.152  -5.436  -0.102  0.00  0.00    +0.102 A 
ATOM      5  N   UNL     1       1.302  -6.395  -0.414  0.00  0.00    -0.173 NA
ATOM      6  N   UNL     1       0.298  -5.920  -1.061  0.00  0.00    -0.272 N 
ATOM      7  H   UNL     1      -0.450  -6.443  -1.391  0.00  0.00    +0.189 HD
ATOM      8  C   UNL     1       0.440  -4.570  -1.215  0.00  0.00    +0.126 A 
ATOM      9  C   UNL     1      -0.162  -3.348  -1.759  0.00  0.00    +0.265 C 
ATOM     10  O   UNL     1      -1.221  -3.302  -2.356  0.00  0.00    -0.268 OA
ENDROOT
BRANCH   4  11
ATOM     11  C   UNL     1       3.425  -5.599   0.643  0.00  0.00    +0.045 A 
ATOM     12  C   UNL     1       4.158  -4.479   1.028  0.00  0.00    +0.033 A 
ATOM     13  C   UNL     1       5.343  -4.636   1.721  0.00  0.00    +0.042 A 
ATOM     14  C   UNL     1       5.804  -5.904   2.034  0.00  0.00    +0.023 A 
ATOM     15  C   UNL     1       5.083  -7.021   1.657  0.00  0.00    +0.047 A 
ATOM     16  C   UNL     1       3.890  -6.877   0.966  0.00  0.00    +0.126 A 
ATOM     17 CL   UNL     1       6.256  -3.240   2.200  0.00  0.00    -0.084 Cl
BRANCH  16  18
ATOM     18  O   UNL     1       3.178  -7.974   0.599  0.00  0.00    -0.506 OA
ATOM     19  H   UNL     1       3.415  -8.324  -0.271  0.00  0.00    +0.292 HD
ENDBRANCH  16  18
ENDBRANCH   4  11
BRANCH   2  20
ATOM     20  C   UNL     1       3.058  -2.453  -1.542  0.00  0.00    -0.018 A 
ATOM     21  C   UNL     1       3.123  -2.757  -2.889  0.00  0.00    +0.055 A 
ATOM     22  C   UNL     1       4.276  -2.484  -3.606  0.00  0.00    +0.163 A 
ATOM     23  C   UNL     1       5.368  -1.903  -2.968  0.00  0.00    +0.173 A 
ATOM     24  C   UNL     1       5.296  -1.601  -1.617  0.00  0.00    +0.063 A 
ATOM     25  C   UNL     1       4.140  -1.872  -0.908  0.00  0.00    +0.025 A 
ATOM     26 BR   UNL     1       6.777  -0.811  -0.745  0.00  0.00    -0.046 Br
BRANCH  23  27
ATOM     27  O   UNL     1       6.503  -1.633  -3.668  0.00  0.00    -0.503 OA
ATOM     28  H   UNL     1       6.519  -0.753  -4.067  0.00  0.00    +0.292 HD
ENDBRANCH  23  27
BRANCH  22  29
ATOM     29  O   UNL     1       4.342  -2.783  -4.931  0.00  0.00    -0.491 OA
ATOM     30  C   UNL     1       3.146  -3.264  -5.548  0.00  0.00    +0.277 C 
ENDBRANCH  22  29
ENDBRANCH   2  20
BRANCH   1  31
ATOM     31  C   UNL     1       0.350  -0.902  -1.902  0.00  0.00    +0.109 C 
BRANCH  31  33
ATOM     32  C   UNL     1      -0.726   1.243  -1.205  0.00  0.00    +0.005 C 
ATOM     33  C   UNL     1      -0.439  -0.203  -0.793  0.00  0.00    +0.016 C 
ENDBRANCH  31  33
ENDBRANCH   1  31
TORSDOF 7
