REMARK  Name = ZINC62467410
REMARK  3 active torsions:
REMARK  status: ('A' for Active; 'I' for Inactive)
REMARK    1  A    between atoms: C_1  and  C_2
REMARK    2  A    between atoms: C_9  and  C_14
REMARK    3  A    between atoms: C_10  and  C_11
REMARK                            x       y       z     vdW  Elec       q    Type
REMARK                         _______ _______ _______ _____ _____    ______ ____
ROOT
ATOM      1  C   UNL     1      -0.018   1.503   0.010  0.00  0.00    +0.047 C 
ATOM      2  C   UNL     1       0.002  -0.004   0.002  0.00  0.00    -0.008 A 
ATOM      3  C   UNL     1       0.006  -0.686  -1.179  0.00  0.00    +0.008 A 
ATOM      4  C   UNL     1       0.025  -2.087  -1.169  0.00  0.00    +0.018 A 
ATOM      5  C   UNL     1       0.039  -2.757   0.006  0.00  0.00    +0.093 A 
ATOM      6  N   UNL     1       0.035  -2.085   1.187  0.00  0.00    -0.293 N 
ATOM      7  C   UNL     1       0.023  -0.720   1.212  0.00  0.00    +0.142 A 
ATOM      8  N   UNL     1       0.030  -0.316   2.482  0.00  0.00    -0.227 NA
ATOM      9  C   UNL     1       0.052  -1.364   3.287  0.00  0.00    +0.125 A 
ATOM     10  C   UNL     1       0.045  -2.512   2.504  0.00  0.00    +0.162 A 
ENDROOT
BRANCH   9  11
ATOM     11  C   UNL     1       0.065  -1.322   4.793  0.00  0.00    +0.235 C 
ATOM     12 CL   UNL     1      -0.101   0.386   5.348  0.00  0.00    -0.077 Cl
ATOM     13 CL   UNL     1      -1.308  -2.299   5.434  0.00  0.00    -0.077 Cl
ATOM     14 CL   UNL     1       1.621  -2.001   5.399  0.00  0.00    -0.077 Cl
ENDBRANCH   9  11
BRANCH  10  15
ATOM     15  C   UNL     1       0.065  -3.846   2.960  0.00  0.00    +0.405 C 
ATOM     16  O   UNL     1       0.074  -4.770   2.154  0.00  0.00    -0.239 OA
ATOM     17  O   UNL     1       0.072  -4.083   4.163  0.00  0.00    -0.239 OA
ENDBRANCH  10  15
TORSDOF 2
