REMARK  Name = ZINC12434323
REMARK  4 active torsions:
REMARK  status: ('A' for Active; 'I' for Inactive)
REMARK    1  A    between atoms: C_3  and  C_8
REMARK    2  A    between atoms: C_8  and  N_9
REMARK    3  A    between atoms: C_14  and  C_22
REMARK    4  A    between atoms: C_27  and  C_28
REMARK                            x       y       z     vdW  Elec       q    Type
REMARK                         _______ _______ _______ _____ _____    ______ ____
ROOT
ATOM      1  N   UNL     1      -2.522  -0.873  -0.889  0.00  0.00    -0.298 N 
ATOM      2  C   UNL     1      -1.127  -0.890  -1.344  0.00  0.00    +0.110 C 
ATOM      3  C   UNL     1      -0.508   0.444  -0.894  0.00  0.00    +0.003 C 
ATOM      4  C   UNL     1       0.203   0.287   0.457  0.00  0.00    -0.007 C 
ATOM      5  C   UNL     1      -0.637   1.087   1.469  0.00  0.00    -0.032 C 
ATOM      6  C   UNL     1      -1.749   1.313  -0.609  0.00  0.00    +0.018 C 
ATOM      7  C   UNL     1      -2.905   0.364  -0.524  0.00  0.00    +0.206 C 
ATOM      8  O   UNL     1      -4.026   0.668  -0.176  0.00  0.00    -0.277 OA
ATOM      9  C   UNL     1      -1.926   2.417  -1.647  0.00  0.00    -0.004 C 
ATOM     10  C   UNL     1      -1.069   3.583  -1.106  0.00  0.00    -0.019 C 
ATOM     11  C   UNL     1      -0.804   3.251   0.373  0.00  0.00    -0.077 C 
ATOM     12  N   UNL     1      -1.490   1.975   0.656  0.00  0.00    +0.394 N 
ATOM     13  H   UNL     1      -2.371   2.157   1.150  0.00  0.00    -0.079 HD
ENDROOT
BRANCH   5  14
ATOM     14  C   UNL     1       0.267   1.891   2.368  0.00  0.00    -0.016 A 
ATOM     15  C   UNL     1       1.568   2.173   2.141  0.00  0.00    +0.107 A 
ATOM     16  N   UNL     1       2.020   2.915   3.175  0.00  0.00    -0.284 N 
ATOM     17  H   UNL     1       2.947   3.276   3.277  0.00  0.00    +0.188 HD
ATOM     18  N   UNL     1       0.965   3.091   4.080  0.00  0.00    -0.174 NA
ATOM     19  C   UNL     1      -0.094   2.475   3.598  0.00  0.00    +0.094 A 
BRANCH  19  20
ATOM     20  C   UNL     1      -1.431   2.409   4.237  0.00  0.00    +0.005 A 
ATOM     21  C   UNL     1      -1.541   2.175   5.607  0.00  0.00    +0.010 A 
ATOM     22  C   UNL     1      -2.787   2.114   6.198  0.00  0.00    +0.003 A 
ATOM     23  C   UNL     1      -3.927   2.285   5.434  0.00  0.00    +0.038 A 
ATOM     24  C   UNL     1      -3.825   2.519   4.072  0.00  0.00    +0.124 A 
ATOM     25  C   UNL     1      -2.581   2.587   3.472  0.00  0.00    +0.048 A 
ATOM     26  F   UNL     1      -4.942   2.687   3.331  0.00  0.00    -0.205 F 
ENDBRANCH  19  20
ENDBRANCH   5  14
BRANCH   1  27
ATOM     27  C   UNL     1      -3.387  -2.054  -0.836  0.00  0.00    +0.142 C 
BRANCH  27  30
ATOM     28  C   UNL     1      -6.014  -1.730  -3.529  0.00  0.00    +0.002 A 
ATOM     29  C   UNL     1      -5.347  -1.599  -2.325  0.00  0.00    +0.005 A 
ATOM     30  C   UNL     1      -4.116  -2.201  -2.147  0.00  0.00    -0.029 A 
ATOM     31  C   UNL     1      -3.555  -2.943  -3.170  0.00  0.00    +0.025 A 
ATOM     32  C   UNL     1      -4.224  -3.079  -4.373  0.00  0.00    +0.041 A 
ATOM     33  C   UNL     1      -5.454  -2.471  -4.552  0.00  0.00    +0.020 A 
ATOM     34 CL   UNL     1      -3.521  -4.011  -5.657  0.00  0.00    -0.084 Cl
ENDBRANCH  27  30
ENDBRANCH   1  27
TORSDOF 4
