REMARK  Name = ZINC37604434
REMARK  10 active torsions:
REMARK  status: ('A' for Active; 'I' for Inactive)
REMARK    1  A    between atoms: C_1  and  C_2
REMARK    2  A    between atoms: C_2  and  C_3
REMARK    3  A    between atoms: C_2  and  C_4
REMARK    4  A    between atoms: C_2  and  C_5
REMARK    5  A    between atoms: C_13  and  O_25
REMARK    6  A    between atoms: C_16  and  C_18
REMARK    7  A    between atoms: O_25  and  C_26
REMARK    8  A    between atoms: C_26  and  C_27
REMARK    9  A    between atoms: C_29  and  C_32
REMARK   10  A    between atoms: N_34  and  C_35
REMARK                            x       y       z     vdW  Elec       q    Type
REMARK                         _______ _______ _______ _____ _____    ______ ____
ROOT
ATOM      1  C   UNL     1       0.857  -0.340  -0.802  0.00  0.00    +0.222 C 
ATOM      2  O   UNL     1       1.685   0.095  -1.575  0.00  0.00    -0.275 OA
ATOM      3  N   UNL     1       0.343  -1.571  -0.987  0.00  0.00    -0.290 N 
ATOM      4  C   UNL     1      -0.597  -2.162  -0.021  0.00  0.00    +0.113 C 
ATOM      5  C   UNL     1      -1.939  -2.353  -0.726  0.00  0.00    +0.054 C 
ATOM      6  C   UNL     1      -1.750  -3.008  -2.069  0.00  0.00    -0.040 A 
ATOM      7  C   UNL     1      -2.853  -3.632  -2.641  0.00  0.00    +0.007 A 
ATOM      8  C   UNL     1      -2.754  -4.244  -3.873  0.00  0.00    +0.046 A 
ATOM      9  C   UNL     1      -1.543  -4.236  -4.550  0.00  0.00    +0.122 A 
ATOM     10  C   UNL     1      -0.444  -3.619  -3.979  0.00  0.00    +0.051 A 
ATOM     11  C   UNL     1      -0.545  -3.009  -2.737  0.00  0.00    -0.016 A 
ATOM     12  C   UNL     1       0.692  -2.375  -2.164  0.00  0.00    +0.137 C 
ENDROOT
BRANCH  12  13
ATOM     13  C   UNL     1       1.329  -1.490  -3.204  0.00  0.00    -0.020 A 
ATOM     14  C   UNL     1       0.713  -0.309  -3.578  0.00  0.00    +0.006 A 
ATOM     15  C   UNL     1       1.296   0.504  -4.532  0.00  0.00    +0.003 A 
ATOM     16  C   UNL     1       2.495   0.137  -5.114  0.00  0.00    +0.038 A 
ATOM     17  C   UNL     1       3.112  -1.045  -4.741  0.00  0.00    +0.124 A 
ATOM     18  C   UNL     1       2.530  -1.855  -3.780  0.00  0.00    +0.044 A 
ATOM     19  F   UNL     1       4.283  -1.404  -5.310  0.00  0.00    -0.205 F 
ENDBRANCH  12  13
BRANCH   1  21
ATOM     20  C   UNL     1       1.027   1.892   0.266  0.00  0.00    +0.020 C 
ATOM     21  C   UNL     1       0.405   0.498   0.367  0.00  0.00    +0.039 C 
ATOM     22  C   UNL     1       0.849  -0.166   1.672  0.00  0.00    +0.020 C 
ATOM     23  C   UNL     1      -1.120   0.617   0.348  0.00  0.00    +0.020 C 
ENDBRANCH   1  21
BRANCH   9  24
ATOM     24  O   UNL     1      -1.437  -4.833  -5.767  0.00  0.00    -0.483 OA
BRANCH  24  25
ATOM     25  C   UNL     1      -2.614  -5.450  -6.292  0.00  0.00    +0.324 C 
BRANCH  25  26
ATOM     26  C   UNL     1      -2.307  -6.054  -7.638  0.00  0.00    +0.234 A 
ATOM     27  N   UNL     1      -1.891  -7.268  -7.840  0.00  0.00    -0.206 NA
ATOM     28  C   UNL     1      -1.724  -7.449  -9.178  0.00  0.00    +0.164 A 
ATOM     29  C   UNL     1      -2.061  -6.279  -9.786  0.00  0.00    +0.230 A 
ATOM     30  O   UNL     1      -2.426  -5.425  -8.816  0.00  0.00    -0.444 OA
BRANCH  28  31
ATOM     31  C   UNL     1      -1.263  -8.680  -9.845  0.00  0.00    +0.270 C 
ATOM     32  O   UNL     1      -1.155  -8.713 -11.056  0.00  0.00    -0.268 OA
ATOM     33  N   UNL     1      -0.962  -9.771  -9.112  0.00  0.00    -0.280 N 
ATOM     34  H   UNL     1      -1.111  -9.767  -8.154  0.00  0.00    +0.155 HD
BRANCH  33  35
ATOM     35  C   UNL     1      -0.435 -10.907  -9.734  0.00  0.00    +0.034 A 
ATOM     36  C   UNL     1      -0.747 -12.172  -9.252  0.00  0.00    +0.023 A 
ATOM     37  C   UNL     1      -0.225 -13.292  -9.869  0.00  0.00    +0.002 A 
ATOM     38  C   UNL     1       0.607 -13.156 -10.965  0.00  0.00    +0.000 A 
ATOM     39  C   UNL     1       0.919 -11.898 -11.447  0.00  0.00    +0.002 A 
ATOM     40  C   UNL     1       0.397 -10.774 -10.838  0.00  0.00    +0.023 A 
ENDBRANCH  33  35
ENDBRANCH  28  31
ENDBRANCH  25  26
ENDBRANCH  24  25
ENDBRANCH   9  24
TORSDOF 7
