REMARK  Name = ZINC15023892
REMARK  13 active torsions:
REMARK  status: ('A' for Active; 'I' for Inactive)
REMARK    1  A    between atoms: C_1  and  C_2
REMARK    2  A    between atoms: C_5  and  C_9
REMARK    3  A    between atoms: C_6  and  C_8
REMARK    4  A    between atoms: C_9  and  N_57
REMARK    5  A    between atoms: C_10  and  N_57
REMARK    6  A    between atoms: C_11  and  C_13
REMARK    7  A    between atoms: C_11  and  C_14
REMARK    8  A    between atoms: C_11  and  N_57
REMARK    9  A    between atoms: N_16  and  C_17
REMARK   10  A    between atoms: C_17  and  C_18
REMARK   11  A    between atoms: C_18  and  C_19
REMARK   12  A    between atoms: C_22  and  S_25
REMARK   13  A    between atoms: S_25  and  N_28
REMARK                            x       y       z     vdW  Elec       q    Type
REMARK                         _______ _______ _______ _____ _____    ______ ____
ROOT
ATOM      1  C   UNL     1      -0.893   1.464  -3.585  0.00  0.00    +0.199 C 
ATOM      2  O   UNL     1      -1.662   2.392  -3.454  0.00  0.00    -0.278 OA
ATOM      3  N   UNL     1      -0.662   0.947  -4.809  0.00  0.00    -0.316 N 
ATOM      4  H   UNL     1      -0.047   0.205  -4.913  0.00  0.00    +0.149 HD
ENDROOT
BRANCH   1   5
ATOM      5  C   UNL     1      -0.195   0.887  -2.380  0.00  0.00    +0.016 C 
ATOM      6  C   UNL     1      -1.017  -0.277  -1.824  0.00  0.00    -0.004 C 
BRANCH   5   8
ATOM      7  C   UNL     1      -1.373   2.335  -0.837  0.00  0.00    -0.095 C 
ATOM      8  N   UNL     1      -0.044   1.915  -1.329  0.00  0.00    +0.388 N 
ATOM      9  H   UNL     1       0.490   1.516  -0.547  0.00  0.00    -0.081 HD
BRANCH   8  10
ATOM     10  C   UNL     1       0.688   3.082  -1.864  0.00  0.00    -0.042 C 
BRANCH  10  15
ATOM     11  C   UNL     1       1.963   6.645   2.503  0.00  0.00    +0.044 C 
ATOM     12  C   UNL     1       1.631   5.716   1.363  0.00  0.00    -0.050 A 
ATOM     13  C   UNL     1       0.561   5.995   0.533  0.00  0.00    +0.003 A 
ATOM     14  C   UNL     1       0.256   5.143  -0.511  0.00  0.00    +0.002 A 
ATOM     15  C   UNL     1       1.021   4.011  -0.726  0.00  0.00    -0.061 A 
ATOM     16  C   UNL     1       2.087   3.730   0.107  0.00  0.00    -0.049 A 
ATOM     17  C   UNL     1       2.395   4.585   1.149  0.00  0.00    +0.007 A 
ATOM     18  C   UNL     1       2.917   2.493  -0.123  0.00  0.00    +0.044 C 
ENDBRANCH  10  15
ENDBRANCH   8  10
ENDBRANCH   5   8
ENDBRANCH   1   5
BRANCH   3  19
ATOM     19  C   UNL     1      -1.340   1.507  -5.980  0.00  0.00    +0.109 C 
BRANCH  19  20
ATOM     20  C   UNL     1      -0.905   0.746  -7.234  0.00  0.00    +0.054 C 
BRANCH  20  21
ATOM     21  C   UNL     1      -1.603   1.322  -8.439  0.00  0.00    -0.046 A 
ATOM     22  C   UNL     1      -2.823   0.812  -8.841  0.00  0.00    +0.005 A 
ATOM     23  C   UNL     1      -3.465   1.343  -9.944  0.00  0.00    +0.029 A 
ATOM     24  C   UNL     1      -2.882   2.379 -10.650  0.00  0.00    +0.105 A 
ATOM     25  C   UNL     1      -1.659   2.885 -10.252  0.00  0.00    +0.029 A 
ATOM     26  C   UNL     1      -1.020   2.357  -9.146  0.00  0.00    +0.005 A 
BRANCH  24  27
ATOM     27  S   UNL     1      -3.699   3.053 -12.059  0.00  0.00    +0.056 S 
ATOM     28  O   UNL     1      -5.082   2.772 -11.900  0.00  0.00    -0.153 OA
ATOM     29  O   UNL     1      -3.204   4.375 -12.220  0.00  0.00    -0.153 OA
BRANCH  27  30
ATOM     30  N   UNL     1      -3.189   2.193 -13.379  0.00  0.00    -0.204 NA
ATOM     31  H   UNL     1      -3.779   2.079 -14.140  0.00  0.00    +0.144 HD
ATOM     32  H   UNL     1      -2.301   1.803 -13.390  0.00  0.00    +0.144 HD
ENDBRANCH  27  30
ENDBRANCH  24  27
ENDBRANCH  20  21
ENDBRANCH  19  20
ENDBRANCH   3  19
TORSDOF 9
