REMARK  Name = ZINC12662801
REMARK  5 active torsions:
REMARK  status: ('A' for Active; 'I' for Inactive)
REMARK    1  A    between atoms: C_1  and  O_2
REMARK    2  A    between atoms: O_2  and  C_3
REMARK    3  A    between atoms: C_8  and  N_9
REMARK    4  A    between atoms: C_24  and  C_30
REMARK    5  A    between atoms: C_30  and  C_32
REMARK                            x       y       z     vdW  Elec       q    Type
REMARK                         _______ _______ _______ _____ _____    ______ ____
ROOT
ATOM      1  N   UNL     1      -1.406   6.370  -1.864  0.00  0.00    -0.206 N 
ATOM      2  C   UNL     1      -0.123   6.193  -1.512  0.00  0.00    +0.232 C 
ATOM      3  O   UNL     1       0.840   6.655  -2.085  0.00  0.00    -0.274 OA
ATOM      4  C   UNL     1      -0.085   5.312  -0.273  0.00  0.00    +0.113 C 
ATOM      5  C   UNL     1      -0.047   3.846  -0.724  0.00  0.00    +0.100 C 
ATOM      6  C   UNL     1       1.260   3.192  -0.358  0.00  0.00    -0.021 A 
ATOM      7  C   UNL     1       2.439   3.899  -0.370  0.00  0.00    +0.006 A 
ATOM      8  C   UNL     1       3.624   3.272  -0.023  0.00  0.00    +0.000 A 
ATOM      9  C   UNL     1       3.628   1.936   0.336  0.00  0.00    +0.001 A 
ATOM     10  C   UNL     1       2.452   1.215   0.349  0.00  0.00    +0.008 A 
ATOM     11  C   UNL     1       1.252   1.838   0.000  0.00  0.00    -0.019 A 
ATOM     12  C   UNL     1      -0.013   1.076   0.008  0.00  0.00    +0.022 C 
ATOM     13  C   UNL     1      -1.185   1.740   0.017  0.00  0.00    +0.054 C 
ATOM     14  C   UNL     1      -1.950   4.082   0.715  0.00  0.00    +0.141 C 
ATOM     15  C   UNL     1      -1.534   5.492   0.276  0.00  0.00    +0.116 C 
ATOM     16  C   UNL     1      -2.304   5.911  -0.958  0.00  0.00    +0.232 C 
ATOM     17  O   UNL     1      -3.506   5.838  -1.103  0.00  0.00    -0.274 OA
ATOM     18  N   UNL     1      -1.274   3.223  -0.294  0.00  0.00    -0.384 NA
ATOM     19  H   UNL     1      -1.885   3.263  -1.118  0.00  0.00    +0.127 HD
ENDROOT
BRANCH   1  25
ATOM     20  C   UNL     1      -1.989   8.368  -3.105  0.00  0.00    +0.142 A 
ATOM     21  C   UNL     1      -2.363   8.975  -4.293  0.00  0.00    +0.047 A 
ATOM     22  C   UNL     1      -2.547   8.213  -5.431  0.00  0.00    +0.004 A 
ATOM     23  C   UNL     1      -2.354   6.844  -5.389  0.00  0.00    +0.002 A 
ATOM     24  C   UNL     1      -1.976   6.231  -4.209  0.00  0.00    +0.027 A 
ATOM     25  C   UNL     1      -1.790   6.990  -3.063  0.00  0.00    +0.085 A 
BRANCH  20  27
ATOM     26  C   UNL     1      -2.036  10.523  -2.100  0.00  0.00    +0.277 C 
ATOM     27  O   UNL     1      -1.814   9.116  -1.983  0.00  0.00    -0.493 OA
ENDBRANCH  20  27
ENDBRANCH   1  25
BRANCH  14  28
ATOM     28  C   UNL     1      -3.397   3.844   0.364  0.00  0.00    +0.183 C 
ATOM     29  O   UNL     1      -3.684   3.137  -0.579  0.00  0.00    -0.290 OA
BRANCH  28  30
ATOM     30  C   UNL     1      -4.458   4.468   1.164  0.00  0.00    +0.023 A 
ATOM     31  C   UNL     1      -4.130   5.280   2.256  0.00  0.00    +0.015 A 
ATOM     32  C   UNL     1      -5.127   5.868   3.001  0.00  0.00    +0.050 A 
ATOM     33  C   UNL     1      -6.462   5.651   2.680  0.00  0.00    +0.166 A 
ATOM     34  C   UNL     1      -6.797   4.838   1.595  0.00  0.00    +0.167 A 
ATOM     35  C   UNL     1      -5.803   4.249   0.840  0.00  0.00    +0.061 A 
ATOM     36  O   UNL     1      -8.158   4.787   1.494  0.00  0.00    -0.453 OA
ATOM     37  C   UNL     1      -8.654   5.241   2.767  0.00  0.00    +0.466 C 
ATOM     38  O   UNL     1      -7.611   6.106   3.253  0.00  0.00    -0.453 OA
ENDBRANCH  28  30
ENDBRANCH  14  28
TORSDOF 4
