REMARK  Name = ZINC14922741
REMARK  9 active torsions:
REMARK  status: ('A' for Active; 'I' for Inactive)
REMARK    1  A    between atoms: C_1  and  C_2
REMARK    2  A    between atoms: C_2  and  N_54
REMARK    3  A    between atoms: C_3  and  C_4
REMARK    4  A    between atoms: C_3  and  N_54
REMARK    5  A    between atoms: N_6  and  C_7
REMARK    6  A    between atoms: C_12  and  C_13
REMARK    7  A    between atoms: C_15  and  C_16
REMARK    8  A    between atoms: C_15  and  N_54
REMARK    9  A    between atoms: N_21  and  C_22
REMARK                            x       y       z     vdW  Elec       q    Type
REMARK                         _______ _______ _______ _____ _____    ______ ____
ROOT
ATOM      1  C   UNL     1       8.259  -3.281   4.050  0.00  0.00    +0.020 C 
ENDROOT
BRANCH   1   2
ATOM      2  C   UNL     1       8.947  -3.211   2.711  0.00  0.00    +0.204 C 
ATOM      3  O   UNL     1       9.404  -4.217   2.210  0.00  0.00    -0.277 OA
ATOM      4  N   UNL     1       9.056  -2.031   2.070  0.00  0.00    -0.241 N 
ATOM      5  C   UNL     1       9.671  -1.968   0.872  0.00  0.00    +0.310 C 
ATOM      6  O   UNL     1      10.129  -2.976   0.370  0.00  0.00    -0.252 OA
ATOM      7  N   UNL     1       9.779  -0.787   0.231  0.00  0.00    -0.269 N 
ATOM      8  H   UNL     1       8.691  -1.226   2.470  0.00  0.00    +0.159 HD
ATOM      9  H   UNL     1       9.478   0.028   0.661  0.00  0.00    +0.156 HD
BRANCH   7  10
ATOM     10  C   UNL     1      10.327  -0.738  -1.058  0.00  0.00    +0.038 A 
ATOM     11  C   UNL     1      10.106  -1.781  -1.947  0.00  0.00    +0.027 A 
ATOM     12  C   UNL     1      10.646  -1.733  -3.218  0.00  0.00    +0.051 A 
ATOM     13  C   UNL     1      11.408  -0.645  -3.609  0.00  0.00    +0.166 A 
ATOM     14  C   UNL     1      11.632   0.403  -2.720  0.00  0.00    +0.168 A 
ATOM     15  C   UNL     1      11.091   0.355  -1.446  0.00  0.00    +0.073 A 
ATOM     16  O   UNL     1      12.403   1.344  -3.338  0.00  0.00    -0.453 OA
ATOM     17  C   UNL     1      12.309   1.054  -4.746  0.00  0.00    +0.466 C 
ATOM     18  O   UNL     1      12.041  -0.360  -4.786  0.00  0.00    -0.453 OA
ENDBRANCH   7  10
ENDBRANCH   1   2
BRANCH   1  19
ATOM     19  N   UNL     1       8.377  -4.659   4.571  0.00  0.00    +0.391 N 
ATOM     20  H   UNL     1       8.204  -5.321   3.806  0.00  0.00    -0.080 HD
BRANCH  19  22
ATOM     21  C   UNL     1       6.011  -5.106   4.986  0.00  0.00    -0.017 C 
ATOM     22  C   UNL     1       7.378  -4.883   5.636  0.00  0.00    -0.081 C 
ENDBRANCH  19  22
BRANCH  19  23
ATOM     23  C   UNL     1       9.739  -4.883   5.101  0.00  0.00    +0.020 C 
BRANCH  23  24
ATOM     24  C   UNL     1       9.901  -6.347   5.421  0.00  0.00    +0.201 C 
ATOM     25  O   UNL     1       8.977  -7.113   5.243  0.00  0.00    -0.278 OA
ATOM     26  N   UNL     1      11.072  -6.806   5.906  0.00  0.00    -0.287 N 
ATOM     27  H   UNL     1      11.789  -6.185   6.110  0.00  0.00    +0.155 HD
BRANCH  26  28
ATOM     28  C   UNL     1      11.254  -8.177   6.114  0.00  0.00    +0.038 A 
ATOM     29  C   UNL     1      10.165  -8.986   6.411  0.00  0.00    +0.043 A 
ATOM     30  C   UNL     1      10.348 -10.342   6.610  0.00  0.00    +0.043 A 
ATOM     31  C   UNL     1      11.616 -10.890   6.525  0.00  0.00    +0.020 A 
ATOM     32  C   UNL     1      12.702 -10.086   6.235  0.00  0.00    +0.006 A 
ATOM     33  C   UNL     1      12.525  -8.731   6.029  0.00  0.00    -0.029 A 
ATOM     34  C   UNL     1      13.709  -7.855   5.713  0.00  0.00    +0.045 C 
ATOM     35 CL   UNL     1       8.987 -11.356   6.974  0.00  0.00    -0.083 Cl
ENDBRANCH  26  28
ENDBRANCH  23  24
ENDBRANCH  19  23
ENDBRANCH   1  19
TORSDOF 7
