REMARK  Name = ZINC21779681
REMARK  6 active torsions:
REMARK  status: ('A' for Active; 'I' for Inactive)
REMARK    1  A    between atoms: C_1  and  C_2
REMARK    2  A    between atoms: C_5  and  N_9
REMARK    3  A    between atoms: C_7  and  C_8
REMARK    4  A    between atoms: N_15  and  S_18
REMARK    5  A    between atoms: S_18  and  C_21
REMARK    6  A    between atoms: N_29  and  C_30
REMARK                            x       y       z     vdW  Elec       q    Type
REMARK                         _______ _______ _______ _____ _____    ______ ____
ROOT
ATOM      1  N   UNL     1       0.031   1.024   0.062  0.00  0.00    -0.269 N 
ATOM      2  C   UNL     1       1.253   1.519   0.339  0.00  0.00    +0.307 C 
ATOM      3  O   UNL     1       1.395   2.708   0.548  0.00  0.00    -0.252 OA
ATOM      4  N   UNL     1       2.319   0.695   0.384  0.00  0.00    -0.283 N 
ATOM      5  C   UNL     1       2.195  -0.712  -0.021  0.00  0.00    +0.126 C 
ATOM      6  C   UNL     1       3.240  -0.997  -1.113  0.00  0.00    +0.128 C 
ATOM      7  N   UNL     1       4.545  -0.505  -0.652  0.00  0.00    -0.174 NA
ATOM      8  C   UNL     1       4.668   0.901  -0.242  0.00  0.00    +0.128 C 
ATOM      9  C   UNL     1       3.625   1.187   0.846  0.00  0.00    +0.126 C 
ATOM     10  H   UNL     1      -0.078  -0.018  -0.273  0.00  0.00    +0.156 HD
ENDROOT
BRANCH   1  15
ATOM     11  C   UNL     1      -4.556   4.315   0.622  0.00  0.00    +0.044 C 
ATOM     12  C   UNL     1      -3.338   3.441   0.473  0.00  0.00    -0.047 A 
ATOM     13  C   UNL     1      -2.094   4.016   0.286  0.00  0.00    +0.005 A 
ATOM     14  C   UNL     1      -0.975   3.218   0.155  0.00  0.00    +0.023 A 
ATOM     15  C   UNL     1      -1.101   1.836   0.200  0.00  0.00    +0.035 A 
ATOM     16  C   UNL     1      -2.351   1.261   0.388  0.00  0.00    +0.027 A 
ATOM     17  C   UNL     1      -3.466   2.065   0.524  0.00  0.00    -0.046 A 
ATOM     18  C   UNL     1      -4.823   1.442   0.728  0.00  0.00    +0.044 C 
ENDBRANCH   1  15
BRANCH   7  19
ATOM     19  S   UNL     1       5.855  -1.517  -0.596  0.00  0.00    +0.061 S 
ATOM     20  O   UNL     1       5.603  -2.560  -1.528  0.00  0.00    -0.153 OA
ATOM     21  O   UNL     1       7.010  -0.692  -0.669  0.00  0.00    -0.153 OA
BRANCH  19  22
ATOM     22  C   UNL     1       5.869  -2.262   1.001  0.00  0.00    +0.106 A 
ATOM     23  C   UNL     1       6.560  -1.652   2.040  0.00  0.00    +0.030 A 
ATOM     24  C   UNL     1       6.580  -2.215   3.297  0.00  0.00    +0.028 A 
ATOM     25  C   UNL     1       5.910  -3.412   3.528  0.00  0.00    +0.049 A 
ATOM     26  C   UNL     1       5.216  -4.029   2.472  0.00  0.00    +0.002 A 
ATOM     27  C   UNL     1       5.205  -3.438   1.206  0.00  0.00    +0.038 A 
ATOM     28  C   UNL     1       4.629  -5.249   3.031  0.00  0.00    +0.027 A 
ATOM     29  C   UNL     1       4.983  -5.297   4.325  0.00  0.00    +0.086 A 
ATOM     30  N   UNL     1       5.749  -4.208   4.640  0.00  0.00    -0.350 N 
ATOM     31  C   UNL     1       6.312  -3.930   5.963  0.00  0.00    +0.149 C 
ENDBRANCH  19  22
ENDBRANCH   7  19
TORSDOF 3
