REMARK  Name = ZINC63710218
REMARK  6 active torsions:
REMARK  status: ('A' for Active; 'I' for Inactive)
REMARK    1  A    between atoms: C_1  and  C_2
REMARK    2  A    between atoms: C_2  and  C_3
REMARK    3  A    between atoms: C_8  and  N_9
REMARK    4  A    between atoms: C_10  and  S_20
REMARK    5  A    between atoms: S_20  and  C_21
REMARK    6  A    between atoms: C_21  and  C_22
REMARK                            x       y       z     vdW  Elec       q    Type
REMARK                         _______ _______ _______ _____ _____    ______ ____
ROOT
ATOM      1  N   UNL     1      -1.506  -0.315  -2.391  0.00  0.00    -0.235 N 
ATOM      2  C   UNL     1      -0.757  -1.317  -3.153  0.00  0.00    +0.261 C 
ATOM      3  N   UNL     1      -0.120  -0.960  -4.423  0.00  0.00    -0.230 NA
ATOM      4  C   UNL     1      -0.211   0.243  -4.889  0.00  0.00    +0.186 C 
ATOM      5  C   UNL     1      -0.965   1.283  -4.139  0.00  0.00    +0.103 C 
ATOM      6  C   UNL     1      -0.859   2.405  -4.897  0.00  0.00    +0.151 C 
ATOM      7  N   UNL     1      -0.130   2.109  -5.989  0.00  0.00    -0.155 NA
ATOM      8  N   UNL     1       0.252   0.882  -6.008  0.00  0.00    -0.129 NA
ATOM      9  C   UNL     1      -1.614   0.945  -2.868  0.00  0.00    +0.258 C 
ATOM     10  O   UNL     1      -2.236   1.788  -2.250  0.00  0.00    -0.269 OA
ENDROOT
BRANCH   1  16
ATOM     11  C   UNL     1      -1.412  -0.526   0.013  0.00  0.00    -0.026 A 
ATOM     12  C   UNL     1      -2.015  -0.864   1.208  0.00  0.00    +0.005 A 
ATOM     13  C   UNL     1      -3.312  -1.343   1.219  0.00  0.00    +0.000 A 
ATOM     14  C   UNL     1      -4.010  -1.485   0.033  0.00  0.00    +0.002 A 
ATOM     15  C   UNL     1      -3.413  -1.149  -1.165  0.00  0.00    +0.024 A 
ATOM     16  C   UNL     1      -2.112  -0.662  -1.179  0.00  0.00    +0.043 A 
BRANCH  11  18
ATOM     17  C   UNL     1      -0.019   1.526   0.010  0.00  0.00    +0.009 C 
ATOM     18  C   UNL     1       0.002  -0.004   0.002  0.00  0.00    +0.033 C 
ENDBRANCH  11  18
ENDBRANCH   1  16
BRANCH   2  19
ATOM     19  S   UNL     1      -1.889  -2.694  -3.489  0.00  0.00    -0.109 S 
BRANCH  19  20
ATOM     20  C   UNL     1      -3.232  -1.935  -4.442  0.00  0.00    +0.128 C 
BRANCH  20  21
ATOM     21  C   UNL     1      -4.256  -2.984  -4.791  0.00  0.00    +0.059 A 
ATOM     22  C   UNL     1      -5.464  -3.020  -4.121  0.00  0.00    +0.094 A 
ATOM     23  C   UNL     1      -6.399  -4.004  -4.463  0.00  0.00    +0.259 A 
ATOM     24  O   UNL     1      -7.475  -4.062  -3.890  0.00  0.00    -0.267 OA
ATOM     25  N   UNL     1      -6.091  -4.887  -5.437  0.00  0.00    -0.267 N 
ATOM     26  C   UNL     1      -6.991  -5.850  -5.781  0.00  0.00    +0.111 A 
ATOM     27  C   UNL     1      -6.706  -6.746  -6.754  0.00  0.00    +0.035 A 
ATOM     28  C   UNL     1      -5.474  -6.692  -7.422  0.00  0.00    +0.020 A 
ATOM     29  C   UNL     1      -4.568  -5.732  -7.084  0.00  0.00    +0.048 A 
ATOM     30  C   UNL     1      -4.883  -4.809  -6.071  0.00  0.00    +0.141 A 
ATOM     31  N   UNL     1      -4.000  -3.867  -5.743  0.00  0.00    -0.233 NA
ATOM     32 BR   UNL     1      -7.971  -8.075  -7.213  0.00  0.00    -0.049 Br
ENDBRANCH  20  21
ENDBRANCH  19  20
ENDBRANCH   2  19
TORSDOF 5
