REMARK  Name = ZINC38799193
REMARK  4 active torsions:
REMARK  status: ('A' for Active; 'I' for Inactive)
REMARK    1  A    between atoms: C_4  and  C_7
REMARK    2  A    between atoms: C_18  and  C_20
REMARK    3  A    between atoms: C_20  and  C_22
REMARK    4  A    between atoms: C_23  and  C_24
REMARK                            x       y       z     vdW  Elec       q    Type
REMARK                         _______ _______ _______ _____ _____    ______ ____
ROOT
ATOM      1  C   UNL     1       3.763  -0.426  -0.284  0.00  0.00    -0.016 C 
ATOM      2  C   UNL     1       4.636  -0.180   0.732  0.00  0.00    -0.017 C 
ATOM      3  C   UNL     1       4.420   0.904   1.602  0.00  0.00    +0.026 C 
ATOM      4  C   UNL     1       5.167   1.051   2.720  0.00  0.00    +0.041 C 
ATOM      5  C   UNL     1       6.208   0.074   3.036  0.00  0.00    +0.018 C 
ATOM      6  C   UNL     1       6.505  -0.911   2.199  0.00  0.00    +0.001 C 
ATOM      7  C   UNL     1       5.817  -1.099   0.885  0.00  0.00    +0.127 C 
ATOM      8  N   UNL     1       5.357  -2.487   0.737  0.00  0.00    -0.304 N 
ATOM      9  C   UNL     1       4.491  -2.764  -0.272  0.00  0.00    +0.229 C 
ATOM     10  O   UNL     1       4.073  -3.888  -0.449  0.00  0.00    -0.275 OA
ATOM     11  C   UNL     1       4.061  -1.624  -1.166  0.00  0.00    +0.176 C 
ATOM     12 CL   UNL     1       4.891   2.398   3.779  0.00  0.00    -0.084 Cl
ATOM     13  H   UNL     1       5.662  -3.183   1.341  0.00  0.00    +0.150 HD
ENDROOT
BRANCH   1  17
ATOM     14  C   UNL     1       0.366   2.027  -0.941  0.00  0.00    +0.000 A 
ATOM     15  C   UNL     1       1.390   2.005  -1.873  0.00  0.00    +0.001 A 
ATOM     16  C   UNL     1       2.498   1.210  -1.666  0.00  0.00    +0.008 A 
ATOM     17  C   UNL     1       2.585   0.425  -0.512  0.00  0.00    -0.020 A 
ATOM     18  C   UNL     1       1.546   0.454   0.425  0.00  0.00    +0.008 A 
ATOM     19  C   UNL     1       0.445   1.253   0.204  0.00  0.00    +0.001 A 
ENDBRANCH   1  17
BRANCH  11  20
ATOM     20  C   UNL     1       2.823  -2.015  -1.932  0.00  0.00    +0.172 C 
ATOM     21  O   UNL     1       1.730  -1.892  -1.421  0.00  0.00    -0.292 OA
BRANCH  20  22
ATOM     22  C   UNL     1       2.940  -2.543  -3.291  0.00  0.00    +0.044 C 
ATOM     23  C   UNL     1       1.844  -2.890  -3.968  0.00  0.00    -0.007 C 
BRANCH  23  24
ATOM     24  C   UNL     1       1.964  -3.434  -5.369  0.00  0.00    +0.121 C 
ATOM     25  C   UNL     1       1.282  -2.458  -6.307  0.00  0.00    -0.001 C 
ATOM     26  C   UNL     1       0.261  -2.937  -7.073  0.00  0.00    -0.007 A 
ATOM     27  C   UNL     1      -0.453  -2.063  -8.005  0.00  0.00    +0.009 A 
ATOM     28  C   UNL     1      -1.464  -2.584  -8.747  0.00  0.00    +0.001 A 
ATOM     29  C   UNL     1      -1.831  -3.926  -8.636  0.00  0.00    +0.002 A 
ATOM     30  C   UNL     1      -1.208  -4.788  -7.790  0.00  0.00    +0.024 A 
ATOM     31  C   UNL     1      -0.147  -4.349  -6.976  0.00  0.00    +0.040 A 
ATOM     32  N   UNL     1       0.456  -5.204  -6.150  0.00  0.00    -0.284 N 
ATOM     33  C   UNL     1       1.456  -4.858  -5.358  0.00  0.00    +0.228 C 
ATOM     34  O   UNL     1       1.966  -5.683  -4.624  0.00  0.00    -0.274 OA
ATOM     35  H   UNL     1       0.145  -6.123  -6.128  0.00  0.00    +0.155 HD
ENDBRANCH  23  24
ENDBRANCH  20  22
ENDBRANCH  11  20
TORSDOF 4
