REMARK  Name = ZINC13440731
REMARK  12 active torsions:
REMARK  status: ('A' for Active; 'I' for Inactive)
REMARK    1  A    between atoms: C_1  and  O_2
REMARK    2  A    between atoms: O_2  and  C_3
REMARK    3  A    between atoms: C_7  and  S_9
REMARK    4  A    between atoms: S_9  and  N_12
REMARK    5  A    between atoms: N_12  and  C_13
REMARK    6  A    between atoms: N_17  and  C_20
REMARK    7  A    between atoms: C_20  and  C_21
REMARK    8  A    between atoms: N_23  and  C_24
REMARK    9  A    between atoms: C_24  and  C_25
REMARK   10  A    between atoms: C_28  and  C_33
REMARK   11  A    between atoms: C_30  and  O_31
REMARK   12  A    between atoms: O_31  and  C_32
REMARK                            x       y       z     vdW  Elec       q    Type
REMARK                         _______ _______ _______ _____ _____    ______ ____
ROOT
ATOM      1  C   UNL     1      -0.409   4.191  -1.971  0.00  0.00    +0.220 C 
ENDROOT
BRANCH   1   6
ATOM      2  C   UNL     1      -0.871   0.534  -1.378  0.00  0.00    +0.112 A 
ATOM      3  C   UNL     1      -2.232   0.424  -1.460  0.00  0.00    +0.031 A 
ATOM      4  C   UNL     1      -2.998   1.570  -1.713  0.00  0.00    +0.020 A 
ATOM      5  C   UNL     1      -2.392   2.768  -1.873  0.00  0.00    +0.090 A 
ATOM      6  N   UNL     1      -1.039   2.881  -1.792  0.00  0.00    -0.305 N 
ATOM      7  C   UNL     1      -0.271   1.801  -1.551  0.00  0.00    +0.274 A 
ATOM      8  O   UNL     1       0.942   1.917  -1.482  0.00  0.00    -0.266 OA
BRANCH   2   9
ATOM      9  N   UNL     1      -0.082  -0.595  -1.127  0.00  0.00    -0.211 N 
ATOM     10  H   UNL     1       0.875  -0.500  -0.998  0.00  0.00    +0.174 HD
BRANCH   9  11
ATOM     11  S   UNL     1      -0.782  -2.094  -1.049  0.00  0.00    +0.073 S 
ATOM     12  O   UNL     1       0.272  -3.024  -0.840  0.00  0.00    -0.150 OA
ATOM     13  O   UNL     1      -1.886  -1.981  -0.162  0.00  0.00    -0.150 OA
BRANCH  11  18
ATOM     14  C   UNL     1      -3.310  -2.464  -4.155  0.00  0.00    +0.122 A 
ATOM     15  C   UNL     1      -2.494  -2.987  -5.147  0.00  0.00    +0.046 A 
ATOM     16  C   UNL     1      -1.161  -3.235  -4.884  0.00  0.00    +0.005 A 
ATOM     17  C   UNL     1      -0.639  -2.962  -3.633  0.00  0.00    +0.029 A 
ATOM     18  C   UNL     1      -1.450  -2.440  -2.643  0.00  0.00    +0.112 A 
ATOM     19  C   UNL     1      -2.785  -2.195  -2.899  0.00  0.00    +0.074 A 
BRANCH  14  21
ATOM     20  C   UNL     1      -5.095  -2.526  -5.724  0.00  0.00    +0.277 C 
ATOM     21  O   UNL     1      -4.622  -2.220  -4.411  0.00  0.00    -0.495 OA
ENDBRANCH  14  21
ENDBRANCH  11  18
ENDBRANCH   9  11
ENDBRANCH   2   9
ENDBRANCH   1   6
BRANCH   1  22
ATOM     22  C   UNL     1      -0.296   4.881  -0.636  0.00  0.00    +0.233 C 
ATOM     23  O   UNL     1      -0.702   4.331   0.367  0.00  0.00    -0.274 OA
ATOM     24  N   UNL     1       0.255   6.108  -0.555  0.00  0.00    -0.310 N 
ATOM     25  H   UNL     1       0.579   6.547  -1.357  0.00  0.00    +0.149 HD
BRANCH  24  26
ATOM     26  C   UNL     1       0.365   6.778   0.743  0.00  0.00    +0.143 C 
BRANCH  26  27
ATOM     27  C   UNL     1       1.012   8.126   0.559  0.00  0.00    +0.011 A 
ATOM     28  C   UNL     1       2.356   8.290   0.842  0.00  0.00    +0.009 A 
ATOM     29  C   UNL     1       2.955   9.521   0.676  0.00  0.00    +0.012 A 
ATOM     30  C   UNL     1       2.205  10.606   0.221  0.00  0.00    +0.016 A 
ATOM     31  C   UNL     1       0.851  10.440  -0.064  0.00  0.00    +0.057 A 
ATOM     32  C   UNL     1       0.259   9.198   0.101  0.00  0.00    +0.125 A 
BRANCH  30  33
ATOM     33  C   UNL     1       2.845  11.929   0.042  0.00  0.00    +0.094 C 
ATOM     34  N   UNL     1       4.184  12.091   0.325  0.00  0.00    -0.345 N 
ATOM     35  H   UNL     1       2.472  13.846  -0.532  0.00  0.00    +0.157 HD
ATOM     36  H   UNL     1       4.707  11.338   0.641  0.00  0.00    +0.144 HD
ATOM     37  H   UNL     1       4.603  12.957   0.207  0.00  0.00    +0.144 HD
ATOM     38  N   UNL     1       2.077  12.916  -0.393  0.00  0.00    -0.387 N 
ATOM     39  H   UNL     1       1.084  12.745  -0.590  0.00  0.00    +0.157 HD
ENDBRANCH  30  33
BRANCH  32  40
ATOM     40  O   UNL     1      -1.060   9.031  -0.181  0.00  0.00    -0.495 OA
ATOM     41  C   UNL     1      -1.774  10.178  -0.648  0.00  0.00    +0.277 C 
ENDBRANCH  32  40
ENDBRANCH  26  27
ENDBRANCH  24  26
ENDBRANCH   1  22
TORSDOF 10
