REMARK  Name = ZINC13189825
REMARK  12 active torsions:
REMARK  status: ('A' for Active; 'I' for Inactive)
REMARK    1  A    between atoms: C_1  and  O_2
REMARK    2  A    between atoms: O_2  and  C_3
REMARK    3  A    between atoms: C_3  and  C_4
REMARK    4  A    between atoms: C_4  and  N_5
REMARK    5  A    between atoms: C_6  and  C_8
REMARK    6  A    between atoms: C_8  and  O_9
REMARK    7  A    between atoms: O_9  and  C_10
REMARK    8  A    between atoms: C_13  and  S_19
REMARK    9  A    between atoms: C_15  and  N_16
REMARK   10  A    between atoms: S_19  and  N_22
REMARK   11  A    between atoms: N_22  and  C_23
REMARK   12  A    between atoms: C_26  and  C_29
REMARK                            x       y       z     vdW  Elec       q    Type
REMARK                         _______ _______ _______ _____ _____    ______ ____
ROOT
ATOM      1  C   UNL     1      -0.834  -0.227  -0.326  0.00  0.00    +0.151 A 
ATOM      2  C   UNL     1       0.476  -0.682  -0.276  0.00  0.00    +0.050 A 
ATOM      3  C   UNL     1       0.732  -2.037  -0.192  0.00  0.00    +0.032 A 
ATOM      4  C   UNL     1      -0.315  -2.939  -0.159  0.00  0.00    +0.111 A 
ATOM      5  C   UNL     1      -1.621  -2.488  -0.209  0.00  0.00    +0.065 A 
ATOM      6  C   UNL     1      -1.883  -1.134  -0.286  0.00  0.00    +0.169 A 
ENDROOT
BRANCH   6   7
ATOM      7  N   UNL     1      -3.281  -0.652  -0.334  0.00  0.00    +0.060 N 
ATOM      8  O   UNL     1      -4.202  -1.448  -0.300  0.00  0.00    -0.126 OA
ATOM      9  O   UNL     1      -3.511   0.542  -0.408  0.00  0.00    -0.126 OA
ENDBRANCH   6   7
BRANCH   4  10
ATOM     10  S   UNL     1       0.016  -4.667  -0.053  0.00  0.00    +0.072 S 
ATOM     11  O   UNL     1      -1.168  -5.333  -0.469  0.00  0.00    -0.150 OA
ATOM     12  O   UNL     1       1.272  -4.879  -0.682  0.00  0.00    -0.150 OA
BRANCH  10  13
ATOM     13  N   UNL     1       0.223  -5.028   1.550  0.00  0.00    -0.216 N 
ATOM     14  H   UNL     1       1.079  -5.357   1.867  0.00  0.00    +0.174 HD
BRANCH  13  15
ATOM     15  C   UNL     1      -0.830  -4.859   2.442  0.00  0.00    +0.048 A 
ATOM     16  C   UNL     1      -0.816  -3.793   3.339  0.00  0.00    +0.025 A 
ATOM     17  C   UNL     1      -1.855  -3.621   4.217  0.00  0.00    +0.017 A 
ATOM     18  C   UNL     1      -2.924  -4.523   4.218  0.00  0.00    +0.063 A 
ATOM     19  C   UNL     1      -2.932  -5.595   3.320  0.00  0.00    +0.017 A 
ATOM     20  C   UNL     1      -1.893  -5.758   2.441  0.00  0.00    +0.025 A 
BRANCH  18  21
ATOM     21  C   UNL     1      -4.040  -4.344   5.164  0.00  0.00    +0.387 C 
ATOM     22  O   UNL     1      -4.969  -5.128   5.164  0.00  0.00    -0.241 OA
ATOM     23  O   UNL     1      -4.031  -3.310   6.029  0.00  0.00    -0.241 OA
ENDBRANCH  18  21
ENDBRANCH  13  15
ENDBRANCH  10  13
ENDBRANCH   4  10
BRANCH   1  24
ATOM     24  O   UNL     1      -1.089   1.105  -0.407  0.00  0.00    -0.480 OA
BRANCH  24  25
ATOM     25  C   UNL     1       0.040   1.981  -0.437  0.00  0.00    +0.324 C 
BRANCH  25  27
ATOM     26  N   UNL     1       0.461   4.415  -0.570  0.00  0.00    -0.310 N 
ATOM     27  C   UNL     1      -0.435   3.409  -0.528  0.00  0.00    +0.251 C 
ATOM     28  O   UNL     1      -1.622   3.652  -0.564  0.00  0.00    -0.272 OA
ATOM     29  H   UNL     1       1.411   4.221  -0.542  0.00  0.00    +0.149 HD
BRANCH  26  30
ATOM     30  C   UNL     1       0.000   5.803  -0.659  0.00  0.00    +0.132 C 
BRANCH  30  31
ATOM     31  C   UNL     1       1.208   6.741  -0.691  0.00  0.00    +0.178 C 
BRANCH  31  33
ATOM     32  C   UNL     1       3.112   7.343  -2.017  0.00  0.00    +0.194 C 
ATOM     33  O   UNL     1       1.956   6.513  -1.887  0.00  0.00    -0.381 OA
ENDBRANCH  31  33
ENDBRANCH  30  31
ENDBRANCH  26  30
ENDBRANCH  25  27
ENDBRANCH  24  25
ENDBRANCH   1  24
TORSDOF 11
