REMARK  Name = ZINC63137456
REMARK  6 active torsions:
REMARK  status: ('A' for Active; 'I' for Inactive)
REMARK    1  A    between atoms: C_1  and  O_2
REMARK    2  A    between atoms: O_2  and  C_3
REMARK    3  A    between atoms: C_6  and  C_11
REMARK    4  A    between atoms: C_8  and  O_9
REMARK    5  A    between atoms: O_9  and  C_10
REMARK    6  A    between atoms: N_30  and  C_33
REMARK                            x       y       z     vdW  Elec       q    Type
REMARK                         _______ _______ _______ _____ _____    ______ ____
ROOT
ATOM      1  C   UNL     1       2.507  -2.501  -4.386  0.00  0.00    +0.134 C 
ATOM      2  C   UNL     1       1.534  -2.528  -5.564  0.00  0.00    +0.131 C 
ATOM      3  C   UNL     1       1.506  -1.105  -6.116  0.00  0.00    -0.034 C 
ATOM      4  C   UNL     1       0.258  -0.674  -5.997  0.00  0.00    -0.001 A 
ATOM      5  C   UNL     1      -0.380   0.597  -6.379  0.00  0.00    +0.010 A 
ATOM      6  C   UNL     1      -1.706   0.709  -6.103  0.00  0.00    +0.001 A 
ATOM      7  C   UNL     1      -2.454  -0.304  -5.495  0.00  0.00    +0.002 A 
ATOM      8  C   UNL     1      -1.950  -1.505  -5.112  0.00  0.00    +0.026 A 
ATOM      9  C   UNL     1      -0.564  -1.741  -5.351  0.00  0.00    +0.043 A 
ATOM     10  N   UNL     1       0.169  -2.807  -5.098  0.00  0.00    -0.375 N 
ATOM     11  C   UNL     1       2.754  -0.444  -6.632  0.00  0.00    +0.065 C 
ATOM     12  C   UNL     1       3.916  -0.770  -5.729  0.00  0.00    +0.167 C 
ATOM     13  N   UNL     1       3.728  -1.776  -4.708  0.00  0.00    -0.279 N 
ATOM     14  C   UNL     1       4.829  -2.032  -3.927  0.00  0.00    +0.234 C 
ATOM     15  O   UNL     1       4.819  -2.901  -3.081  0.00  0.00    -0.274 OA
ATOM     16  C   UNL     1       6.055  -1.178  -4.172  0.00  0.00    +0.204 C 
ATOM     17  N   UNL     1       5.626   0.225  -4.317  0.00  0.00    -0.288 N 
ATOM     18  C   UNL     1       4.553   0.455  -5.123  0.00  0.00    +0.237 C 
ATOM     19  O   UNL     1       4.137   1.574  -5.339  0.00  0.00    -0.274 OA
ATOM     20  H   UNL     1      -0.128  -3.628  -4.676  0.00  0.00    +0.160 HD
ENDROOT
BRANCH   1  24
ATOM     21  C   UNL     1       0.606  -0.608  -1.056  0.00  0.00    +0.162 A 
ATOM     22  C   UNL     1       1.173   0.159  -2.062  0.00  0.00    +0.050 A 
ATOM     23  C   UNL     1       1.787  -0.456  -3.137  0.00  0.00    +0.009 A 
ATOM     24  C   UNL     1       1.837  -1.836  -3.212  0.00  0.00    -0.021 A 
ATOM     25  C   UNL     1       1.273  -2.606  -2.212  0.00  0.00    +0.055 A 
ATOM     26  C   UNL     1       0.662  -1.996  -1.129  0.00  0.00    +0.162 A 
BRANCH  21  28
ATOM     27  C   UNL     1      -0.017   1.425   0.010  0.00  0.00    +0.277 C 
ATOM     28  O   UNL     1       0.002  -0.004   0.002  0.00  0.00    -0.491 OA
ENDBRANCH  21  28
BRANCH  26  29
ATOM     29  O   UNL     1       0.112  -2.753  -0.142  0.00  0.00    -0.491 OA
ATOM     30  C   UNL     1       0.206  -4.171  -0.283  0.00  0.00    +0.277 C 
ENDBRANCH  26  29
ENDBRANCH   1  24
BRANCH  17  31
ATOM     31  C   UNL     1       6.320   1.317  -3.629  0.00  0.00    +0.077 C 
ATOM     32  C   UNL     1       7.813   1.322  -4.018  0.00  0.00    +0.022 C 
ATOM     33  C   UNL     1       8.544   1.718  -2.711  0.00  0.00    +0.002 C 
ATOM     34  C   UNL     1       7.723   0.982  -1.623  0.00  0.00    +0.002 C 
ATOM     35  C   UNL     1       6.263   1.101  -2.107  0.00  0.00    +0.022 C 
ENDBRANCH  17  31
TORSDOF 4
