REMARK  Name = ZINC14241591
REMARK  4 active torsions:
REMARK  status: ('A' for Active; 'I' for Inactive)
REMARK    1  A    between atoms: C_1  and  C_2
REMARK    2  A    between atoms: C_11  and  C_13
REMARK    3  A    between atoms: N_15  and  N_16
REMARK    4  A    between atoms: C_23  and  C_26
REMARK                            x       y       z     vdW  Elec       q    Type
REMARK                         _______ _______ _______ _____ _____    ______ ____
ROOT
ATOM      1  C   UNL     1      -1.288  -0.734   0.011  0.00  0.00    +0.298 C 
ATOM      2  O   UNL     1      -2.335  -0.117   0.025  0.00  0.00    -0.265 OA
ATOM      3  N   UNL     1      -1.300  -2.082   0.004  0.00  0.00    -0.212 N 
ATOM      4  H   UNL     1      -0.464  -2.574  -0.007  0.00  0.00    +0.176 HD
ENDROOT
BRANCH   1  15
ATOM      5  C   UNL     1       6.238   1.692  -0.049  0.00  0.00    +0.044 C 
ATOM      6  C   UNL     1       4.871   1.058  -0.040  0.00  0.00    -0.050 A 
ATOM      7  C   UNL     1       4.752  -0.325  -0.046  0.00  0.00    +0.007 A 
ATOM      8  C   UNL     1       3.511  -0.925  -0.037  0.00  0.00    +0.047 A 
ATOM      9  C   UNL     1       2.362  -0.141  -0.021  0.00  0.00    +0.139 A 
ATOM     10  C   UNL     1       2.491   1.259  -0.015  0.00  0.00    +0.064 A 
ATOM     11  C   UNL     1       3.755   1.848  -0.025  0.00  0.00    +0.018 A 
ATOM     12  C   UNL     1       1.263   2.076   0.001  0.00  0.00    +0.193 A 
ATOM     13  O   UNL     1       1.306   3.293   0.007  0.00  0.00    -0.287 OA
ATOM     14  C   UNL     1      -0.016   1.350   0.009  0.00  0.00    +0.103 A 
ATOM     15  C   UNL     1       0.002  -0.004   0.002  0.00  0.00    +0.195 A 
ATOM     16  O   UNL     1       1.142  -0.710  -0.013  0.00  0.00    -0.450 OA
ENDBRANCH   1  15
BRANCH   3  17
ATOM     17  N   UNL     1      -2.519  -2.771   0.012  0.00  0.00    -0.212 N 
ATOM     18  C   UNL     1      -3.235  -2.843   1.164  0.00  0.00    +0.223 A 
ATOM     19  N   UNL     1      -4.379  -3.472   1.209  0.00  0.00    -0.228 NA
ATOM     20  C   UNL     1      -4.874  -4.073   0.130  0.00  0.00    +0.116 A 
ATOM     21  C   UNL     1      -4.202  -4.057  -1.103  0.00  0.00    +0.082 A 
ATOM     22  C   UNL     1      -2.955  -3.354  -1.120  0.00  0.00    +0.280 A 
ATOM     23  O   UNL     1      -2.298  -3.284  -2.144  0.00  0.00    -0.265 OA
ATOM     24  C   UNL     1      -4.879  -4.762  -2.186  0.00  0.00    +0.010 A 
ATOM     25  C   UNL     1      -6.069  -5.361  -1.929  0.00  0.00    +0.057 A 
ATOM     26  S   UNL     1      -6.345  -5.007  -0.204  0.00  0.00    -0.076 S 
BRANCH  24  27
ATOM     27  C   UNL     1      -4.280  -4.822  -3.535  0.00  0.00    +0.021 A 
ATOM     28  C   UNL     1      -4.069  -5.912  -4.338  0.00  0.00    +0.016 A 
ATOM     29  C   UNL     1      -3.491  -5.721  -5.575  0.00  0.00    +0.008 A 
ATOM     30  C   UNL     1      -3.140  -4.467  -5.954  0.00  0.00    +0.046 A 
ATOM     31  S   UNL     1      -3.636  -3.495  -4.541  0.00  0.00    -0.097 S 
ENDBRANCH  24  27
ENDBRANCH   3  17
TORSDOF 3
