REMARK  Name = ZINC13843469
REMARK  7 active torsions:
REMARK  status: ('A' for Active; 'I' for Inactive)
REMARK    1  A    between atoms: C_1  and  C_2
REMARK    2  A    between atoms: C_7  and  N_8
REMARK    3  A    between atoms: C_9  and  C_11
REMARK    4  A    between atoms: C_11  and  C_12
REMARK    5  A    between atoms: N_16  and  C_30
REMARK    6  A    between atoms: N_18  and  S_19
REMARK    7  A    between atoms: S_19  and  C_22
REMARK                            x       y       z     vdW  Elec       q    Type
REMARK                         _______ _______ _______ _____ _____    ______ ____
ROOT
ATOM      1  C   UNL     1      -0.241  -0.954   6.041  0.00  0.00    +0.149 C 
ATOM      2  C   UNL     1      -0.325  -0.242   7.382  0.00  0.00    +0.239 C 
ATOM      3  O   UNL     1       0.566   0.474   7.787  0.00  0.00    -0.274 OA
ATOM      4  N   UNL     1      -1.429  -0.452   8.078  0.00  0.00    -0.217 N 
ATOM      5  C   UNL     1      -2.448  -1.267   7.621  0.00  0.00    +0.189 C 
ATOM      6  N   UNL     1      -3.576  -1.551   8.208  0.00  0.00    -0.105 NA
ATOM      7  S   UNL     1      -1.854  -1.840   6.035  0.00  0.00    -0.075 S 
ENDROOT
BRANCH   4   8
ATOM      8  C   UNL     1      -1.571   0.174   9.324  0.00  0.00    +0.043 A 
ATOM      9  C   UNL     1      -1.668   1.557   9.401  0.00  0.00    +0.024 A 
ATOM     10  C   UNL     1      -1.808   2.171  10.630  0.00  0.00    +0.002 A 
ATOM     11  C   UNL     1      -1.852   1.410  11.784  0.00  0.00    +0.000 A 
ATOM     12  C   UNL     1      -1.755   0.032  11.710  0.00  0.00    +0.002 A 
ATOM     13  C   UNL     1      -1.620  -0.588  10.483  0.00  0.00    +0.024 A 
ENDBRANCH   4   8
BRANCH   6  14
ATOM     14  S   UNL     1      -4.662  -2.561   7.471  0.00  0.00    +0.101 S 
ATOM     15  O   UNL     1      -5.121  -1.885   6.309  0.00  0.00    -0.146 OA
ATOM     16  O   UNL     1      -4.051  -3.843   7.416  0.00  0.00    -0.146 OA
BRANCH  14  17
ATOM     17  C   UNL     1      -6.048  -2.710   8.548  0.00  0.00    +0.113 A 
ATOM     18  C   UNL     1      -6.075  -3.707   9.506  0.00  0.00    +0.032 A 
ATOM     19  C   UNL     1      -7.162  -3.824  10.352  0.00  0.00    +0.040 A 
ATOM     20  C   UNL     1      -8.224  -2.944  10.239  0.00  0.00    +0.124 A 
ATOM     21  C   UNL     1      -8.197  -1.946   9.279  0.00  0.00    +0.040 A 
ATOM     22  C   UNL     1      -7.106  -1.827   8.438  0.00  0.00    +0.032 A 
ATOM     23  F   UNL     1      -9.287  -3.058  11.065  0.00  0.00    -0.205 F 
ENDBRANCH  14  17
ENDBRANCH   6  14
BRANCH   1  24
ATOM     24  C   UNL     1      -0.154   0.046   4.887  0.00  0.00    +0.120 C 
BRANCH  24  26
ATOM     25  N   UNL     1       0.047  -0.020   2.422  0.00  0.00    -0.285 N 
ATOM     26  C   UNL     1      -0.043  -0.700   3.582  0.00  0.00    +0.219 C 
ATOM     27  O   UNL     1      -0.035  -1.913   3.577  0.00  0.00    -0.275 OA
ATOM     28  H   UNL     1       0.104   0.948   2.431  0.00  0.00    +0.155 HD
BRANCH  25  35
ATOM     29  C   UNL     1      -1.223   1.187   0.180  0.00  0.00    +0.045 C 
ATOM     30  C   UNL     1      -0.550  -0.158   0.086  0.00  0.00    -0.029 A 
ATOM     31  C   UNL     1      -0.532  -0.840  -1.115  0.00  0.00    +0.005 A 
ATOM     32  C   UNL     1       0.085  -2.074  -1.202  0.00  0.00    +0.000 A 
ATOM     33  C   UNL     1       0.687  -2.630  -0.088  0.00  0.00    +0.002 A 
ATOM     34  C   UNL     1       0.673  -1.953   1.116  0.00  0.00    +0.023 A 
ATOM     35  C   UNL     1       0.058  -0.711   1.205  0.00  0.00    +0.036 A 
ENDBRANCH  25  35
ENDBRANCH  24  26
ENDBRANCH   1  24
TORSDOF 6
