REMARK  Name = ZINC09345701
REMARK  3 active torsions:
REMARK  status: ('A' for Active; 'I' for Inactive)
REMARK    1  A    between atoms: C_1  and  C_2
REMARK    2  A    between atoms: C_17  and  C_19
REMARK    3  A    between atoms: C_24  and  N_25
REMARK                            x       y       z     vdW  Elec       q    Type
REMARK                         _______ _______ _______ _____ _____    ______ ____
ROOT
ATOM      1  C   UNL     1      -0.201  11.710   3.533  0.00  0.00    +0.047 C 
ATOM      2  C   UNL     1       1.160  11.528   4.153  0.00  0.00    -0.006 A 
ATOM      3  C   UNL     1       1.558  12.357   5.172  0.00  0.00    +0.046 A 
ATOM      4  C   UNL     1       2.803  12.223   5.770  0.00  0.00    +0.021 A 
ATOM      5  C   UNL     1       3.663  11.233   5.330  0.00  0.00    +0.019 A 
ATOM      6  C   UNL     1       3.273  10.400   4.312  0.00  0.00    +0.041 A 
ATOM      7  C   UNL     1       2.014  10.506   3.679  0.00  0.00    +0.085 A 
ATOM      8  N   UNL     1       1.778   9.612   2.693  0.00  0.00    -0.224 NA
ATOM      9  C   UNL     1       2.657   8.702   2.341  0.00  0.00    +0.162 A 
ATOM     10  S   UNL     1       4.014   9.031   3.456  0.00  0.00    -0.052 S 
ATOM     11  N   UNL     1       2.555   7.734   1.363  0.00  0.00    -0.307 N 
ATOM     12  C   UNL     1       3.776   6.919   1.300  0.00  0.00    +0.126 C 
ATOM     13  C   UNL     1       3.699   5.981   0.091  0.00  0.00    +0.127 C 
ATOM     14  N   UNL     1       2.445   5.217   0.172  0.00  0.00    -0.294 N 
ATOM     15  C   UNL     1       1.189   5.959   0.367  0.00  0.00    +0.127 C 
ATOM     16  C   UNL     1       1.366   6.897   1.571  0.00  0.00    +0.126 C 
ATOM     17  C   UNL     1       2.445   3.874   0.064  0.00  0.00    +0.249 C 
ATOM     18  O   UNL     1       3.498   3.269   0.005  0.00  0.00    -0.270 OA
ATOM     19 CL   UNL     1       0.479  13.599   5.725  0.00  0.00    -0.083 Cl
ENDROOT
BRANCH  17  20
ATOM     20  C   UNL     1       1.165   3.135   0.019  0.00  0.00    +0.068 A 
ATOM     21  C   UNL     1       0.269   3.351  -1.030  0.00  0.00    +0.035 A 
ATOM     22  C   UNL     1      -0.925   2.658  -1.066  0.00  0.00    +0.042 A 
ATOM     23  C   UNL     1      -1.232   1.748  -0.068  0.00  0.00    +0.022 A 
ATOM     24  C   UNL     1      -0.349   1.535   0.976  0.00  0.00    +0.035 A 
ATOM     25  C   UNL     1       0.847   2.221   1.024  0.00  0.00    +0.138 A 
ATOM     26 CL   UNL     1      -2.042   2.924  -2.368  0.00  0.00    -0.084 Cl
BRANCH  25  27
ATOM     27  N   UNL     1       1.792   1.987   2.139  0.00  0.00    +0.057 N 
ATOM     28  O   UNL     1       1.480   1.249   3.057  0.00  0.00    -0.126 OA
ATOM     29  O   UNL     1       2.882   2.531   2.138  0.00  0.00    -0.126 OA
ENDBRANCH  25  27
ENDBRANCH  17  20
TORSDOF 2
