REMARK  Name = ZINC14986883
REMARK  11 active torsions:
REMARK  status: ('A' for Active; 'I' for Inactive)
REMARK    1  A    between atoms: C_1  and  C_2
REMARK    2  A    between atoms: C_7  and  C_8
REMARK    3  A    between atoms: C_12  and  C_14
REMARK    4  A    between atoms: C_14  and  N_15
REMARK    5  A    between atoms: N_15  and  C_16
REMARK    6  A    between atoms: C_16  and  C_17
REMARK    7  A    between atoms: C_19  and  C_27
REMARK    8  A    between atoms: C_21  and  N_23
REMARK    9  A    between atoms: C_24  and  C_26
REMARK   10  A    between atoms: C_31  and  C_38
REMARK   11  A    between atoms: C_34  and  C_37
REMARK                            x       y       z     vdW  Elec       q    Type
REMARK                         _______ _______ _______ _____ _____    ______ ____
ROOT
ATOM      1  C   UNL     1      -5.348   1.306   6.478  0.00  0.00    -0.062 A 
ATOM      2  C   UNL     1      -5.508   2.574   6.998  0.00  0.00    +0.015 A 
ATOM      3  C   UNL     1      -6.713   3.255   6.819  0.00  0.00    +0.039 A 
ATOM      4  C   UNL     1      -7.753   2.650   6.113  0.00  0.00    +0.036 A 
ATOM      5  C   UNL     1      -7.582   1.376   5.594  0.00  0.00    +0.034 A 
ATOM      6  C   UNL     1      -6.376   0.708   5.774  0.00  0.00    +0.025 A 
ENDROOT
BRANCH   3   7
ATOM      7  C   UNL     1      -6.887   4.614   7.376  0.00  0.00    +0.247 C 
ATOM      8  O   UNL     1      -6.401   4.896   8.453  0.00  0.00    -0.270 OA
ATOM      9  N   UNL     1      -7.585   5.540   6.688  0.00  0.00    -0.293 N 
ATOM     10  C   UNL     1      -8.077   5.263   5.329  0.00  0.00    +0.139 C 
ATOM     11  C   UNL     1      -7.655   6.420   4.417  0.00  0.00    +0.133 C 
ATOM     12  O   UNL     1      -8.071   7.656   5.003  0.00  0.00    -0.371 OA
ATOM     13  C   UNL     1      -7.467   7.937   6.268  0.00  0.00    +0.133 C 
ATOM     14  C   UNL     1      -7.884   6.855   7.277  0.00  0.00    +0.139 C 
ATOM     15  C   UNL     1      -7.935   9.306   6.765  0.00  0.00    +0.039 C 
ATOM     16  C   UNL     1      -8.314   6.256   3.046  0.00  0.00    +0.039 C 
ENDBRANCH   3   7
BRANCH   5  17
ATOM     17  N   UNL     1      -8.622   0.764   4.885  0.00  0.00    -0.286 N 
ATOM     18  C   UNL     1      -8.800  -0.570   4.966  0.00  0.00    +0.214 C 
ATOM     19  O   UNL     1      -8.126  -1.226   5.732  0.00  0.00    -0.276 OA
ATOM     20  C   UNL     1      -9.835  -1.246   4.105  0.00  0.00    +0.109 C 
ATOM     21  H   UNL     1      -9.215   1.300   4.335  0.00  0.00    +0.155 HD
ENDBRANCH   5  17
BRANCH   1  22
ATOM     22  C   UNL     1      -4.046   0.573   6.673  0.00  0.00    -0.046 C 
BRANCH  22  23
ATOM     23  N   UNL     1      -3.138   0.884   5.562  0.00  0.00    +0.384 N 
ATOM     24  H   UNL     1      -2.964   1.877   5.538  0.00  0.00    -0.085 HD
ATOM     25  H   UNL     1      -3.559   0.595   4.692  0.00  0.00    -0.085 HD
BRANCH  23  26
ATOM     26  C   UNL     1      -1.868   0.169   5.752  0.00  0.00    -0.046 C 
BRANCH  26  31
ATOM     27  C   UNL     1      -0.079  -0.001   2.424  0.00  0.00    -0.017 A 
ATOM     28  C   UNL     1       0.786   1.087   2.523  0.00  0.00    +0.008 A 
ATOM     29  C   UNL     1       0.783   1.866   3.663  0.00  0.00    +0.001 A 
ATOM     30  C   UNL     1      -0.076   1.568   4.705  0.00  0.00    +0.002 A 
ATOM     31  C   UNL     1      -0.936   0.488   4.612  0.00  0.00    -0.064 A 
ATOM     32  C   UNL     1      -0.946  -0.293   3.475  0.00  0.00    +0.010 A 
BRANCH  27  39
ATOM     33  C   UNL     1      -0.253   1.253  -0.177  0.00  0.00    +0.044 C 
ATOM     34  C   UNL     1      -0.165  -0.246  -0.056  0.00  0.00    -0.043 A 
ATOM     35  C   UNL     1      -0.161  -1.033  -1.191  0.00  0.00    +0.004 A 
ATOM     36  C   UNL     1      -0.080  -2.409  -1.081  0.00  0.00    +0.000 A 
ATOM     37  C   UNL     1      -0.002  -3.005   0.165  0.00  0.00    +0.001 A 
ATOM     38  C   UNL     1      -0.004  -2.229   1.306  0.00  0.00    +0.009 A 
ATOM     39  C   UNL     1      -0.081  -0.841   1.201  0.00  0.00    -0.015 A 
ENDBRANCH  27  39
ENDBRANCH  26  31
ENDBRANCH  23  26
ENDBRANCH  22  23
ENDBRANCH   1  22
TORSDOF 7
