REMARK  Name = ZINC63785050
REMARK  5 active torsions:
REMARK  status: ('A' for Active; 'I' for Inactive)
REMARK    1  A    between atoms: C_1  and  C_2
REMARK    2  A    between atoms: C_6  and  C_33
REMARK    3  A    between atoms: C_7  and  N_8
REMARK    4  A    between atoms: C_9  and  C_10
REMARK    5  A    between atoms: C_23  and  C_24
REMARK                            x       y       z     vdW  Elec       q    Type
REMARK                         _______ _______ _______ _____ _____    ______ ____
ROOT
ATOM      1  C   UNL     1      -0.019   1.526   0.010  0.00  0.00    +0.013 C 
ATOM      2  C   UNL     1       0.002  -0.004   0.002  0.00  0.00    -0.011 C 
ATOM      3  C   UNL     1       0.722  -0.512  -1.252  0.00  0.00    -0.066 C 
ATOM      4  N   UNL     1       0.712  -1.979  -1.264  0.00  0.00    +0.394 N 
ATOM      5  C   UNL     1       1.449  -2.500  -0.108  0.00  0.00    -0.066 C 
ATOM      6  C   UNL     1       0.754  -2.060   1.186  0.00  0.00    -0.011 C 
ATOM      7  C   UNL     1       0.742  -0.527   1.241  0.00  0.00    +0.116 C 
ATOM      8  C   UNL     1      -0.694  -2.563   1.160  0.00  0.00    +0.089 C 
ATOM      9  N   UNL     1      -1.359  -2.032  -0.039  0.00  0.00    -0.310 NA
ATOM     10  C   UNL     1      -1.431  -0.549   0.021  0.00  0.00    +0.089 C 
ATOM     11  C   UNL     1      -0.666  -2.478  -1.256  0.00  0.00    +0.033 C 
ATOM     12  C   UNL     1       1.499  -2.622   2.398  0.00  0.00    +0.013 C 
ATOM     13  H   UNL     1       1.171  -2.301  -2.102  0.00  0.00    -0.079 HD
ENDROOT
BRANCH  11  14
ATOM     14  C   UNL     1      -0.651  -3.984  -1.299  0.00  0.00    -0.044 A 
ATOM     15  C   UNL     1       0.386  -4.647  -1.928  0.00  0.00    +0.007 A 
ATOM     16  C   UNL     1       0.404  -6.028  -1.970  0.00  0.00    +0.050 A 
ATOM     17  C   UNL     1      -0.620  -6.753  -1.380  0.00  0.00    +0.166 A 
ATOM     18  C   UNL     1      -1.665  -6.086  -0.746  0.00  0.00    +0.166 A 
ATOM     19  C   UNL     1      -1.673  -4.701  -0.703  0.00  0.00    +0.052 A 
ATOM     20  O   UNL     1      -2.537  -7.012  -0.251  0.00  0.00    -0.453 OA
ATOM     21  C   UNL     1      -2.228  -8.237  -0.941  0.00  0.00    +0.466 C 
ATOM     22  O   UNL     1      -0.837  -8.097  -1.282  0.00  0.00    -0.453 OA
ENDBRANCH  11  14
BRANCH   7  23
ATOM     23  N   UNL     1       2.122  -0.035   1.235  0.00  0.00    -0.287 NA
ATOM     24  C   UNL     1       2.552   0.699   2.212  0.00  0.00    +0.113 C 
BRANCH  24  25
ATOM     25  C   UNL     1       3.939   1.192   2.206  0.00  0.00    -0.002 C 
ATOM     26  C   UNL     1       4.848   0.916   1.179  0.00  0.00    +0.009 C 
ATOM     27  C   UNL     1       6.160   1.427   1.243  0.00  0.00    -0.001 C 
ATOM     28  C   UNL     1       6.554   2.415   2.055  0.00  0.00    +0.004 C 
ATOM     29  C   UNL     1       5.553   3.081   2.957  0.00  0.00    +0.159 C 
ATOM     30  C   UNL     1       4.501   2.026   3.272  0.00  0.00    -0.009 C 
ATOM     31  C   UNL     1       4.328   2.081   4.593  0.00  0.00    +0.026 C 
ATOM     32  C   UNL     1       5.330   2.901   5.163  0.00  0.00    +0.106 C 
ATOM     33  N   UNL     1       6.082   3.478   4.256  0.00  0.00    -0.279 NA
ENDBRANCH  24  25
ENDBRANCH   7  23
TORSDOF 3
