REMARK  Name = ZINC27018470
REMARK  6 active torsions:
REMARK  status: ('A' for Active; 'I' for Inactive)
REMARK    1  A    between atoms: C_1  and  C_2
REMARK    2  A    between atoms: C_4  and  C_28
REMARK    3  A    between atoms: C_8  and  C_27
REMARK    4  A    between atoms: C_9  and  C_11
REMARK    5  A    between atoms: N_13  and  C_14
REMARK    6  A    between atoms: C_23  and  C_26
REMARK                            x       y       z     vdW  Elec       q    Type
REMARK                         _______ _______ _______ _____ _____    ______ ____
ROOT
ATOM      1  C   UNL     1      -2.317   5.316   0.676  0.00  0.00    +0.255 C 
ATOM      2  O   UNL     1      -1.255   5.909   0.707  0.00  0.00    -0.269 OA
ATOM      3  N   UNL     1      -2.343   3.974   0.800  0.00  0.00    -0.281 N 
ATOM      4  H   UNL     1      -3.295   3.431   0.702  0.00  0.00    +0.155 HD
ENDROOT
BRANCH   3   5
ATOM      5  C   UNL     1      -1.159   3.271   1.054  0.00  0.00    +0.036 A 
ATOM      6  C   UNL     1      -0.986   1.994   0.538  0.00  0.00    +0.027 A 
ATOM      7  C   UNL     1       0.181   1.296   0.787  0.00  0.00    +0.049 A 
ATOM      8  C   UNL     1       1.181   1.871   1.552  0.00  0.00    +0.143 A 
ATOM      9  C   UNL     1       1.010   3.153   2.072  0.00  0.00    +0.077 A 
ATOM     10  C   UNL     1      -0.161   3.850   1.828  0.00  0.00    +0.050 A 
ATOM     11  N   UNL     1       2.032   3.721   2.846  0.00  0.00    -0.279 N 
ATOM     12  C   UNL     1       3.263   3.167   2.813  0.00  0.00    +0.258 C 
ATOM     13  O   UNL     1       4.155   3.623   3.498  0.00  0.00    -0.271 OA
ATOM     14  C   UNL     1       3.525   1.979   1.923  0.00  0.00    +0.256 C 
ATOM     15  O   UNL     1       2.335   1.196   1.804  0.00  0.00    -0.478 OA
ATOM     16  C   UNL     1       4.640   1.124   2.529  0.00  0.00    +0.062 C 
ATOM     17  H   UNL     1       1.825   4.604   3.468  0.00  0.00    +0.155 HD
ENDBRANCH   3   5
BRANCH   1  26
ATOM     18  C   UNL     1      -4.397  10.378   0.027  0.00  0.00    +0.044 C 
ATOM     19  C   UNL     1      -5.431   9.282   0.045  0.00  0.00    -0.039 A 
ATOM     20  C   UNL     1      -6.756   9.579  -0.091  0.00  0.00    +0.027 A 
ATOM     21  C   UNL     1      -7.712   8.573  -0.074  0.00  0.00    +0.040 A 
ATOM     22  N   UNL     1      -7.352   7.312   0.075  0.00  0.00    -0.245 NA
ATOM     23  C   UNL     1      -6.090   6.975   0.210  0.00  0.00    +0.110 A 
ATOM     24  C   UNL     1      -5.040   7.927   0.205  0.00  0.00    +0.014 A 
ATOM     25  C   UNL     1      -3.746   7.403   0.367  0.00  0.00    -0.022 A 
ATOM     26  C   UNL     1      -3.571   6.062   0.502  0.00  0.00    +0.080 A 
ATOM     27  S   UNL     1      -5.238   5.431   0.426  0.00  0.00    -0.064 S 
ATOM     28  C   UNL     1      -2.555   8.326   0.385  0.00  0.00    +0.046 C 
ATOM     29  C   UNL     1      -9.169   8.923  -0.225  0.00  0.00    +0.065 C 
ENDBRANCH   1  26
TORSDOF 2
