REMARK  Name = ZINC55306159
REMARK  4 active torsions:
REMARK  status: ('A' for Active; 'I' for Inactive)
REMARK    1  A    between atoms: C_1  and  C_2
REMARK    2  A    between atoms: C_6  and  C_7
REMARK    3  A    between atoms: N_15  and  C_16
REMARK    4  A    between atoms: C_16  and  C_17
REMARK                            x       y       z     vdW  Elec       q    Type
REMARK                         _______ _______ _______ _____ _____    ______ ____
ROOT
ATOM      1  C   UNL     1       0.029  -0.220   2.569  0.00  0.00    +0.149 A 
ATOM      2  N   UNL     1       0.009   1.047   2.917  0.00  0.00    -0.227 NA
ATOM      3  C   UNL     1       0.022   1.149   4.269  0.00  0.00    +0.093 A 
ATOM      4  C   UNL     1       0.011   2.237   5.148  0.00  0.00    +0.071 A 
ATOM      5  C   UNL     1       0.031   2.018   6.508  0.00  0.00    +0.161 A 
ATOM      6  C   UNL     1       0.061   0.722   7.013  0.00  0.00    +0.160 A 
ATOM      7  C   UNL     1       0.072  -0.361   6.158  0.00  0.00    +0.069 A 
ATOM      8  C   UNL     1       0.052  -0.158   4.785  0.00  0.00    +0.072 A 
ATOM      9  N   UNL     1       0.050  -1.007   3.692  0.00  0.00    -0.312 N 
ATOM     10  F   UNL     1       0.081   0.522   8.350  0.00  0.00    -0.202 F 
ATOM     11  F   UNL     1       0.022   3.069   7.357  0.00  0.00    -0.202 F 
ENDROOT
BRANCH   1  17
ATOM     12  C   UNL     1      -0.018   1.503   0.010  0.00  0.00    +0.045 C 
ATOM     13  C   UNL     1       0.002  -0.004   0.002  0.00  0.00    -0.033 A 
ATOM     14  C   UNL     1       0.006  -0.701  -1.183  0.00  0.00    +0.011 A 
ATOM     15  C   UNL     1       0.025  -2.060  -1.155  0.00  0.00    +0.046 A 
ATOM     16  S   UNL     1       0.038  -2.404   0.597  0.00  0.00    -0.093 S 
ATOM     17  C   UNL     1       0.023  -0.718   1.186  0.00  0.00    +0.058 A 
ENDBRANCH   1  17
BRANCH   9  18
ATOM     18  C   UNL     1       0.071  -2.471   3.728  0.00  0.00    +0.248 C 
BRANCH  18  19
ATOM     19  C   UNL     1       1.499  -2.953   3.727  0.00  0.00    +0.375 C 
ATOM     20  O   UNL     1       2.414  -2.148   3.700  0.00  0.00    -0.244 OA
ATOM     21  O   UNL     1       1.738  -4.148   3.754  0.00  0.00    -0.244 OA
ENDBRANCH  18  19
ENDBRANCH   9  18
TORSDOF 3
