REMARK  Name = ZINC12714910
REMARK  12 active torsions:
REMARK  status: ('A' for Active; 'I' for Inactive)
REMARK    1  A    between atoms: C_1  and  C_2
REMARK    2  A    between atoms: C_5  and  C_38
REMARK    3  A    between atoms: C_6  and  N_8
REMARK    4  A    between atoms: N_8  and  C_9
REMARK    5  A    between atoms: C_9  and  C_11
REMARK    6  A    between atoms: C_9  and  C_17
REMARK    7  A    between atoms: C_14  and  C_16
REMARK    8  A    between atoms: N_19  and  C_20
REMARK    9  A    between atoms: C_20  and  C_21
REMARK   10  A    between atoms: C_27  and  C_29
REMARK   11  A    between atoms: C_30  and  N_37
REMARK   12  A    between atoms: C_31  and  C_34
REMARK                            x       y       z     vdW  Elec       q    Type
REMARK                         _______ _______ _______ _____ _____    ______ ____
ROOT
ATOM      1  N   UNL     1      -0.060  -2.933   3.349  0.00  0.00    -0.248 N 
ATOM      2  C   UNL     1       0.939  -3.358   4.147  0.00  0.00    +0.262 C 
ATOM      3  O   UNL     1       0.715  -4.177   5.020  0.00  0.00    -0.269 OA
ENDROOT
BRANCH   1   9
ATOM      4  C   UNL     1       1.121  -1.939  -1.318  0.00  0.00    +0.044 C 
ATOM      5  C   UNL     1       0.773  -1.482   0.076  0.00  0.00    -0.049 A 
ATOM      6  C   UNL     1       0.708  -0.131   0.364  0.00  0.00    +0.004 A 
ATOM      7  C   UNL     1       0.390   0.291   1.641  0.00  0.00    +0.005 A 
ATOM      8  C   UNL     1       0.134  -0.635   2.634  0.00  0.00    -0.029 A 
ATOM      9  C   UNL     1       0.198  -1.992   2.347  0.00  0.00    +0.041 A 
ATOM     10  C   UNL     1       0.513  -2.414   1.062  0.00  0.00    +0.027 A 
ATOM     11  C   UNL     1      -0.213  -0.173   4.026  0.00  0.00    +0.045 C 
ENDBRANCH   1   9
BRANCH   2  12
ATOM     12  C   UNL     1       2.295  -2.836   3.965  0.00  0.00    +0.116 A 
ATOM     13  C   UNL     1       3.462  -3.140   4.667  0.00  0.00    +0.076 A 
ATOM     14  C   UNL     1       4.580  -2.444   4.213  0.00  0.00    +0.155 A 
ATOM     15  N   UNL     1       4.455  -1.598   3.211  0.00  0.00    -0.203 NA
ATOM     16  S   UNL     1       2.896  -1.647   2.782  0.00  0.00    +0.019 S 
BRANCH  14  17
ATOM     17  C   UNL     1       5.894  -2.651   4.849  0.00  0.00    +0.262 C 
ATOM     18  O   UNL     1       6.025  -3.503   5.707  0.00  0.00    -0.269 OA
ATOM     19  N   UNL     1       6.948  -1.898   4.480  0.00  0.00    -0.324 N 
ATOM     20  H   UNL     1       6.843  -1.219   3.796  0.00  0.00    +0.145 HD
ATOM     21  H   UNL     1       7.812  -2.034   4.899  0.00  0.00    +0.145 HD
ENDBRANCH  14  17
BRANCH  13  22
ATOM     22  N   UNL     1       3.505  -4.049   5.715  0.00  0.00    -0.355 N 
ATOM     23  H   UNL     1       2.726  -4.590   5.921  0.00  0.00    +0.142 HD
ATOM     24  H   UNL     1       4.313  -4.143   6.243  0.00  0.00    +0.142 HD
ENDBRANCH  13  22
ENDBRANCH   2  12
BRANCH   1  25
ATOM     25  C   UNL     1      -1.416  -3.455   3.532  0.00  0.00    +0.233 C 
BRANCH  25  26
ATOM     26  C   UNL     1      -2.384  -2.308   3.662  0.00  0.00    +0.135 A 
ATOM     27  C   UNL     1      -3.283  -2.144   4.649  0.00  0.00    +0.047 A 
ATOM     28  C   UNL     1      -3.976  -0.942   4.378  0.00  0.00    +0.045 A 
ATOM     29  C   UNL     1      -3.459  -0.443   3.241  0.00  0.00    +0.102 A 
ATOM     30  O   UNL     1      -2.491  -1.271   2.816  0.00  0.00    -0.462 OA
ATOM     31  C   UNL     1      -3.888   0.833   2.564  0.00  0.00    +0.086 C 
ENDBRANCH  25  26
BRANCH  25  32
ATOM     32  C   UNL     1      -1.794  -4.299   2.342  0.00  0.00    +0.242 C 
ATOM     33  O   UNL     1      -0.978  -4.522   1.473  0.00  0.00    -0.273 OA
ATOM     34  N   UNL     1      -3.039  -4.805   2.243  0.00  0.00    -0.311 N 
ATOM     35  H   UNL     1      -3.692  -4.627   2.938  0.00  0.00    +0.149 HD
BRANCH  34  36
ATOM     36  C   UNL     1      -3.407  -5.625   1.086  0.00  0.00    +0.135 C 
BRANCH  36  37
ATOM     37  C   UNL     1      -4.865  -6.070   1.218  0.00  0.00    +0.135 C 
ATOM     38  C   UNL     1      -5.225  -7.033   0.066  0.00  0.00    +0.035 C 
ATOM     39  C   UNL     1      -6.671  -6.593  -0.290  0.00  0.00    +0.031 C 
ATOM     40  C   UNL     1      -6.590  -5.069  -0.023  0.00  0.00    +0.160 C 
ATOM     41  O   UNL     1      -5.731  -4.933   1.122  0.00  0.00    -0.375 OA
ENDBRANCH  36  37
ENDBRANCH  34  36
ENDBRANCH  25  32
ENDBRANCH   1  25
TORSDOF 9
