REMARK  Name = ZINC21722560
REMARK  10 active torsions:
REMARK  status: ('A' for Active; 'I' for Inactive)
REMARK    1  A    between atoms: C_1  and  C_2
REMARK    2  A    between atoms: C_4  and  C_34
REMARK    3  A    between atoms: C_8  and  C_28
REMARK    4  A    between atoms: C_10  and  S_11
REMARK    5  A    between atoms: S_11  and  C_12
REMARK    6  A    between atoms: C_12  and  C_14
REMARK    7  A    between atoms: C_12  and  C_15
REMARK    8  A    between atoms: N_17  and  C_18
REMARK    9  A    between atoms: C_21  and  S_24
REMARK   10  A    between atoms: S_24  and  N_27
REMARK                            x       y       z     vdW  Elec       q    Type
REMARK                         _______ _______ _______ _____ _____    ______ ____
ROOT
ATOM      1  S   UNL     1       0.312   2.167   0.336  0.00  0.00    -0.073 S 
ENDROOT
BRANCH   1  11
ATOM      2  C   UNL     1      -0.262  -4.099  -1.067  0.00  0.00    +0.046 C 
ATOM      3  C   UNL     1      -0.806  -2.697  -0.974  0.00  0.00    -0.021 A 
ATOM      4  C   UNL     1      -2.095  -2.430  -1.329  0.00  0.00    +0.030 A 
ATOM      5  C   UNL     1      -2.594  -1.121  -1.238  0.00  0.00    +0.059 A 
ATOM      6  N   UNL     1      -1.849  -0.140  -0.808  0.00  0.00    -0.169 NA
ATOM      7  N   UNL     1      -0.524  -0.368  -0.424  0.00  0.00    -0.206 N 
ATOM      8  C   UNL     1       0.001  -1.649  -0.506  0.00  0.00    +0.097 A 
ATOM      9  C   UNL     1       1.315  -1.564  -0.057  0.00  0.00    +0.100 A 
ATOM     10  N   UNL     1       1.543  -0.279   0.267  0.00  0.00    -0.220 NA
ATOM     11  C   UNL     1       0.462   0.435   0.050  0.00  0.00    +0.191 A 
ATOM     12  C   UNL     1      -4.019  -0.844  -1.645  0.00  0.00    +0.067 C 
BRANCH   9  13
ATOM     13  C   UNL     1       2.280  -2.679   0.045  0.00  0.00    +0.003 A 
ATOM     14  C   UNL     1       1.890  -3.896   0.607  0.00  0.00    +0.010 A 
ATOM     15  C   UNL     1       2.794  -4.934   0.693  0.00  0.00    +0.001 A 
ATOM     16  C   UNL     1       4.089  -4.767   0.236  0.00  0.00    +0.000 A 
ATOM     17  C   UNL     1       4.485  -3.562  -0.317  0.00  0.00    +0.001 A 
ATOM     18  C   UNL     1       3.589  -2.517  -0.415  0.00  0.00    +0.010 A 
ENDBRANCH   9  13
ENDBRANCH   1  11
BRANCH   1  19
ATOM     19  C   UNL     1       1.944   2.651   0.965  0.00  0.00    +0.137 C 
ATOM     20  C   UNL     1       2.191   1.973   2.314  0.00  0.00    +0.029 C 
BRANCH  19  21
ATOM     21  C   UNL     1       1.992   4.147   1.139  0.00  0.00    +0.230 C 
ATOM     22  O   UNL     1       0.967   4.771   1.313  0.00  0.00    -0.274 OA
ATOM     23  N   UNL     1       3.175   4.791   1.100  0.00  0.00    -0.285 N 
ATOM     24  H   UNL     1       4.095   4.239   0.858  0.00  0.00    +0.155 HD
BRANCH  23  25
ATOM     25  C   UNL     1       3.233   6.164   1.367  0.00  0.00    +0.034 A 
ATOM     26  C   UNL     1       4.171   6.959   0.721  0.00  0.00    +0.025 A 
ATOM     27  C   UNL     1       4.221   8.315   0.982  0.00  0.00    +0.030 A 
ATOM     28  C   UNL     1       3.348   8.877   1.894  0.00  0.00    +0.105 A 
ATOM     29  C   UNL     1       2.417   8.087   2.543  0.00  0.00    +0.030 A 
ATOM     30  C   UNL     1       2.357   6.732   2.282  0.00  0.00    +0.025 A 
BRANCH  28  31
ATOM     31  S   UNL     1       3.420  10.606   2.230  0.00  0.00    +0.056 S 
ATOM     32  O   UNL     1       4.013  11.216   1.092  0.00  0.00    -0.153 OA
ATOM     33  O   UNL     1       2.138  10.979   2.714  0.00  0.00    -0.153 OA
BRANCH  31  34
ATOM     34  N   UNL     1       4.480  10.816   3.485  0.00  0.00    -0.204 NA
ATOM     35  H   UNL     1       4.554  11.887   3.727  0.00  0.00    +0.144 HD
ATOM     36  H   UNL     1       5.471  10.436   3.196  0.00  0.00    +0.144 HD
ENDBRANCH  31  34
ENDBRANCH  28  31
ENDBRANCH  23  25
ENDBRANCH  19  21
ENDBRANCH   1  19
TORSDOF 7
