REMARK  Name = ZINC41071229
REMARK  5 active torsions:
REMARK  status: ('A' for Active; 'I' for Inactive)
REMARK    1  A    between atoms: C_3  and  C_20
REMARK    2  A    between atoms: C_6  and  N_7
REMARK    3  A    between atoms: N_7  and  S_8
REMARK    4  A    between atoms: S_8  and  C_11
REMARK    5  A    between atoms: N_17  and  N_18
REMARK                            x       y       z     vdW  Elec       q    Type
REMARK                         _______ _______ _______ _____ _____    ______ ____
ROOT
ATOM      1  S   UNL     1      -1.175  -2.370   0.001  0.00  0.00    +0.094 S 
ATOM      2  O   UNL     1      -0.631  -2.763  -1.252  0.00  0.00    -0.148 OA
ATOM      3  O   UNL     1      -0.607  -2.776   1.238  0.00  0.00    -0.148 OA
ENDROOT
BRANCH   1   4
ATOM      4  C   UNL     1      -2.852  -2.912   0.013  0.00  0.00    +0.146 A 
ATOM      5  C   UNL     1      -3.516  -3.130   1.210  0.00  0.00    +0.144 A 
ATOM      6  N   UNL     1      -4.774  -3.536   1.185  0.00  0.00    -0.220 NA
ATOM      7  C   UNL     1      -5.399  -3.734   0.033  0.00  0.00    +0.229 A 
ATOM      8  N   UNL     1      -4.793  -3.535  -1.128  0.00  0.00    -0.220 NA
ATOM      9  C   UNL     1      -3.537  -3.123  -1.173  0.00  0.00    +0.144 A 
ATOM     10  N   UNL     1      -6.716  -4.160   0.044  0.00  0.00    -0.252 N 
ATOM     11  H   UNL     1      -7.171  -4.309   0.887  0.00  0.00    +0.169 HD
BRANCH  10  12
ATOM     12  N   UNL     1      -7.375  -4.369  -1.134  0.00  0.00    -0.254 NA
ATOM     13  H   UNL     1      -8.323  -4.675  -0.969  0.00  0.00    +0.140 HD
ATOM     14  H   UNL     1      -7.359  -3.540  -1.710  0.00  0.00    +0.140 HD
ENDBRANCH  10  12
ENDBRANCH   1   4
BRANCH   1  15
ATOM     15  N   UNL     1      -1.195  -0.715   0.010  0.00  0.00    -0.098 NA
BRANCH  15  21
ATOM     16  C   UNL     1      -0.017   1.388   0.010  0.00  0.00    +0.028 A 
ATOM     17  C   UNL     1       1.164   2.094   0.002  0.00  0.00    +0.022 A 
ATOM     18  C   UNL     1       2.385   1.413  -0.013  0.00  0.00    +0.070 A 
ATOM     19  C   UNL     1       2.401   0.013  -0.021  0.00  0.00    +0.060 A 
ATOM     20  C   UNL     1       1.214  -0.687  -0.013  0.00  0.00    +0.048 A 
ATOM     21  C   UNL     1       0.002  -0.004   0.002  0.00  0.00    +0.076 A 
ATOM     22 CL   UNL     1       3.913  -0.839  -0.040  0.00  0.00    -0.082 Cl
BRANCH  18  23
ATOM     23  C   UNL     1       3.616   2.145  -0.021  0.00  0.00    +0.101 C 
ATOM     24  N   UNL     1       4.592   2.725  -0.028  0.00  0.00    -0.191 NA
ENDBRANCH  18  23
ENDBRANCH  15  21
ENDBRANCH   1  15
TORSDOF 5
