REMARK  Name = ZINC27538941
REMARK  6 active torsions:
REMARK  status: ('A' for Active; 'I' for Inactive)
REMARK    1  A    between atoms: C_1  and  C_2
REMARK    2  A    between atoms: C_2  and  C_4
REMARK    3  A    between atoms: C_2  and  N_19
REMARK    4  A    between atoms: N_6  and  C_7
REMARK    5  A    between atoms: C_8  and  C_17
REMARK    6  A    between atoms: C_25  and  C_27
REMARK                            x       y       z     vdW  Elec       q    Type
REMARK                         _______ _______ _______ _____ _____    ______ ____
ROOT
ATOM      1  N   UNL     1      -0.874   2.081   1.068  0.00  0.00    +0.389 N 
ATOM      2  C   UNL     1      -1.052   3.529   0.895  0.00  0.00    -0.058 C 
ATOM      3  C   UNL     1      -2.089   4.037   1.903  0.00  0.00    +0.089 C 
ATOM      4  N   UNL     1      -1.675   3.618   3.250  0.00  0.00    -0.302 N 
ATOM      5  C   UNL     1      -1.346   2.201   3.468  0.00  0.00    +0.089 C 
ATOM      6  C   UNL     1      -0.338   1.765   2.399  0.00  0.00    -0.058 C 
ATOM      7  C   UNL     1      -1.599   4.508   4.259  0.00  0.00    +0.260 C 
ATOM      8  O   UNL     1      -1.255   4.146   5.364  0.00  0.00    -0.271 OA
ATOM      9  H   UNL     1      -1.865   1.610   0.986  0.00  0.00    -0.081 HD
ENDROOT
BRANCH   7  10
ATOM     10  C   UNL     1      -1.940   5.956   4.013  0.00  0.00    +0.296 C 
ATOM     11  C   UNL     1      -3.433   6.086   3.682  0.00  0.00    +0.283 C 
ATOM     12  O   UNL     1      -3.725   7.471   3.469  0.00  0.00    -0.484 OA
ATOM     13  C   UNL     1      -3.227   8.349   4.382  0.00  0.00    +0.162 A 
ATOM     14  C   UNL     1      -3.752   9.631   4.450  0.00  0.00    +0.049 A 
ATOM     15  C   UNL     1      -3.254  10.535   5.369  0.00  0.00    +0.004 A 
ATOM     16  C   UNL     1      -2.231  10.164   6.223  0.00  0.00    +0.004 A 
ATOM     17  C   UNL     1      -1.705   8.888   6.160  0.00  0.00    +0.049 A 
ATOM     18  C   UNL     1      -2.201   7.976   5.241  0.00  0.00    +0.163 A 
ATOM     19  O   UNL     1      -1.674   6.721   5.194  0.00  0.00    -0.473 OA
ENDBRANCH   7  10
BRANCH   1  21
ATOM     20  C   UNL     1       1.443   1.873   0.302  0.00  0.00    -0.004 C 
ATOM     21  C   UNL     1      -0.019   1.526   0.010  0.00  0.00    +0.017 C 
BRANCH  21  22
ATOM     22  C   UNL     1      -0.180   0.028  -0.032  0.00  0.00    +0.204 C 
ATOM     23  O   UNL     1      -0.712  -0.551   0.892  0.00  0.00    -0.277 OA
ATOM     24  N   UNL     1       0.266  -0.668  -1.096  0.00  0.00    -0.280 N 
ATOM     25  H   UNL     1       0.748  -0.143  -1.934  0.00  0.00    +0.155 HD
BRANCH  24  26
ATOM     26  C   UNL     1       0.117  -2.048  -1.135  0.00  0.00    +0.090 A 
ATOM     27  C   UNL     1       0.507  -2.928  -2.130  0.00  0.00    +0.084 A 
ATOM     28  C   UNL     1       0.236  -4.345  -1.927  0.00  0.00    -0.018 A 
ATOM     29  C   UNL     1      -0.388  -4.644  -0.768  0.00  0.00    -0.004 A 
ATOM     30  S   UNL     1      -0.595  -3.087   0.054  0.00  0.00    -0.077 S 
ATOM     31  C   UNL     1      -0.812  -5.994  -0.277  0.00  0.00    +0.043 C 
ATOM     32  C   UNL     1       0.361  -6.973  -0.417  0.00  0.00    +0.005 C 
ATOM     33  C   UNL     1       0.293  -7.615  -1.799  0.00  0.00    +0.001 C 
ATOM     34  C   UNL     1      -0.272  -6.622  -2.812  0.00  0.00    +0.005 C 
ATOM     35  C   UNL     1       0.643  -5.409  -2.939  0.00  0.00    +0.037 C 
BRANCH  27  36
ATOM     36  C   UNL     1       1.153  -2.461  -3.320  0.00  0.00    +0.102 C 
ATOM     37  N   UNL     1       1.666  -2.091  -4.263  0.00  0.00    -0.191 NA
ENDBRANCH  27  36
ENDBRANCH  24  26
ENDBRANCH  21  22
ENDBRANCH   1  21
TORSDOF 5
