REMARK  Name = ZINC03365569
REMARK  7 active torsions:
REMARK  status: ('A' for Active; 'I' for Inactive)
REMARK    1  A    between atoms: C_6  and  C_7
REMARK    2  A    between atoms: C_10  and  S_13
REMARK    3  A    between atoms: N_11  and  N_12
REMARK    4  A    between atoms: S_13  and  C_14
REMARK    5  A    between atoms: C_14  and  C_15
REMARK    6  A    between atoms: N_17  and  C_18
REMARK    7  A    between atoms: C_19  and  C_27
REMARK                            x       y       z     vdW  Elec       q    Type
REMARK                         _______ _______ _______ _____ _____    ______ ____
ROOT
ATOM      1  C   UNL     1      -0.462   1.014   0.894  0.00  0.00    +0.228 C 
ATOM      2  O   UNL     1       0.642   1.516   0.911  0.00  0.00    -0.275 OA
ATOM      3  N   UNL     1      -0.600  -0.314   1.077  0.00  0.00    -0.279 N 
ATOM      4  H   UNL     1      -1.483  -0.716   1.064  0.00  0.00    +0.155 HD
ENDROOT
BRANCH   3   5
ATOM      5  C   UNL     1       0.519  -1.106   1.285  0.00  0.00    +0.084 A 
ATOM      6  C   UNL     1       0.579  -2.476   1.496  0.00  0.00    +0.068 A 
ATOM      7  C   UNL     1       1.891  -3.070   1.686  0.00  0.00    -0.023 A 
ATOM      8  C   UNL     1       2.926  -2.203   1.644  0.00  0.00    -0.004 A 
ATOM      9  S   UNL     1       2.182  -0.624   1.351  0.00  0.00    -0.077 S 
ATOM     10  C   UNL     1       4.380  -2.523   1.812  0.00  0.00    +0.043 C 
ATOM     11  C   UNL     1       4.499  -3.931   2.412  0.00  0.00    +0.005 C 
ATOM     12  C   UNL     1       3.589  -4.880   1.628  0.00  0.00    +0.005 C 
ATOM     13  C   UNL     1       2.123  -4.557   1.923  0.00  0.00    +0.037 C 
BRANCH   6  14
ATOM     14  C   UNL     1      -0.637  -3.295   1.524  0.00  0.00    +0.244 C 
ATOM     15  O   UNL     1      -1.059  -3.792   0.496  0.00  0.00    -0.270 OA
ATOM     16  N   UNL     1      -1.288  -3.497   2.687  0.00  0.00    -0.325 N 
ATOM     17  H   UNL     1      -0.951  -3.101   3.506  0.00  0.00    +0.145 HD
ATOM     18  H   UNL     1      -2.092  -4.039   2.704  0.00  0.00    +0.145 HD
ENDBRANCH   6  14
ENDBRANCH   3   5
BRANCH   1  19
ATOM     19  C   UNL     1      -1.677   1.873   0.662  0.00  0.00    +0.173 C 
BRANCH  19  20
ATOM     20  S   UNL     1      -1.167   3.597   0.453  0.00  0.00    -0.075 S 
BRANCH  20  24
ATOM     21  C   UNL     1      -4.337   5.801  -0.147  0.00  0.00    +0.182 A 
ATOM     22  N   UNL     1      -4.844   4.597  -0.014  0.00  0.00    -0.127 NA
ATOM     23  N   UNL     1      -3.903   3.745   0.188  0.00  0.00    -0.121 NA
ATOM     24  C   UNL     1      -2.738   4.354   0.205  0.00  0.00    +0.209 A 
ATOM     25  N   UNL     1      -2.973   5.682  -0.010  0.00  0.00    -0.224 N 
BRANCH  21  31
ATOM     26  C   UNL     1      -6.466   7.093  -0.168  0.00  0.00    +0.013 A 
ATOM     27  C   UNL     1      -7.162   8.262  -0.398  0.00  0.00    +0.021 A 
ATOM     28  C   UNL     1      -6.500   9.386  -0.864  0.00  0.00    +0.041 A 
ATOM     29  C   UNL     1      -5.136   9.345  -1.097  0.00  0.00    +0.021 A 
ATOM     30  C   UNL     1      -4.428   8.184  -0.866  0.00  0.00    +0.013 A 
ATOM     31  C   UNL     1      -5.090   7.048  -0.396  0.00  0.00    +0.021 A 
ATOM     32 CL   UNL     1      -7.385  10.850  -1.158  0.00  0.00    -0.084 Cl
ENDBRANCH  21  31
BRANCH  25  33
ATOM     33  N   UNL     1      -2.047   6.684  -0.077  0.00  0.00    -0.295 N 
ATOM     34  H   UNL     1      -1.788   6.875  -1.033  0.00  0.00    +0.163 HD
ATOM     35  H   UNL     1      -2.383   7.518   0.380  0.00  0.00    +0.163 HD
ENDBRANCH  25  33
ENDBRANCH  20  24
ENDBRANCH  19  20
ENDBRANCH   1  19
TORSDOF 7
