REMARK  Name = ZINC13058734
REMARK  16 active torsions:
REMARK  status: ('A' for Active; 'I' for Inactive)
REMARK    1  A    between atoms: C_1  and  C_2
REMARK    2  A    between atoms: C_2  and  C_19
REMARK    3  A    between atoms: N_3  and  N_4
REMARK    4  A    between atoms: C_5  and  C_7
REMARK    5  A    between atoms: C_7  and  O_8
REMARK    6  A    between atoms: O_8  and  C_9
REMARK    7  A    between atoms: C_12  and  C_15
REMARK    8  A    between atoms: C_15  and  C_16
REMARK    9  A    between atoms: C_15  and  C_17
REMARK   10  A    between atoms: C_15  and  C_18
REMARK   11  A    between atoms: C_22  and  S_25
REMARK   12  A    between atoms: S_25  and  N_28
REMARK   13  A    between atoms: N_28  and  C_29
REMARK   14  A    between atoms: C_29  and  C_30
REMARK   15  A    between atoms: C_30  and  C_31
REMARK   16  A    between atoms: C_31  and  C_32
REMARK                            x       y       z     vdW  Elec       q    Type
REMARK                         _______ _______ _______ _____ _____    ______ ____
ROOT
ATOM      1  C   UNL     1       2.345  -0.458  -0.023  0.00  0.00    +0.068 C 
ATOM      2  C   UNL     1       2.325   1.049  -0.015  0.00  0.00    +0.063 C 
ATOM      3  N   UNL     1       1.193   1.683  -0.000  0.00  0.00    -0.184 NA
ENDROOT
BRANCH   2   4
ATOM      4  C   UNL     1       3.592   1.804  -0.022  0.00  0.00    -0.002 A 
ATOM      5  C   UNL     1       4.813   1.125  -0.032  0.00  0.00    +0.011 A 
ATOM      6  C   UNL     1       5.994   1.838  -0.045  0.00  0.00    +0.029 A 
ATOM      7  C   UNL     1       5.971   3.221  -0.037  0.00  0.00    +0.105 A 
ATOM      8  C   UNL     1       4.766   3.900  -0.022  0.00  0.00    +0.029 A 
ATOM      9  C   UNL     1       3.577   3.201  -0.015  0.00  0.00    +0.011 A 
BRANCH   7  10
ATOM     10  S   UNL     1       7.485   4.123  -0.047  0.00  0.00    +0.058 S 
ATOM     11  O   UNL     1       8.466   3.264  -0.612  0.00  0.00    -0.153 OA
ATOM     12  O   UNL     1       7.191   5.404  -0.589  0.00  0.00    -0.153 OA
BRANCH  10  13
ATOM     13  N   UNL     1       7.921   4.366   1.532  0.00  0.00    -0.190 NA
ATOM     14  H   UNL     1       7.950   5.265   1.894  0.00  0.00    +0.148 HD
BRANCH  13  15
ATOM     15  C   UNL     1       8.264   3.222   2.381  0.00  0.00    +0.106 C 
BRANCH  15  16
ATOM     16  C   UNL     1       8.976   3.718   3.641  0.00  0.00    +0.028 C 
BRANCH  16  17
ATOM     17  C   UNL     1       9.334   2.524   4.528  0.00  0.00    +0.126 C 
BRANCH  17  18
ATOM     18  C   UNL     1      10.036   3.012   5.769  0.00  0.00    +0.356 C 
ATOM     19  O   UNL     1      10.229   4.194   5.928  0.00  0.00    -0.246 OA
ATOM     20  O   UNL     1      10.445   2.134   6.698  0.00  0.00    -0.246 OA
ENDBRANCH  17  18
ENDBRANCH  16  17
ENDBRANCH  15  16
ENDBRANCH  13  15
ENDBRANCH  10  13
ENDBRANCH   7  10
ENDBRANCH   2   4
BRANCH   3  21
ATOM     21  N   UNL     1      -0.011   0.966   0.007  0.00  0.00    -0.204 N 
ATOM     22  C   UNL     1      -1.187   1.624   0.017  0.00  0.00    +0.270 C 
ATOM     23  O   UNL     1      -1.204   2.837   0.023  0.00  0.00    -0.270 OA
ATOM     24  H   UNL     1       0.002  -0.004   0.002  0.00  0.00    +0.177 HD
BRANCH  22  25
ATOM     25  C   UNL     1      -2.482   0.853   0.018  0.00  0.00    +0.326 C 
BRANCH  25  26
ATOM     26  O   UNL     1      -3.581   1.766   0.029  0.00  0.00    -0.483 OA
BRANCH  26  27
ATOM     27  C   UNL     1      -4.829   1.230   0.032  0.00  0.00    +0.121 A 
ATOM     28  C   UNL     1      -4.994  -0.148   0.019  0.00  0.00    +0.046 A 
ATOM     29  C   UNL     1      -6.264  -0.690   0.029  0.00  0.00    +0.008 A 
ATOM     30  C   UNL     1      -7.371   0.138   0.038  0.00  0.00    -0.042 A 
ATOM     31  C   UNL     1      -7.210   1.511   0.044  0.00  0.00    +0.008 A 
ATOM     32  C   UNL     1      -5.942   2.059   0.041  0.00  0.00    +0.046 A 
BRANCH  30  33
ATOM     33  C   UNL     1      -8.756  -0.457   0.041  0.00  0.00    -0.013 C 
ATOM     34  C   UNL     1      -9.515   0.011  -1.202  0.00  0.00    +0.015 C 
ATOM     35  C   UNL     1      -8.655  -1.984   0.033  0.00  0.00    +0.015 C 
ATOM     36  C   UNL     1      -9.503  -0.002   1.296  0.00  0.00    +0.015 C 
ENDBRANCH  30  33
ENDBRANCH  26  27
ENDBRANCH  25  26
ENDBRANCH  22  25
ENDBRANCH   3  21
TORSDOF 12
