REMARK  Name = ZINC58867332
REMARK  9 active torsions:
REMARK  status: ('A' for Active; 'I' for Inactive)
REMARK    1  A    between atoms: C_3  and  N_35
REMARK    2  A    between atoms: C_6  and  C_7
REMARK    3  A    between atoms: C_8  and  C_9
REMARK    4  A    between atoms: N_11  and  C_12
REMARK    5  A    between atoms: C_15  and  C_32
REMARK    6  A    between atoms: C_17  and  N_18
REMARK    7  A    between atoms: C_19  and  C_21
REMARK    8  A    between atoms: C_22  and  C_23
REMARK    9  A    between atoms: C_26  and  N_29
REMARK                            x       y       z     vdW  Elec       q    Type
REMARK                         _______ _______ _______ _____ _____    ______ ____
ROOT
ATOM      1  C   UNL     1      -3.641  -4.976   0.115  0.00  0.00    +0.055 A 
ATOM      2  C   UNL     1      -4.885  -4.354   0.128  0.00  0.00    +0.026 A 
ATOM      3  C   UNL     1      -6.034  -5.106   0.228  0.00  0.00    +0.017 A 
ATOM      4  C   UNL     1      -5.953  -6.500   0.317  0.00  0.00    +0.065 A 
ATOM      5  C   UNL     1      -4.703  -7.128   0.304  0.00  0.00    +0.040 A 
ATOM      6  C   UNL     1      -3.553  -6.368   0.198  0.00  0.00    +0.056 A 
ENDROOT
BRANCH   1   9
ATOM      7  C   UNL     1      -2.422  -2.997   0.599  0.00  0.00    +0.241 C 
ATOM      8  O   UNL     1      -3.407  -2.535   1.145  0.00  0.00    -0.270 OA
ATOM      9  N   UNL     1      -2.482  -4.210   0.014  0.00  0.00    -0.280 N 
ATOM     10  H   UNL     1      -1.718  -4.549  -0.478  0.00  0.00    +0.155 HD
BRANCH   7  12
ATOM     11  C   UNL     1      -1.113  -1.021   1.161  0.00  0.00    +0.013 C 
ATOM     12  C   UNL     1      -1.173  -2.235   0.577  0.00  0.00    +0.068 C 
BRANCH  11  18
ATOM     13  C   UNL     1       0.209   1.004   1.745  0.00  0.00    +0.010 A 
ATOM     14  C   UNL     1       1.390   1.716   1.720  0.00  0.00    +0.033 A 
ATOM     15  C   UNL     1       2.508   1.188   1.098  0.00  0.00    +0.126 A 
ATOM     16  C   UNL     1       2.450  -0.057   0.496  0.00  0.00    +0.033 A 
ATOM     17  C   UNL     1       1.277  -0.781   0.512  0.00  0.00    +0.010 A 
ATOM     18  C   UNL     1       0.143  -0.255   1.139  0.00  0.00    -0.025 A 
BRANCH  15  19
ATOM     19  N   UNL     1       3.771   1.959   1.076  0.00  0.00    +0.056 N 
ATOM     20  O   UNL     1       3.825   3.047   1.600  0.00  0.00    -0.126 OA
ATOM     21  O   UNL     1       4.749   1.501   0.533  0.00  0.00    -0.126 OA
ENDBRANCH  15  19
ENDBRANCH  11  18
ENDBRANCH   7  12
ENDBRANCH   1   9
BRANCH   6  22
ATOM     22  N   UNL     1      -2.300  -6.993   0.180  0.00  0.00    -0.280 N 
ATOM     23  C   UNL     1      -2.154  -8.194  -0.414  0.00  0.00    +0.241 C 
ATOM     24  O   UNL     1      -3.126  -8.773  -0.861  0.00  0.00    -0.270 OA
ATOM     25  H   UNL     1      -1.537  -6.561   0.595  0.00  0.00    +0.155 HD
BRANCH  23  26
ATOM     26  C   UNL     1      -0.826  -8.801  -0.520  0.00  0.00    +0.068 C 
ATOM     27  C   UNL     1      -0.681 -10.003  -1.114  0.00  0.00    +0.013 C 
BRANCH  27  28
ATOM     28  C   UNL     1       0.654 -10.614  -1.221  0.00  0.00    -0.025 A 
ATOM     29  C   UNL     1       1.773  -9.954  -0.703  0.00  0.00    +0.010 A 
ATOM     30  C   UNL     1       3.020 -10.533  -0.807  0.00  0.00    +0.033 A 
ATOM     31  C   UNL     1       3.167 -11.763  -1.423  0.00  0.00    +0.126 A 
ATOM     32  C   UNL     1       2.064 -12.423  -1.938  0.00  0.00    +0.033 A 
ATOM     33  C   UNL     1       0.810 -11.860  -1.837  0.00  0.00    +0.010 A 
BRANCH  31  34
ATOM     34  N   UNL     1       4.509 -12.377  -1.531  0.00  0.00    +0.056 N 
ATOM     35  O   UNL     1       5.474 -11.804  -1.082  0.00  0.00    -0.126 OA
ATOM     36  O   UNL     1       4.640 -13.453  -2.068  0.00  0.00    -0.126 OA
ENDBRANCH  31  34
ENDBRANCH  27  28
ENDBRANCH  23  26
ENDBRANCH   6  22
BRANCH   4  37
ATOM     37  C   UNL     1      -7.181  -7.305   0.425  0.00  0.00    +0.387 C 
ATOM     38  O   UNL     1      -8.273  -6.755   0.437  0.00  0.00    -0.241 OA
ATOM     39  O   UNL     1      -7.109  -8.524   0.503  0.00  0.00    -0.241 OA
ENDBRANCH   4  37
TORSDOF 9
