REMARK  Name = ZINC47240924
REMARK  3 active torsions:
REMARK  status: ('A' for Active; 'I' for Inactive)
REMARK    1  A    between atoms: C_3  and  N_9
REMARK    2  A    between atoms: C_10  and  C_12
REMARK    3  A    between atoms: C_15  and  N_17
REMARK                            x       y       z     vdW  Elec       q    Type
REMARK                         _______ _______ _______ _____ _____    ______ ____
ROOT
ATOM      1  N   UNL     1       3.584   2.126  -0.021  0.00  0.00    -0.284 N 
ATOM      2  C   UNL     1       3.568   3.470  -0.116  0.00  0.00    +0.223 C 
ATOM      3  O   UNL     1       2.512   4.067  -0.103  0.00  0.00    -0.275 OA
ATOM      4  H   UNL     1       4.429   1.655   0.049  0.00  0.00    +0.155 HD
ENDROOT
BRANCH   1   7
ATOM      5  C   UNL     1       0.065   1.243  -0.620  0.00  0.00    +0.017 A 
ATOM      6  C   UNL     1       1.250   1.952  -0.618  0.00  0.00    +0.025 A 
ATOM      7  C   UNL     1       2.381   1.410  -0.024  0.00  0.00    +0.048 A 
ATOM      8  C   UNL     1       2.318   0.154   0.567  0.00  0.00    +0.040 A 
ATOM      9  C   UNL     1       1.129  -0.551   0.562  0.00  0.00    +0.032 A 
ATOM     10  C   UNL     1       0.004  -0.007  -0.031  0.00  0.00    +0.019 A 
ATOM     11 BR   UNL     1      -1.621  -0.974  -0.036  0.00  0.00    -0.050 Br
ATOM     12 BR   UNL     1       3.856  -0.590   1.378  0.00  0.00    -0.048 Br
ENDBRANCH   1   7
BRANCH   2  13
ATOM     13  C   UNL     1       4.862   4.233  -0.238  0.00  0.00    +0.107 C 
ATOM     14  C   UNL     1       5.285   5.103   0.947  0.00  0.00    +0.047 C 
ATOM     15  C   UNL     1       4.777   5.757  -0.340  0.00  0.00    +0.182 C 
BRANCH  15  16
ATOM     16  N   UNL     1       5.762   6.434  -1.188  0.00  0.00    +0.026 N 
ATOM     17  O   UNL     1       5.394   7.097  -2.130  0.00  0.00    -0.131 OA
ATOM     18  O   UNL     1       6.942   6.330  -0.945  0.00  0.00    -0.131 OA
ENDBRANCH  15  16
ENDBRANCH   2  13
TORSDOF 3
