REMARK  Name = ZINC39359435
REMARK  6 active torsions:
REMARK  status: ('A' for Active; 'I' for Inactive)
REMARK    1  A    between atoms: C_1  and  C_2
REMARK    2  A    between atoms: C_5  and  N_8
REMARK    3  A    between atoms: C_13  and  C_16
REMARK    4  A    between atoms: C_17  and  C_29
REMARK    5  A    between atoms: C_23  and  C_27
REMARK    6  A    between atoms: C_23  and  C_28
REMARK                            x       y       z     vdW  Elec       q    Type
REMARK                         _______ _______ _______ _____ _____    ______ ____
ROOT
ATOM      1  N   UNL     1       0.029  -3.776  -1.130  0.00  0.00    -0.246 N 
ATOM      2  C   UNL     1      -0.139  -4.840  -0.141  0.00  0.00    +0.179 C 
ATOM      3  C   UNL     1       0.876  -5.924  -0.576  0.00  0.00    +0.058 C 
ATOM      4  C   UNL     1       0.730  -5.771  -2.124  0.00  0.00    +0.077 C 
ATOM      5  N   UNL     1       0.515  -4.315  -2.294  0.00  0.00    -0.235 NA
ATOM      6  C   UNL     1       2.005  -6.224  -2.836  0.00  0.00    +0.026 C 
ATOM      7  C   UNL     1       2.290  -5.473  -0.213  0.00  0.00    +0.078 C 
ATOM      8  C   UNL     1       2.381  -4.914   1.180  0.00  0.00    +0.019 C 
ATOM      9  C   UNL     1       1.300  -4.411   1.812  0.00  0.00    +0.013 C 
ATOM     10  N   UNL     1       0.101  -4.431   1.221  0.00  0.00    -0.327 N 
ATOM     11  C   UNL     1       1.420  -3.798   3.187  0.00  0.00    +0.057 C 
ATOM     12  C   UNL     1       2.515  -4.521   3.975  0.00  0.00    -0.023 C 
ATOM     13  C   UNL     1       3.830  -4.397   3.200  0.00  0.00    +0.086 C 
ATOM     14  C   UNL     1       3.638  -4.936   1.810  0.00  0.00    +0.162 C 
ATOM     15  O   UNL     1       4.591  -5.401   1.217  0.00  0.00    -0.292 OA
ATOM     16  C   UNL     1       2.667  -3.878   5.355  0.00  0.00    +0.011 C 
ATOM     17  C   UNL     1       2.147  -5.998   4.131  0.00  0.00    +0.011 C 
ATOM     18  H   UNL     1       1.368  -3.856  -2.577  0.00  0.00    +0.145 HD
ATOM     19  H   UNL     1      -0.657  -4.167   1.766  0.00  0.00    +0.148 HD
ENDROOT
BRANCH   1  24
ATOM     20  C   UNL     1      -1.160   1.704  -0.292  0.00  0.00    +0.044 C 
ATOM     21  C   UNL     1      -0.844   0.248  -0.515  0.00  0.00    -0.050 A 
ATOM     22  C   UNL     1      -1.749  -0.722  -0.125  0.00  0.00    +0.005 A 
ATOM     23  C   UNL     1      -1.463  -2.058  -0.328  0.00  0.00    +0.025 A 
ATOM     24  C   UNL     1      -0.264  -2.426  -0.924  0.00  0.00    +0.046 A 
ATOM     25  C   UNL     1       0.644  -1.450  -1.315  0.00  0.00    +0.025 A 
ATOM     26  C   UNL     1       0.348  -0.116  -1.114  0.00  0.00    +0.005 A 
ENDBRANCH   1  24
BRANCH   7  27
ATOM     27  C   UNL     1       3.236  -6.670  -0.326  0.00  0.00    +0.228 C 
ATOM     28  N   UNL     1       2.663  -7.684  -1.220  0.00  0.00    -0.263 NA
ATOM     29  C   UNL     1       2.506  -8.761  -0.526  0.00  0.00    +0.126 C 
ATOM     30  C   UNL     1       2.959  -8.534   0.855  0.00  0.00    +0.126 C 
ATOM     31  N   UNL     1       3.385  -7.322   0.982  0.00  0.00    -0.263 NA
ENDBRANCH   7  27
TORSDOF 2
