REMARK  Name = ZINC38648656
REMARK  3 active torsions:
REMARK  status: ('A' for Active; 'I' for Inactive)
REMARK    1  A    between atoms: C_3  and  N_32
REMARK    2  A    between atoms: C_6  and  C_7
REMARK    3  A    between atoms: N_22  and  C_23
REMARK                            x       y       z     vdW  Elec       q    Type
REMARK                         _______ _______ _______ _____ _____    ______ ____
ROOT
ATOM      1  C   UNL     1      -1.293  -0.775   0.010  0.00  0.00    +0.145 C 
ATOM      2  C   UNL     1      -1.567  -1.306   1.379  0.00  0.00    +0.072 A 
ATOM      3  C   UNL     1      -1.761  -0.620   2.660  0.00  0.00    +0.199 A 
ATOM      4  O   UNL     1      -1.893   0.587   2.758  0.00  0.00    -0.287 OA
ATOM      5  C   UNL     1      -1.781  -1.537   3.828  0.00  0.00    +0.066 A 
ATOM      6  C   UNL     1      -1.756  -1.027   5.126  0.00  0.00    +0.035 A 
ATOM      7  C   UNL     1      -1.770  -1.893   6.198  0.00  0.00    +0.042 A 
ATOM      8  C   UNL     1      -1.807  -3.265   5.984  0.00  0.00    +0.023 A 
ATOM      9  C   UNL     1      -1.833  -3.778   4.707  0.00  0.00    +0.048 A 
ATOM     10  C   UNL     1      -1.823  -2.923   3.606  0.00  0.00    +0.140 A 
ATOM     11  O   UNL     1      -1.859  -3.454   2.362  0.00  0.00    -0.450 OA
ATOM     12  C   UNL     1      -1.620  -2.668   1.294  0.00  0.00    +0.199 A 
ATOM     13  C   UNL     1      -1.378  -3.054  -0.107  0.00  0.00    +0.283 C 
ATOM     14  O   UNL     1      -1.354  -4.197  -0.520  0.00  0.00    -0.267 OA
ATOM     15  N   UNL     1      -1.187  -1.954  -0.866  0.00  0.00    -0.279 N 
ATOM     16 CL   UNL     1      -1.740  -1.268   7.818  0.00  0.00    -0.084 Cl
ENDROOT
BRANCH  15  17
ATOM     17  C   UNL     1      -0.923  -1.935  -2.306  0.00  0.00    +0.100 C 
ATOM     18  C   UNL     1      -2.075  -2.624  -3.055  0.00  0.00    +0.047 C 
ATOM     19  C   UNL     1      -1.665  -2.894  -4.523  0.00  0.00    +0.168 C 
ATOM     20  S   UNL     1       0.163  -3.066  -4.405  0.00  0.00    -0.029 S 
ATOM     21  O   UNL     1       0.774  -2.027  -5.159  0.00  0.00    -0.174 OA
ATOM     22  O   UNL     1       0.518  -4.417  -4.662  0.00  0.00    -0.174 OA
ATOM     23  C   UNL     1       0.387  -2.716  -2.611  0.00  0.00    +0.188 C 
ENDBRANCH  15  17
BRANCH   1  29
ATOM     24  C   UNL     1      -0.017   1.378   0.010  0.00  0.00    +0.008 A 
ATOM     25  C   UNL     1       1.171   2.086   0.002  0.00  0.00    +0.033 A 
ATOM     26  C   UNL     1       2.377   1.411  -0.013  0.00  0.00    +0.126 A 
ATOM     27  C   UNL     1       2.396   0.029  -0.020  0.00  0.00    +0.033 A 
ATOM     28  C   UNL     1       1.208  -0.679  -0.012  0.00  0.00    +0.008 A 
ATOM     29  C   UNL     1       0.002  -0.004   0.002  0.00  0.00    -0.022 A 
BRANCH  26  30
ATOM     30  N   UNL     1       3.649   2.168  -0.022  0.00  0.00    +0.056 N 
ATOM     31  O   UNL     1       3.633   3.377  -0.016  0.00  0.00    -0.126 OA
ATOM     32  O   UNL     1       4.704   1.578  -0.035  0.00  0.00    -0.126 OA
ENDBRANCH  26  30
ENDBRANCH   1  29
TORSDOF 3
