REMARK  Name = ZINC09556255
REMARK  3 active torsions:
REMARK  status: ('A' for Active; 'I' for Inactive)
REMARK    1  A    between atoms: C_1  and  C_2
REMARK    2  A    between atoms: C_5  and  C_8
REMARK    3  A    between atoms: C_11  and  C_31
REMARK                            x       y       z     vdW  Elec       q    Type
REMARK                         _______ _______ _______ _____ _____    ______ ____
ROOT
ATOM      1  C   UNL     1       0.059  -4.275  -0.021  0.00  0.00    +0.147 C 
ATOM      2  C   UNL     1       1.311  -4.782   0.706  0.00  0.00    +0.087 C 
ATOM      3  C   UNL     1       1.162  -6.225   1.096  0.00  0.00    +0.055 C 
ATOM      4  N   UNL     1       0.015  -6.747   1.438  0.00  0.00    -0.215 NA
ATOM      5  C   UNL     1      -1.101  -5.974   1.371  0.00  0.00    +0.251 A 
ATOM      6  N   UNL     1      -1.114  -4.789   0.685  0.00  0.00    -0.220 N 
ATOM      7  N   UNL     1      -2.393  -4.261   0.821  0.00  0.00    -0.131 NA
ATOM      8  C   UNL     1      -3.085  -5.122   1.538  0.00  0.00    +0.252 A 
ATOM      9  N   UNL     1      -2.303  -6.160   1.859  0.00  0.00    -0.175 NA
ATOM     10  N   UNL     1      -4.428  -4.974   1.907  0.00  0.00    -0.176 N 
ATOM     11  C   UNL     1      -5.175  -3.910   1.555  0.00  0.00    +0.233 C 
ATOM     12  O   UNL     1      -4.883  -3.066   0.735  0.00  0.00    -0.274 OA
ATOM     13  C   UNL     1      -6.468  -3.966   2.385  0.00  0.00    +0.092 C 
ATOM     14  C   UNL     1      -6.136  -3.214   3.677  0.00  0.00    +0.040 C 
ATOM     15  C   UNL     1      -6.813  -3.778   4.878  0.00  0.00    -0.030 C 
ATOM     16  C   UNL     1      -7.335  -4.957   4.947  0.00  0.00    -0.030 C 
ATOM     17  C   UNL     1      -7.373  -5.907   3.792  0.00  0.00    +0.040 C 
ATOM     18  C   UNL     1      -6.540  -5.484   2.617  0.00  0.00    +0.092 C 
ATOM     19  C   UNL     1      -5.095  -5.890   2.646  0.00  0.00    +0.233 C 
ATOM     20  O   UNL     1      -4.621  -6.846   3.219  0.00  0.00    -0.274 OA
ENDROOT
BRANCH   1  25
ATOM     21  C   UNL     1      -0.018   1.503   0.010  0.00  0.00    +0.044 C 
ATOM     22  C   UNL     1       0.002  -0.004   0.002  0.00  0.00    -0.050 A 
ATOM     23  C   UNL     1       0.006  -0.689  -1.199  0.00  0.00    +0.004 A 
ATOM     24  C   UNL     1       0.025  -2.071  -1.206  0.00  0.00    +0.006 A 
ATOM     25  C   UNL     1       0.040  -2.768  -0.013  0.00  0.00    -0.023 A 
ATOM     26  C   UNL     1       0.037  -2.084   1.188  0.00  0.00    +0.006 A 
ATOM     27  C   UNL     1       0.023  -0.702   1.195  0.00  0.00    +0.004 A 
ENDBRANCH   1  25
BRANCH   3  28
ATOM     28  C   UNL     1       2.356  -7.085   1.091  0.00  0.00    -0.003 A 
ATOM     29  C   UNL     1       3.601  -6.556   0.735  0.00  0.00    +0.011 A 
ATOM     30  C   UNL     1       4.716  -7.367   0.732  0.00  0.00    +0.020 A 
ATOM     31  C   UNL     1       4.605  -8.703   1.082  0.00  0.00    +0.041 A 
ATOM     32  C   UNL     1       3.375  -9.234   1.436  0.00  0.00    +0.020 A 
ATOM     33  C   UNL     1       2.253  -8.433   1.449  0.00  0.00    +0.011 A 
ATOM     34 CL   UNL     1       6.013  -9.717   1.076  0.00  0.00    -0.084 Cl
ENDBRANCH   3  28
TORSDOF 2
