REMARK  Name = ZINC34835908
REMARK  12 active torsions:
REMARK  status: ('A' for Active; 'I' for Inactive)
REMARK    1  A    between atoms: C_1  and  C_2
REMARK    2  A    between atoms: C_2  and  C_3
REMARK    3  A    between atoms: C_3  and  N_4
REMARK    4  A    between atoms: N_4  and  C_5
REMARK    5  A    between atoms: N_4  and  S_27
REMARK    6  A    between atoms: C_5  and  C_6
REMARK    7  A    between atoms: C_7  and  C_26
REMARK    8  A    between atoms: N_9  and  C_19
REMARK    9  A    between atoms: C_10  and  N_11
REMARK   10  A    between atoms: N_14  and  C_17
REMARK   11  A    between atoms: C_17  and  C_18
REMARK   12  A    between atoms: S_27  and  C_30
REMARK                            x       y       z     vdW  Elec       q    Type
REMARK                         _______ _______ _______ _____ _____    ______ ____
ROOT
ATOM      1  C   UNL     1      -2.831  -2.719   2.209  0.00  0.00    +0.031 A 
ATOM      2  C   UNL     1      -3.349  -1.515   2.697  0.00  0.00    +0.067 A 
ATOM      3  N   UNL     1      -4.655  -1.569   2.632  0.00  0.00    -0.170 NA
ATOM      4  N   UNL     1      -5.021  -2.812   2.099  0.00  0.00    -0.218 N 
ATOM      5  C   UNL     1      -3.879  -3.506   1.840  0.00  0.00    +0.129 A 
ATOM      6  C   UNL     1      -2.541  -0.352   3.210  0.00  0.00    +0.068 C 
ENDROOT
BRANCH   5   7
ATOM      7  N   UNL     1      -3.798  -4.786   1.300  0.00  0.00    -0.318 N 
ATOM      8  C   UNL     1      -3.609  -5.961   2.164  0.00  0.00    +0.088 C 
ATOM      9  C   UNL     1      -4.666  -7.008   1.797  0.00  0.00    -0.060 C 
ATOM     10  N   UNL     1      -4.591  -7.295   0.359  0.00  0.00    +0.382 N 
ATOM     11  C   UNL     1      -4.942  -6.094  -0.409  0.00  0.00    -0.060 C 
ATOM     12  C   UNL     1      -3.905  -5.002  -0.151  0.00  0.00    +0.088 C 
ATOM     13  H   UNL     1      -3.653  -7.582   0.123  0.00  0.00    -0.082 HD
BRANCH  10  14
ATOM     14  C   UNL     1      -5.528  -8.377   0.028  0.00  0.00    -0.082 C 
ATOM     15  C   UNL     1      -5.362  -8.762  -1.443  0.00  0.00    -0.017 C 
ENDBRANCH  10  14
ENDBRANCH   5   7
BRANCH   4  16
ATOM     16  C   UNL     1      -6.330  -3.259   1.869  0.00  0.00    +0.070 A 
ATOM     17  C   UNL     1      -6.711  -3.672   0.599  0.00  0.00    +0.028 A 
ATOM     18  C   UNL     1      -8.000  -4.113   0.374  0.00  0.00    +0.005 A 
ATOM     19  C   UNL     1      -8.913  -4.144   1.413  0.00  0.00    +0.038 A 
ATOM     20  C   UNL     1      -8.537  -3.733   2.681  0.00  0.00    +0.125 A 
ATOM     21  C   UNL     1      -7.245  -3.296   2.912  0.00  0.00    +0.066 A 
ATOM     22  F   UNL     1      -9.431  -3.765   3.693  0.00  0.00    -0.205 F 
ENDBRANCH   4  16
BRANCH   1  23
ATOM     23  C   UNL     1      -1.372  -3.079   2.105  0.00  0.00    +0.149 C 
BRANCH  23  24
ATOM     24  N   UNL     1      -0.821  -2.533   0.862  0.00  0.00    -0.172 NA
BRANCH  24  25
ATOM     25  S   UNL     1      -0.280  -3.554  -0.323  0.00  0.00    +0.061 S 
ATOM     26  O   UNL     1      -0.836  -4.832  -0.043  0.00  0.00    -0.153 OA
ATOM     27  O   UNL     1      -0.488  -2.888  -1.560  0.00  0.00    -0.153 OA
BRANCH  25  28
ATOM     28  C   UNL     1       1.463  -3.709  -0.121  0.00  0.00    +0.106 A 
ATOM     29  C   UNL     1       2.314  -2.832  -0.767  0.00  0.00    +0.031 A 
ATOM     30  C   UNL     1       3.682  -2.952  -0.610  0.00  0.00    +0.040 A 
ATOM     31  C   UNL     1       4.200  -3.951   0.196  0.00  0.00    +0.124 A 
ATOM     32  C   UNL     1       3.347  -4.830   0.843  0.00  0.00    +0.040 A 
ATOM     33  C   UNL     1       1.980  -4.705   0.687  0.00  0.00    +0.031 A 
ATOM     34  F   UNL     1       5.537  -4.070   0.351  0.00  0.00    -0.205 F 
ENDBRANCH  25  28
ENDBRANCH  24  25
BRANCH  24  35
ATOM     35  C   UNL     1      -0.750  -1.082   0.668  0.00  0.00    +0.109 C 
BRANCH  35  37
ATOM     36  C   UNL     1       0.610   0.969   1.097  0.00  0.00    +0.005 C 
ATOM     37  C   UNL     1       0.535  -0.545   1.300  0.00  0.00    +0.014 C 
ENDBRANCH  35  37
ENDBRANCH  24  35
ENDBRANCH  23  24
ENDBRANCH   1  23
TORSDOF 9
