REMARK  Name = ZINC63104321
REMARK  3 active torsions:
REMARK  status: ('A' for Active; 'I' for Inactive)
REMARK    1  A    between atoms: C_1  and  C_2
REMARK    2  A    between atoms: C_2  and  N_9
REMARK    3  A    between atoms: C_15  and  N_19
REMARK                            x       y       z     vdW  Elec       q    Type
REMARK                         _______ _______ _______ _____ _____    ______ ____
ROOT
ATOM      1  N   UNL     1       0.731  -0.456  -1.186  0.00  0.00    -0.317 N 
ATOM      2  C   UNL     1       0.290  -0.097  -2.445  0.00  0.00    +0.160 A 
ATOM      3  N   UNL     1      -0.746   0.640  -2.775  0.00  0.00    -0.225 NA
ATOM      4  C   UNL     1      -1.062   0.913  -4.062  0.00  0.00    +0.080 A 
ATOM      5  C   UNL     1      -2.141   1.686  -4.549  0.00  0.00    +0.031 A 
ATOM      6  C   UNL     1      -2.323   1.867  -5.894  0.00  0.00    +0.025 A 
ATOM      7  C   UNL     1      -1.458   1.301  -6.828  0.00  0.00    +0.026 A 
ATOM      8  C   UNL     1      -0.388   0.537  -6.382  0.00  0.00    +0.040 A 
ATOM      9  C   UNL     1      -0.203   0.353  -5.034  0.00  0.00    +0.042 A 
ATOM     10  S   UNL     1       0.988  -0.510  -4.037  0.00  0.00    -0.052 S 
ATOM     11  H   UNL     1       1.523  -1.007  -1.089  0.00  0.00    +0.149 HD
ENDROOT
BRANCH   1  13
ATOM     12  C   UNL     1      -0.019   1.526   0.010  0.00  0.00    +0.033 C 
ATOM     13  C   UNL     1       0.002  -0.004   0.002  0.00  0.00    +0.052 C 
ATOM     14  C   UNL     1      -1.436  -0.513  -0.087  0.00  0.00    +0.049 C 
ATOM     15  C   UNL     1      -1.556  -1.909   0.586  0.00  0.00    +0.168 C 
ATOM     16  S   UNL     1      -0.454  -1.644   2.043  0.00  0.00    -0.029 S 
ATOM     17  O   UNL     1       0.203  -2.864   2.360  0.00  0.00    -0.174 OA
ATOM     18  O   UNL     1      -1.173  -0.950   3.053  0.00  0.00    -0.174 OA
ATOM     19  C   UNL     1       0.751  -0.495   1.257  0.00  0.00    +0.191 C 
ENDBRANCH   1  13
BRANCH   7  20
ATOM     20  N   UNL     1      -1.665   1.499  -8.198  0.00  0.00    -0.358 N 
ATOM     21  H   UNL     1      -2.415   2.034  -8.503  0.00  0.00    +0.142 HD
ATOM     22  H   UNL     1      -1.058   1.102  -8.842  0.00  0.00    +0.142 HD
ENDBRANCH   7  20
TORSDOF 2
