REMARK  Name = ZINC38904775
REMARK  10 active torsions:
REMARK  status: ('A' for Active; 'I' for Inactive)
REMARK    1  A    between atoms: C_1  and  C_2
REMARK    2  A    between atoms: C_2  and  O_3
REMARK    3  A    between atoms: O_3  and  C_4
REMARK    4  A    between atoms: C_7  and  C_10
REMARK    5  A    between atoms: C_10  and  C_12
REMARK    6  A    between atoms: C_10  and  N_13
REMARK    7  A    between atoms: C_14  and  C_16
REMARK    8  A    between atoms: N_21  and  C_23
REMARK    9  A    between atoms: C_23  and  C_24
REMARK   10  A    between atoms: C_26  and  C_29
REMARK                            x       y       z     vdW  Elec       q    Type
REMARK                         _______ _______ _______ _____ _____    ______ ____
ROOT
ATOM      1  C   UNL     1      -4.304  -8.037  -2.370  0.00  0.00    +0.058 C 
ATOM      2  C   UNL     1      -5.623  -7.939  -1.598  0.00  0.00    +0.009 C 
ATOM      3  C   UNL     1      -6.770  -8.388  -2.507  0.00  0.00    -0.018 C 
ATOM      4  C   UNL     1      -6.494  -9.809  -3.004  0.00  0.00    -0.078 C 
ATOM      5  N   UNL     1      -5.233  -9.832  -3.756  0.00  0.00    +0.386 N 
ATOM      6  C   UNL     1      -4.118  -9.471  -2.873  0.00  0.00    -0.065 C 
ATOM      7  H   UNL     1      -5.285  -9.171  -4.517  0.00  0.00    -0.081 HD
ENDROOT
BRANCH   1   9
ATOM      8  N   UNL     1      -3.113  -6.448  -0.895  0.00  0.00    -0.309 N 
ATOM      9  C   UNL     1      -3.160  -7.671  -1.460  0.00  0.00    +0.215 C 
ATOM     10  O   UNL     1      -2.281  -8.476  -1.237  0.00  0.00    -0.276 OA
ATOM     11  H   UNL     1      -3.816  -5.804  -1.074  0.00  0.00    +0.149 HD
BRANCH   8  12
ATOM     12  C   UNL     1      -2.001  -6.092  -0.011  0.00  0.00    +0.100 C 
ATOM     13  C   UNL     1      -2.303  -6.576   1.409  0.00  0.00    +0.033 C 
BRANCH  12  17
ATOM     14  C   UNL     1      -1.498  -1.848   0.006  0.00  0.00    +0.121 A 
ATOM     15  C   UNL     1      -0.388  -2.679  -0.003  0.00  0.00    +0.046 A 
ATOM     16  C   UNL     1      -0.553  -4.051  -0.008  0.00  0.00    +0.009 A 
ATOM     17  C   UNL     1      -1.823  -4.596  -0.005  0.00  0.00    -0.027 A 
ATOM     18  C   UNL     1      -2.932  -3.769   0.004  0.00  0.00    +0.009 A 
ATOM     19  C   UNL     1      -2.772  -2.397   0.016  0.00  0.00    +0.046 A 
BRANCH  14  20
ATOM     20  O   UNL     1      -1.339  -0.499   0.012  0.00  0.00    -0.492 OA
BRANCH  20  22
ATOM     21  C   UNL     1      -0.019   1.526   0.010  0.00  0.00    +0.048 C 
ATOM     22  C   UNL     1       0.002  -0.004   0.002  0.00  0.00    +0.225 C 
ENDBRANCH  20  22
ENDBRANCH  14  20
ENDBRANCH  12  17
ENDBRANCH   8  12
ENDBRANCH   1   9
BRANCH   5  23
ATOM     23  C   UNL     1      -5.011 -11.180  -4.297  0.00  0.00    +0.022 C 
BRANCH  23  24
ATOM     24  C   UNL     1      -6.085 -11.499  -5.305  0.00  0.00    +0.211 A 
ATOM     25  N   UNL     1      -6.023 -11.259  -6.584  0.00  0.00    -0.193 NA
ATOM     26  C   UNL     1      -7.153 -11.673  -7.185  0.00  0.00    +0.202 A 
ATOM     27  N   UNL     1      -7.947 -12.185  -6.277  0.00  0.00    -0.056 NA
ATOM     28  O   UNL     1      -7.260 -12.084  -5.039  0.00  0.00    -0.340 OA
BRANCH  26  29
ATOM     29  C   UNL     1      -7.451 -11.566  -8.635  0.00  0.00    +0.023 A 
ATOM     30  C   UNL     1      -6.516 -11.003  -9.502  0.00  0.00    +0.012 A 
ATOM     31  C   UNL     1      -6.798 -10.906 -10.849  0.00  0.00    +0.002 A 
ATOM     32  C   UNL     1      -8.006 -11.368 -11.341  0.00  0.00    +0.015 A 
ATOM     33  C   UNL     1      -8.938 -11.928 -10.485  0.00  0.00    +0.019 A 
ATOM     34  C   UNL     1      -8.663 -12.035  -9.136  0.00  0.00    +0.027 A 
ATOM     35 BR   UNL     1     -10.587 -12.555 -11.166  0.00  0.00    -0.050 Br
ENDBRANCH  26  29
ENDBRANCH  23  24
ENDBRANCH   5  23
TORSDOF 8
