REMARK  Name = ZINC09319402
REMARK  4 active torsions:
REMARK  status: ('A' for Active; 'I' for Inactive)
REMARK    1  A    between atoms: C_10  and  N_11
REMARK    2  A    between atoms: C_26  and  C_32
REMARK    3  A    between atoms: C_32  and  C_34
REMARK    4  A    between atoms: C_38  and  N_40
REMARK                            x       y       z     vdW  Elec       q    Type
REMARK                         _______ _______ _______ _____ _____    ______ ____
ROOT
ATOM      1  N   UNL     1      -1.327   5.951   0.044  0.00  0.00    -0.209 N 
ATOM      2  C   UNL     1      -2.003   6.334  -1.094  0.00  0.00    +0.232 C 
ATOM      3  O   UNL     1      -1.843   5.935  -2.228  0.00  0.00    -0.274 OA
ATOM      4  C   UNL     1      -2.942   7.321  -0.625  0.00  0.00    +0.113 C 
ATOM      5  C   UNL     1      -4.141   8.078  -1.010  0.00  0.00    +0.100 C 
ATOM      6  C   UNL     1      -3.882   8.940  -2.222  0.00  0.00    -0.021 A 
ATOM      7  C   UNL     1      -3.375   8.407  -3.384  0.00  0.00    +0.006 A 
ATOM      8  C   UNL     1      -3.148   9.225  -4.478  0.00  0.00    +0.000 A 
ATOM      9  C   UNL     1      -3.431  10.578  -4.407  0.00  0.00    +0.001 A 
ATOM     10  C   UNL     1      -3.942  11.124  -3.248  0.00  0.00    +0.008 A 
ATOM     11  C   UNL     1      -4.173  10.305  -2.141  0.00  0.00    -0.019 A 
ATOM     12  C   UNL     1      -4.719  10.863  -0.892  0.00  0.00    +0.022 C 
ATOM     13  C   UNL     1      -4.803  10.130   0.217  0.00  0.00    +0.054 C 
ATOM     14  C   UNL     1      -4.057   7.906   1.385  0.00  0.00    +0.141 C 
ATOM     15  C   UNL     1      -3.371   6.695   0.762  0.00  0.00    +0.116 C 
ATOM     16  C   UNL     1      -1.980   6.316   1.189  0.00  0.00    +0.232 C 
ATOM     17  O   UNL     1      -1.530   6.332   2.315  0.00  0.00    -0.274 OA
ATOM     18  N   UNL     1      -4.691   8.616   0.189  0.00  0.00    -0.384 NA
ATOM     19  H   UNL     1      -5.670   8.304   0.190  0.00  0.00    +0.127 HD
ENDROOT
BRANCH   1  29
ATOM     20  C   UNL     1      -0.013   1.076   0.008  0.00  0.00    +0.001 A 
ATOM     21  C   UNL     1      -1.234   1.746   0.017  0.00  0.00    +0.001 A 
ATOM     22  C   UNL     1      -1.287   3.106   0.030  0.00  0.00    +0.010 A 
ATOM     23  C   UNL     1      -0.096   3.848   0.023  0.00  0.00    +0.004 A 
ATOM     24  C   UNL     1       1.147   3.168   0.008  0.00  0.00    -0.016 A 
ATOM     25  C   UNL     1       1.163   1.762   0.000  0.00  0.00    +0.008 A 
ATOM     26  C   UNL     1       2.341   3.909  -0.000  0.00  0.00    +0.008 A 
ATOM     27  C   UNL     1       2.296   5.270   0.006  0.00  0.00    +0.002 A 
ATOM     28  C   UNL     1       1.081   5.948   0.021  0.00  0.00    +0.024 A 
ATOM     29  C   UNL     1      -0.111   5.258   0.029  0.00  0.00    +0.052 A 
ENDBRANCH   1  29
BRANCH  14  30
ATOM     30  C   UNL     1      -3.124   8.586   2.353  0.00  0.00    +0.183 C 
ATOM     31  O   UNL     1      -2.571   9.618   2.038  0.00  0.00    -0.290 OA
BRANCH  30  32
ATOM     32  C   UNL     1      -2.884   7.998   3.680  0.00  0.00    +0.021 A 
ATOM     33  C   UNL     1      -3.525   6.811   4.049  0.00  0.00    +0.011 A 
ATOM     34  C   UNL     1      -3.290   6.263   5.293  0.00  0.00    +0.003 A 
ATOM     35  C   UNL     1      -2.432   6.891   6.179  0.00  0.00    +0.033 A 
ATOM     36  C   UNL     1      -1.799   8.069   5.824  0.00  0.00    +0.127 A 
ATOM     37  C   UNL     1      -2.018   8.626   4.582  0.00  0.00    +0.044 A 
BRANCH  36  38
ATOM     38  N   UNL     1      -0.883   8.732   6.779  0.00  0.00    +0.056 N 
ATOM     39  O   UNL     1      -0.325   9.769   6.468  0.00  0.00    -0.126 OA
ATOM     40  O   UNL     1      -0.688   8.241   7.877  0.00  0.00    -0.126 OA
ENDBRANCH  36  38
ENDBRANCH  30  32
ENDBRANCH  14  30
TORSDOF 4
