REMARK  Name = ZINC39923250
REMARK  7 active torsions:
REMARK  status: ('A' for Active; 'I' for Inactive)
REMARK    1  A    between atoms: C_7  and  C_10
REMARK    2  A    between atoms: N_11  and  N_12
REMARK    3  A    between atoms: C_13  and  C_15
REMARK    4  A    between atoms: C_18  and  C_21
REMARK    5  A    between atoms: C_25  and  O_27
REMARK    6  A    between atoms: O_27  and  C_28
REMARK    7  A    between atoms: C_28  and  C_29
REMARK                            x       y       z     vdW  Elec       q    Type
REMARK                         _______ _______ _______ _____ _____    ______ ____
ROOT
ATOM      1  C   UNL     1      -0.220  -7.864  -0.038  0.00  0.00    +0.240 C 
ATOM      2  C   UNL     1      -0.693  -8.167   1.373  0.00  0.00    +0.041 C 
ATOM      3  C   UNL     1      -0.256  -9.422   1.596  0.00  0.00    +0.092 C 
ATOM      4  N   UNL     1       0.407  -9.895   0.509  0.00  0.00    -0.153 NA
ATOM      5  N   UNL     1       0.471  -9.101  -0.438  0.00  0.00    -0.170 NA
ENDROOT
BRANCH   3   6
ATOM      6  C   UNL     1      -0.470 -10.181   2.854  0.00  0.00    +0.005 A 
ATOM      7  C   UNL     1      -1.171  -9.601   3.910  0.00  0.00    +0.010 A 
ATOM      8  C   UNL     1      -1.368 -10.309   5.078  0.00  0.00    +0.004 A 
ATOM      9  C   UNL     1      -0.872 -11.593   5.205  0.00  0.00    +0.046 A 
ATOM     10  C   UNL     1      -0.173 -12.177   4.158  0.00  0.00    +0.122 A 
ATOM     11  C   UNL     1       0.025 -11.476   2.980  0.00  0.00    +0.055 A 
BRANCH  10  12
ATOM     12  O   UNL     1       0.314 -13.440   4.288  0.00  0.00    -0.487 OA
BRANCH  12  13
ATOM     13  C   UNL     1       0.069 -14.105   5.528  0.00  0.00    +0.264 C 
BRANCH  13  14
ATOM     14  C   UNL     1       0.678 -15.483   5.487  0.00  0.00    -0.010 A 
ATOM     15  C   UNL     1      -0.065 -16.554   5.025  0.00  0.00    +0.008 A 
ATOM     16  C   UNL     1       0.493 -17.818   4.988  0.00  0.00    +0.020 A 
ATOM     17  C   UNL     1       1.795 -18.012   5.413  0.00  0.00    +0.041 A 
ATOM     18  C   UNL     1       2.538 -16.940   5.876  0.00  0.00    +0.020 A 
ATOM     19  C   UNL     1       1.981 -15.675   5.907  0.00  0.00    +0.008 A 
ATOM     20 CL   UNL     1       2.497 -19.599   5.367  0.00  0.00    -0.084 Cl
ENDBRANCH  13  14
ENDBRANCH  12  13
ENDBRANCH  10  12
ENDBRANCH   3   6
BRANCH   1  22
ATOM     21  N   UNL     1       0.255  -5.437  -0.030  0.00  0.00    -0.205 N 
ATOM     22  C   UNL     1       0.733  -6.697  -0.041  0.00  0.00    +0.263 C 
ATOM     23  O   UNL     1       1.930  -6.892  -0.054  0.00  0.00    -0.271 OA
ATOM     24  H   UNL     1      -0.702  -5.281  -0.020  0.00  0.00    +0.177 HD
BRANCH  21  26
ATOM     25  C   UNL     1       0.677  -3.128  -0.022  0.00  0.00    +0.136 C 
ATOM     26  N   UNL     1       1.141  -4.352  -0.033  0.00  0.00    -0.188 NA
BRANCH  25  33
ATOM     27  C   UNL     1      -0.016   1.353   0.009  0.00  0.00    +0.001 A 
ATOM     28  C   UNL     1       1.164   2.102   0.002  0.00  0.00    +0.002 A 
ATOM     29  C   UNL     1       2.384   1.514  -0.013  0.00  0.00    +0.026 A 
ATOM     30  C   UNL     1       2.485   0.097  -0.022  0.00  0.00    +0.043 A 
ATOM     31  N   UNL     1       3.531  -0.702  -0.037  0.00  0.00    -0.380 N 
ATOM     32  C   UNL     1       3.076  -2.096  -0.040  0.00  0.00    +0.150 C 
ATOM     33  C   UNL     1       1.565  -2.042  -0.024  0.00  0.00    +0.000 C 
ATOM     34  C   UNL     1       1.238  -0.688  -0.013  0.00  0.00    +0.004 A 
ATOM     35  C   UNL     1       0.002  -0.004   0.002  0.00  0.00    +0.010 A 
ATOM     36  H   UNL     1       4.458  -0.414  -0.045  0.00  0.00    +0.160 HD
ENDBRANCH  25  33
ENDBRANCH  21  26
ENDBRANCH   1  22
TORSDOF 7
