REMARK  Name = ZINC63627529
REMARK  9 active torsions:
REMARK  status: ('A' for Active; 'I' for Inactive)
REMARK    1  A    between atoms: C_1  and  C_2
REMARK    2  A    between atoms: C_2  and  O_3
REMARK    3  A    between atoms: O_3  and  C_4
REMARK    4  A    between atoms: C_4  and  C_6
REMARK    5  A    between atoms: C_8  and  C_38
REMARK    6  A    between atoms: C_12  and  S_17
REMARK    7  A    between atoms: S_17  and  N_20
REMARK    8  A    between atoms: N_20  and  C_21
REMARK    9  A    between atoms: C_24  and  C_27
REMARK                            x       y       z     vdW  Elec       q    Type
REMARK                         _______ _______ _______ _____ _____    ______ ____
ROOT
ATOM      1  N   UNL     1       6.515  -4.572   1.585  0.00  0.00    -0.216 N 
ATOM      2  H   UNL     1       7.112  -5.074   2.160  0.00  0.00    +0.174 HD
ENDROOT
BRANCH   1   3
ATOM      3  C   UNL     1       6.260  -3.224   1.850  0.00  0.00    +0.048 A 
ATOM      4  C   UNL     1       6.838  -2.238   1.061  0.00  0.00    +0.025 A 
ATOM      5  C   UNL     1       6.584  -0.907   1.325  0.00  0.00    +0.008 A 
ATOM      6  C   UNL     1       5.755  -0.555   2.375  0.00  0.00    -0.021 A 
ATOM      7  C   UNL     1       5.178  -1.534   3.162  0.00  0.00    +0.008 A 
ATOM      8  C   UNL     1       5.423  -2.867   2.900  0.00  0.00    +0.025 A 
BRANCH   6   9
ATOM      9  C   UNL     1       5.480   0.899   2.661  0.00  0.00    +0.133 C 
ATOM     10  C   UNL     1       6.300   1.361   3.845  0.00  0.00    +0.012 C 
ATOM     11  C   UNL     1       5.411   1.758   4.784  0.00  0.00    -0.001 A 
ATOM     12  C   UNL     1       5.572   2.301   6.138  0.00  0.00    +0.048 A 
ATOM     13  C   UNL     1       4.467   2.613   6.856  0.00  0.00    +0.124 A 
ATOM     14  C   UNL     1       3.175   2.429   6.338  0.00  0.00    +0.040 A 
ATOM     15  C   UNL     1       2.949   1.934   5.103  0.00  0.00    +0.029 A 
ATOM     16  C   UNL     1       4.038   1.574   4.262  0.00  0.00    +0.043 A 
ATOM     17  N   UNL     1       4.076   1.083   3.045  0.00  0.00    -0.374 N 
ATOM     18  F   UNL     1       4.612   3.113   8.103  0.00  0.00    -0.205 F 
ATOM     19  H   UNL     1       3.306   0.876   2.493  0.00  0.00    +0.161 HD
ENDBRANCH   6   9
ENDBRANCH   1   3
BRANCH   1  20
ATOM     20  S   UNL     1       5.796  -5.311   0.289  0.00  0.00    +0.072 S 
ATOM     21  O   UNL     1       6.233  -6.663   0.299  0.00  0.00    -0.150 OA
ATOM     22  O   UNL     1       5.994  -4.455  -0.828  0.00  0.00    -0.150 OA
BRANCH  20  27
ATOM     23  C   UNL     1      -0.370  -3.878   0.878  0.00  0.00    +0.288 C 
ATOM     24  C   UNL     1       0.766  -3.443  -0.078  0.00  0.00    +0.071 C 
ATOM     25  C   UNL     1       1.893  -4.372   0.333  0.00  0.00    +0.003 A 
ATOM     26  C   UNL     1       3.248  -4.346   0.087  0.00  0.00    +0.036 A 
ATOM     27  C   UNL     1       4.062  -5.340   0.601  0.00  0.00    +0.109 A 
ATOM     28  C   UNL     1       3.511  -6.356   1.359  0.00  0.00    +0.032 A 
ATOM     29  C   UNL     1       2.153  -6.385   1.603  0.00  0.00    +0.048 A 
ATOM     30  C   UNL     1       1.326  -5.391   1.087  0.00  0.00    +0.125 A 
ATOM     31  O   UNL     1      -0.028  -5.239   1.188  0.00  0.00    -0.477 OA
ATOM     32  C   UNL     1       0.371  -3.674  -1.538  0.00  0.00    +0.017 C 
BRANCH  23  33
ATOM     33  C   UNL     1      -0.373  -3.031   2.124  0.00  0.00    +0.349 C 
ATOM     34  O   UNL     1      -0.089  -3.523   3.190  0.00  0.00    -0.247 OA
BRANCH  33  35
ATOM     35  O   UNL     1      -0.691  -1.729   2.050  0.00  0.00    -0.462 OA
BRANCH  35  37
ATOM     36  C   UNL     1      -1.059   0.468   2.989  0.00  0.00    +0.048 C 
ATOM     37  C   UNL     1      -0.673  -0.986   3.271  0.00  0.00    +0.229 C 
ENDBRANCH  35  37
ENDBRANCH  33  35
ENDBRANCH  23  33
ENDBRANCH  20  27
ENDBRANCH   1  20
TORSDOF 7
