REMARK  Name = ZINC42260167
REMARK  2 active torsions:
REMARK  status: ('A' for Active; 'I' for Inactive)
REMARK    1  A    between atoms: N_11  and  S_12
REMARK    2  A    between atoms: S_12  and  C_15
REMARK                            x       y       z     vdW  Elec       q    Type
REMARK                         _______ _______ _______ _____ _____    ______ ____
ROOT
ATOM      1  C   UNL     1      -0.037   1.356  -0.421  0.00  0.00    +0.004 A 
ATOM      2  C   UNL     1       1.111   2.089  -0.407  0.00  0.00    +0.028 A 
ATOM      3  C   UNL     1       2.353   1.449  -0.262  0.00  0.00    +0.073 A 
ATOM      4  C   UNL     1       2.393   0.039  -0.131  0.00  0.00    +0.025 A 
ATOM      5  C   UNL     1       3.637  -0.598   0.015  0.00  0.00    +0.013 A 
ATOM      6  C   UNL     1       4.763   0.178   0.023  0.00  0.00    +0.020 A 
ATOM      7  C   UNL     1       4.655   1.560  -0.111  0.00  0.00    +0.111 A 
ATOM      8  N   UNL     1       3.492   2.150  -0.246  0.00  0.00    -0.255 NA
ATOM      9  C   UNL     1       1.190  -0.697  -0.149  0.00  0.00    +0.066 A 
ATOM     10  C   UNL     1      -0.009  -0.028  -0.293  0.00  0.00    +0.027 A 
ATOM     11  N   UNL     1       1.210  -2.082  -0.021  0.00  0.00    -0.255 N 
ATOM     12  H   UNL     1       2.057  -2.556  -0.010  0.00  0.00    +0.188 HD
ENDROOT
BRANCH  11  13
ATOM     13  S   UNL     1      -0.210  -2.923   0.113  0.00  0.00    +0.084 S 
ATOM     14  O   UNL     1       0.141  -4.270   0.400  0.00  0.00    -0.148 OA
ATOM     15  O   UNL     1      -1.056  -2.159   0.960  0.00  0.00    -0.148 OA
BRANCH  13  16
ATOM     16  C   UNL     1      -0.964  -2.928  -1.480  0.00  0.00    +0.149 A 
ATOM     17  C   UNL     1      -0.827  -3.826  -2.486  0.00  0.00    +0.038 A 
ATOM     18  C   UNL     1      -1.524  -3.626  -3.663  0.00  0.00    +0.025 A 
ATOM     19  C   UNL     1      -2.324  -2.536  -3.776  0.00  0.00    +0.057 A 
ATOM     20  S   UNL     1      -2.112  -1.756  -2.184  0.00  0.00    -0.061 S 
ATOM     21 BR   UNL     1      -3.393  -1.990  -5.237  0.00  0.00    -0.043 Br
ENDBRANCH  13  16
ENDBRANCH  11  13
TORSDOF 2
