REMARK  Name = ZINC11450305
REMARK  6 active torsions:
REMARK  status: ('A' for Active; 'I' for Inactive)
REMARK    1  A    between atoms: C_3  and  O_8
REMARK    2  A    between atoms: O_8  and  C_9
REMARK    3  A    between atoms: C_9  and  C_10
REMARK    4  A    between atoms: C_15  and  N_18
REMARK    5  A    between atoms: N_18  and  S_19
REMARK    6  A    between atoms: S_19  and  C_22
REMARK                            x       y       z     vdW  Elec       q    Type
REMARK                         _______ _______ _______ _____ _____    ______ ____
ROOT
ATOM      1  C   UNL     1      -3.529   6.133  -3.340  0.00  0.00    +0.253 C 
ATOM      2  O   UNL     1      -3.404   6.349  -4.527  0.00  0.00    -0.272 OA
ATOM      3  N   UNL     1      -2.554   5.492  -2.665  0.00  0.00    -0.299 N 
ATOM      4  C   UNL     1      -1.334   5.050  -3.353  0.00  0.00    +0.109 C 
ATOM      5  C   UNL     1      -1.131   3.555  -3.084  0.00  0.00    +0.039 C 
ATOM      6  C   UNL     1      -1.125   3.309  -1.574  0.00  0.00    +0.080 C 
ATOM      7  C   UNL     1      -2.473   3.727  -0.982  0.00  0.00    +0.039 C 
ATOM      8  C   UNL     1      -2.691   5.223  -1.227  0.00  0.00    +0.109 C 
ENDROOT
BRANCH   6   9
ATOM      9  N   UNL     1      -0.897   1.885  -1.312  0.00  0.00    -0.186 NA
ATOM     10  H   UNL     1      -1.263   1.218  -1.913  0.00  0.00    +0.148 HD
BRANCH   9  11
ATOM     11  S   UNL     1      -0.017   1.417   0.010  0.00  0.00    +0.065 S 
ATOM     12  O   UNL     1       0.002  -0.004   0.002  0.00  0.00    -0.153 OA
ATOM     13  O   UNL     1       1.172   2.195   0.003  0.00  0.00    -0.153 OA
BRANCH  11  14
ATOM     14  C   UNL     1      -0.927   1.900   1.439  0.00  0.00    +0.142 A 
ATOM     15  C   UNL     1      -1.862   1.205   2.132  0.00  0.00    +0.036 A 
ATOM     16  C   UNL     1      -2.451   1.790   3.236  0.00  0.00    +0.010 A 
ATOM     17  C   UNL     1      -2.076   3.043   3.595  0.00  0.00    +0.047 A 
ATOM     18  S   UNL     1      -0.850   3.430   2.357  0.00  0.00    -0.077 S 
ENDBRANCH  11  14
ENDBRANCH   9  11
ENDBRANCH   6   9
BRANCH   1  19
ATOM     19  C   UNL     1      -4.775   6.580  -2.620  0.00  0.00    +0.324 C 
BRANCH  19  20
ATOM     20  O   UNL     1      -5.651   7.230  -3.543  0.00  0.00    -0.483 OA
BRANCH  20  23
ATOM     21  C   UNL     1      -8.332   8.009  -1.210  0.00  0.00    +0.005 A 
ATOM     22  C   UNL     1      -7.137   7.529  -1.709  0.00  0.00    +0.046 A 
ATOM     23  C   UNL     1      -6.829   7.698  -3.051  0.00  0.00    +0.123 A 
ATOM     24  C   UNL     1      -7.727   8.339  -3.892  0.00  0.00    +0.065 A 
ATOM     25  C   UNL     1      -8.924   8.813  -3.389  0.00  0.00    +0.044 A 
ATOM     26  C   UNL     1      -9.226   8.648  -2.049  0.00  0.00    +0.020 A 
ATOM     27 CL   UNL     1     -10.049   9.616  -4.440  0.00  0.00    -0.083 Cl
ENDBRANCH  20  23
ENDBRANCH  19  20
ENDBRANCH   1  19
TORSDOF 6
