REMARK  Name = ZINC39464764
REMARK  2 active torsions:
REMARK  status: ('A' for Active; 'I' for Inactive)
REMARK    1  A    between atoms: C_1  and  O_2
REMARK    2  A    between atoms: O_2  and  P_3
REMARK                            x       y       z     vdW  Elec       q    Type
REMARK                         _______ _______ _______ _____ _____    ______ ____
ROOT
ATOM      1  P   UNL     1       0.678  -0.865  -1.179  0.00  0.00    +0.421 P 
ATOM      2  O   UNL     1       0.325  -0.291  -2.496  0.00  0.00    -0.239 OA
ATOM      3  N   UNL     1       2.320  -0.903  -0.990  0.00  0.00    -0.156 NA
ATOM      4  N   UNL     1       2.989  -1.932  -1.615  0.00  0.00    -0.224 NA
ATOM      5  C   UNL     1       4.429  -1.834  -1.334  0.00  0.00    +0.108 C 
ATOM      6  C   UNL     1       5.181  -2.763  -2.287  0.00  0.00    +0.052 C 
ATOM      7  C   UNL     1       4.582  -4.145  -2.225  0.00  0.00    -0.040 A 
ATOM      8  C   UNL     1       5.331  -5.214  -2.691  0.00  0.00    +0.019 A 
ATOM      9  C   UNL     1       4.817  -6.495  -2.653  0.00  0.00    +0.027 A 
ATOM     10  C   UNL     1       3.548  -6.711  -2.147  0.00  0.00    +0.027 A 
ATOM     11  C   UNL     1       2.802  -5.646  -1.683  0.00  0.00    +0.021 A 
ATOM     12  C   UNL     1       3.317  -4.358  -1.720  0.00  0.00    -0.022 A 
ATOM     13  C   UNL     1       2.463  -3.233  -1.200  0.00  0.00    +0.130 C 
ATOM     14  C   UNL     1       1.025  -3.427  -1.692  0.00  0.00    +0.196 C 
ATOM     15  O   UNL     1       0.192  -2.415  -1.092  0.00  0.00    -0.294 OA
ATOM     16  I   UNL     1       2.758  -8.650  -2.086  0.00  0.00    -0.043 I 
ATOM     17  I   UNL     1       5.955  -8.106  -3.360  0.00  0.00    -0.043 I 
ATOM     18  H   UNL     1       2.789  -0.234  -0.467  0.00  0.00    +0.153 HD
ENDROOT
BRANCH   1  20
ATOM     19  C   UNL     1      -0.017   1.425   0.010  0.00  0.00    +0.206 C 
ATOM     20  O   UNL     1       0.002  -0.004   0.002  0.00  0.00    -0.299 OA
ENDBRANCH   1  20
TORSDOF 1
