REMARK  Name = ZINC11185287
REMARK  5 active torsions:
REMARK  status: ('A' for Active; 'I' for Inactive)
REMARK    1  A    between atoms: C_1  and  C_2
REMARK    2  A    between atoms: C_6  and  C_16
REMARK    3  A    between atoms: N_8  and  C_9
REMARK    4  A    between atoms: N_18  and  C_19
REMARK    5  A    between atoms: C_22  and  C_25
REMARK                            x       y       z     vdW  Elec       q    Type
REMARK                         _______ _______ _______ _____ _____    ______ ____
ROOT
ATOM      1  C   UNL     1       1.460  -4.071   0.956  0.00  0.00    +0.272 C 
ATOM      2  O   UNL     1       2.087  -4.720   0.142  0.00  0.00    -0.268 OA
ATOM      3  N   UNL     1       1.098  -4.628   2.128  0.00  0.00    -0.280 N 
ATOM      4  H   UNL     1       0.539  -4.134   2.748  0.00  0.00    +0.155 HD
ENDROOT
BRANCH   1  10
ATOM      5  C   UNL     1      -0.038   1.347  -0.020  0.00  0.00    +0.066 C 
ATOM      6  C   UNL     1       0.396  -0.084   0.160  0.00  0.00    +0.044 A 
ATOM      7  C   UNL     1       1.088  -0.702  -0.826  0.00  0.00    +0.076 A 
ATOM      8  C   UNL     1       1.482  -2.049  -0.616  0.00  0.00    +0.213 A 
ATOM      9  O   UNL     1       2.113  -2.667  -1.460  0.00  0.00    -0.285 OA
ATOM     10  C   UNL     1       1.094  -2.671   0.660  0.00  0.00    +0.193 A 
ATOM     11  N   UNL     1       0.415  -1.957   1.532  0.00  0.00    -0.158 NA
ATOM     12  N   UNL     1       0.082  -0.740   1.304  0.00  0.00    -0.236 N 
BRANCH  12  13
ATOM     13  C   UNL     1      -0.640  -0.054   2.287  0.00  0.00    +0.066 A 
ATOM     14  C   UNL     1      -0.268   1.234   2.651  0.00  0.00    +0.029 A 
ATOM     15  C   UNL     1      -0.986   1.911   3.618  0.00  0.00    +0.022 A 
ATOM     16  C   UNL     1      -2.068   1.303   4.230  0.00  0.00    +0.041 A 
ATOM     17  C   UNL     1      -2.438   0.018   3.872  0.00  0.00    +0.022 A 
ATOM     18  C   UNL     1      -1.727  -0.661   2.903  0.00  0.00    +0.029 A 
ATOM     19 CL   UNL     1      -2.964   2.155   5.449  0.00  0.00    -0.084 Cl
ENDBRANCH  12  13
ENDBRANCH   1  10
BRANCH   3  20
ATOM     20  C   UNL     1       1.528  -5.917   2.451  0.00  0.00    +0.034 A 
ATOM     21  C   UNL     1       1.647  -6.879   1.453  0.00  0.00    +0.024 A 
ATOM     22  C   UNL     1       2.075  -8.150   1.768  0.00  0.00    +0.013 A 
ATOM     23  C   UNL     1       2.380  -8.475   3.090  0.00  0.00    +0.019 A 
ATOM     24  C   UNL     1       2.256  -7.509   4.090  0.00  0.00    +0.013 A 
ATOM     25  C   UNL     1       1.832  -6.238   3.769  0.00  0.00    +0.024 A 
BRANCH  23  26
ATOM     26  C   UNL     1       2.836  -9.840   3.432  0.00  0.00    +0.164 A 
ATOM     27  N   UNL     1       3.480 -10.203   4.521  0.00  0.00    -0.129 NA
ATOM     28  N   UNL     1       3.710 -11.469   4.488  0.00  0.00    -0.134 NA
ATOM     29  C   UNL     1       3.234 -11.980   3.387  0.00  0.00    +0.134 A 
ATOM     30  N   UNL     1       2.673 -10.965   2.676  0.00  0.00    -0.311 N 
ATOM     31  C   UNL     1       2.039 -11.068   1.362  0.00  0.00    +0.125 C 
ATOM     32  C   UNL     1       1.463 -12.476   1.187  0.00  0.00    +0.022 C 
ATOM     33  C   UNL     1       2.521 -13.395   0.580  0.00  0.00    +0.002 C 
ATOM     34  C   UNL     1       3.731 -13.505   1.503  0.00  0.00    +0.008 C 
ATOM     35  C   UNL     1       3.273 -13.425   2.962  0.00  0.00    +0.076 C 
ENDBRANCH  23  26
ENDBRANCH   3  20
TORSDOF 4
