REMARK  Name = ZINC65298012
REMARK  9 active torsions:
REMARK  status: ('A' for Active; 'I' for Inactive)
REMARK    1  A    between atoms: C_1  and  C_2
REMARK    2  A    between atoms: C_2  and  O_3
REMARK    3  A    between atoms: O_3  and  C_4
REMARK    4  A    between atoms: C_7  and  C_10
REMARK    5  A    between atoms: C_18  and  O_20
REMARK    6  A    between atoms: O_20  and  C_21
REMARK    7  A    between atoms: C_21  and  C_22
REMARK    8  A    between atoms: C_24  and  C_27
REMARK    9  A    between atoms: C_32  and  O_33
REMARK                            x       y       z     vdW  Elec       q    Type
REMARK                         _______ _______ _______ _____ _____    ______ ____
ROOT
ATOM      1  C   UNL     1       1.108  -6.011  -1.843  0.00  0.00    +0.040 C 
ATOM      2  N   UNL     1       0.602  -6.777  -0.951  0.00  0.00    -0.300 NA
ATOM      3  C   UNL     1       0.653  -8.235  -0.999  0.00  0.00    +0.032 C 
ATOM      4  C   UNL     1       1.758  -8.738  -0.064  0.00  0.00    +0.029 C 
ATOM      5  C   UNL     1       1.480  -8.244   1.359  0.00  0.00    +0.111 C 
ATOM      6  N   UNL     1       0.127  -8.662   1.750  0.00  0.00    -0.267 N 
ATOM      7  C   UNL     1      -1.000  -8.315   0.873  0.00  0.00    +0.111 C 
ATOM      8  C   UNL     1      -0.693  -8.808  -0.544  0.00  0.00    +0.029 C 
ATOM      9  C   UNL     1      -0.077  -9.352   2.889  0.00  0.00    +0.403 C 
ATOM     10  O   UNL     1       0.864  -9.633   3.606  0.00  0.00    -0.226 OA
ATOM     11  N   UNL     1       0.934  -8.694  -2.366  0.00  0.00    +0.401 N 
ATOM     12  C   UNL     1       2.145  -8.017  -2.858  0.00  0.00    -0.028 C 
ATOM     13  C   UNL     1       1.811  -6.535  -3.065  0.00  0.00    +0.044 C 
ATOM     14  H   UNL     1       1.082  -9.692  -2.364  0.00  0.00    -0.081 HD
ATOM     15  H   UNL     1       0.154  -8.468  -2.965  0.00  0.00    -0.081 HD
ENDROOT
BRANCH  12  16
ATOM     16  C   UNL     1       2.573  -8.628  -4.167  0.00  0.00    -0.018 A 
ATOM     17  C   UNL     1       1.643  -9.258  -4.973  0.00  0.00    +0.025 A 
ATOM     18  C   UNL     1       2.036  -9.819  -6.175  0.00  0.00    +0.041 A 
ATOM     19  C   UNL     1       3.359  -9.751  -6.573  0.00  0.00    +0.023 A 
ATOM     20  C   UNL     1       4.291  -9.123  -5.771  0.00  0.00    +0.047 A 
ATOM     21  C   UNL     1       3.899  -8.554  -4.567  0.00  0.00    +0.119 A 
ATOM     22 CL   UNL     1       0.866 -10.611  -7.184  0.00  0.00    -0.084 Cl
BRANCH  21  23
ATOM     23  O   UNL     1       4.813  -7.930  -3.779  0.00  0.00    -0.507 OA
ATOM     24  H   UNL     1       5.245  -8.513  -3.140  0.00  0.00    +0.292 HD
ENDBRANCH  21  23
ENDBRANCH  12  16
BRANCH   1  28
ATOM     25  C   UNL     1       0.777  -1.809  -1.336  0.00  0.00    +0.121 A 
ATOM     26  C   UNL     1       0.241  -2.666  -0.383  0.00  0.00    +0.046 A 
ATOM     27  C   UNL     1       0.346  -4.030  -0.543  0.00  0.00    +0.013 A 
ATOM     28  C   UNL     1       0.993  -4.551  -1.667  0.00  0.00    -0.004 A 
ATOM     29  C   UNL     1       1.530  -3.685  -2.623  0.00  0.00    +0.013 A 
ATOM     30  C   UNL     1       1.416  -2.323  -2.458  0.00  0.00    +0.046 A 
BRANCH  25  31
ATOM     31  O   UNL     1       0.671  -0.465  -1.174  0.00  0.00    -0.492 OA
BRANCH  31  33
ATOM     32  C   UNL     1      -0.019   1.526   0.010  0.00  0.00    +0.048 C 
ATOM     33  C   UNL     1       0.002  -0.004   0.002  0.00  0.00    +0.225 C 
ENDBRANCH  31  33
ENDBRANCH  25  31
ENDBRANCH   1  28
BRANCH   9  34
ATOM     34  O   UNL     1      -1.322  -9.729   3.235  0.00  0.00    -0.451 OA
BRANCH  34  35
ATOM     35  C   UNL     1      -1.465 -10.457   4.456  0.00  0.00    +0.230 C 
ATOM     36  C   UNL     1      -2.940 -10.795   4.679  0.00  0.00    +0.048 C 
ENDBRANCH  34  35
ENDBRANCH   9  34
TORSDOF 7
