REMARK  Name = ZINC16589591
REMARK  9 active torsions:
REMARK  status: ('A' for Active; 'I' for Inactive)
REMARK    1  A    between atoms: C_1  and  C_2
REMARK    2  A    between atoms: C_5  and  C_8
REMARK    3  A    between atoms: C_11  and  C_14
REMARK    4  A    between atoms: C_19  and  C_21
REMARK    5  A    between atoms: C_21  and  N_58
REMARK    6  A    between atoms: C_22  and  N_58
REMARK    7  A    between atoms: C_23  and  C_24
REMARK    8  A    between atoms: C_23  and  N_58
REMARK    9  A    between atoms: N_26  and  C_27
REMARK                            x       y       z     vdW  Elec       q    Type
REMARK                         _______ _______ _______ _____ _____    ______ ____
ROOT
ATOM      1  C   UNL     1      -3.383  -0.995  -0.037  0.00  0.00    +0.069 C 
ATOM      2  N   UNL     1      -2.429  -0.130  -0.027  0.00  0.00    -0.181 NA
ATOM      3  N   UNL     1      -1.153  -0.690  -0.041  0.00  0.00    -0.184 N 
ATOM      4  C   UNL     1      -1.277  -2.156  -0.053  0.00  0.00    +0.172 C 
ATOM      5  C   UNL     1      -2.800  -2.390  -0.051  0.00  0.00    +0.090 C 
ATOM      6  C   UNL     1       0.005  -0.000  -0.037  0.00  0.00    +0.219 C 
ATOM      7  O   UNL     1       1.063  -0.593  -0.045  0.00  0.00    -0.276 OA
ENDROOT
BRANCH   1  12
ATOM      8  C   UNL     1      -8.997   0.255  -0.010  0.00  0.00    +0.044 C 
ATOM      9  C   UNL     1      -7.526  -0.072  -0.017  0.00  0.00    -0.050 A 
ATOM     10  C   UNL     1      -6.593   0.949  -0.010  0.00  0.00    +0.004 A 
ATOM     11  C   UNL     1      -5.245   0.657  -0.017  0.00  0.00    +0.010 A 
ATOM     12  C   UNL     1      -4.823  -0.675  -0.029  0.00  0.00    -0.002 A 
ATOM     13  C   UNL     1      -5.771  -1.701  -0.042  0.00  0.00    +0.010 A 
ATOM     14  C   UNL     1      -7.115  -1.394  -0.030  0.00  0.00    +0.004 A 
ENDBRANCH   1  12
BRANCH   4  15
ATOM     15  C   UNL     1      -0.646  -2.752   1.179  0.00  0.00    +0.128 A 
ATOM     16  C   UNL     1       0.066  -3.892   1.226  0.00  0.00    +0.046 A 
ATOM     17  C   UNL     1       0.464  -4.072   2.570  0.00  0.00    +0.041 A 
ATOM     18  C   UNL     1      -0.029  -3.031   3.265  0.00  0.00    +0.195 A 
ATOM     19  O   UNL     1      -0.696  -2.232   2.417  0.00  0.00    -0.466 OA
ENDBRANCH   4  15
BRANCH   6  20
ATOM     20  C   UNL     1      -0.015   1.507  -0.024  0.00  0.00    +0.021 C 
BRANCH  20  22
ATOM     21  C   UNL     1       2.047   1.685  -1.281  0.00  0.00    -0.095 C 
ATOM     22  N   UNL     1       1.378   2.002  -0.002  0.00  0.00    +0.389 N 
ATOM     23  H   UNL     1       1.884   1.539   0.763  0.00  0.00    -0.081 HD
BRANCH  22  24
ATOM     24  C   UNL     1       1.391   3.462   0.228  0.00  0.00    +0.019 C 
BRANCH  24  25
ATOM     25  C   UNL     1       2.812   3.903   0.465  0.00  0.00    +0.201 C 
ATOM     26  O   UNL     1       3.713   3.092   0.430  0.00  0.00    -0.278 OA
ATOM     27  N   UNL     1       3.082   5.199   0.718  0.00  0.00    -0.286 N 
ATOM     28  H   UNL     1       2.371   5.858   0.682  0.00  0.00    +0.155 HD
BRANCH  27  29
ATOM     29  C   UNL     1       4.388   5.595   1.031  0.00  0.00    +0.052 A 
ATOM     30  C   UNL     1       5.469   4.957   0.437  0.00  0.00    +0.025 A 
ATOM     31  C   UNL     1       6.756   5.353   0.744  0.00  0.00    +0.002 A 
ATOM     32  C   UNL     1       6.970   6.376   1.651  0.00  0.00    +0.002 A 
ATOM     33  C   UNL     1       5.896   7.009   2.249  0.00  0.00    +0.022 A 
ATOM     34  C   UNL     1       4.605   6.621   1.942  0.00  0.00    +0.062 A 
ATOM     35 CL   UNL     1       3.257   7.416   2.693  0.00  0.00    -0.082 Cl
ENDBRANCH  27  29
ENDBRANCH  24  25
ENDBRANCH  22  24
ENDBRANCH  20  22
ENDBRANCH   6  20
TORSDOF 7
