REMARK  Name = ZINC66939584
REMARK  8 active torsions:
REMARK  status: ('A' for Active; 'I' for Inactive)
REMARK    1  A    between atoms: C_1  and  C_2
REMARK    2  A    between atoms: C_2  and  C_4
REMARK    3  A    between atoms: C_2  and  N_17
REMARK    4  A    between atoms: C_7  and  N_10
REMARK    5  A    between atoms: N_13  and  C_14
REMARK    6  A    between atoms: N_17  and  C_18
REMARK    7  A    between atoms: C_18  and  C_20
REMARK    8  A    between atoms: C_18  and  C_27
REMARK                            x       y       z     vdW  Elec       q    Type
REMARK                         _______ _______ _______ _____ _____    ______ ____
ROOT
ATOM      1  C   UNL     1       0.166   1.657   0.296  0.00  0.00    -0.009 C 
ATOM      2  C   UNL     1       0.122   0.128   0.295  0.00  0.00    -0.043 C 
ENDROOT
BRANCH   2   3
ATOM      3  C   UNL     1       0.832  -0.395   1.518  0.00  0.00    -0.061 A 
ATOM      4  C   UNL     1       2.213  -0.463   1.538  0.00  0.00    +0.004 A 
ATOM      5  C   UNL     1       2.866  -0.942   2.657  0.00  0.00    +0.023 A 
ATOM      6  C   UNL     1       2.134  -1.355   3.762  0.00  0.00    +0.035 A 
ATOM      7  C   UNL     1       0.747  -1.286   3.739  0.00  0.00    +0.023 A 
ATOM      8  C   UNL     1       0.100  -0.800   2.619  0.00  0.00    +0.004 A 
BRANCH   6   9
ATOM      9  N   UNL     1       2.793  -1.841   4.897  0.00  0.00    -0.269 N 
ATOM     10  C   UNL     1       3.977  -1.314   5.267  0.00  0.00    +0.304 C 
ATOM     11  O   UNL     1       4.517  -0.481   4.565  0.00  0.00    -0.253 OA
ATOM     12  N   UNL     1       4.563  -1.711   6.414  0.00  0.00    -0.296 N 
ATOM     13  H   UNL     1       2.397  -2.558   5.418  0.00  0.00    +0.156 HD
ATOM     14  H   UNL     1       4.132  -2.376   6.973  0.00  0.00    +0.151 HD
BRANCH  12  15
ATOM     15  C   UNL     1       5.850  -1.138   6.815  0.00  0.00    +0.075 C 
ATOM     16  C   UNL     1       6.912  -2.098   7.355  0.00  0.00    +0.024 C 
ATOM     17  C   UNL     1       6.190  -1.142   8.307  0.00  0.00    +0.024 C 
ENDBRANCH  12  15
ENDBRANCH   6   9
ENDBRANCH   2   3
BRANCH   2  18
ATOM     18  N   UNL     1       0.787  -0.381  -0.912  0.00  0.00    +0.394 N 
ATOM     19  H   UNL     1       1.713   0.016  -0.978  0.00  0.00    -0.083 HD
ATOM     20  H   UNL     1       0.855  -1.386  -0.860  0.00  0.00    -0.083 HD
BRANCH  18  21
ATOM     21  C   UNL     1       0.006  -0.003  -2.097  0.00  0.00    +0.047 C 
BRANCH  21  22
ATOM     22  C   UNL     1      -1.327  -0.705  -2.065  0.00  0.00    -0.053 A 
ATOM     23  C   UNL     1      -1.405  -2.018  -1.642  0.00  0.00    +0.005 A 
ATOM     24  C   UNL     1      -2.627  -2.663  -1.612  0.00  0.00    +0.038 A 
ATOM     25  C   UNL     1      -3.773  -1.993  -2.006  0.00  0.00    +0.123 A 
ATOM     26  C   UNL     1      -3.693  -0.678  -2.431  0.00  0.00    +0.038 A 
ATOM     27  C   UNL     1      -2.471  -0.033  -2.455  0.00  0.00    +0.005 A 
ATOM     28  F   UNL     1      -4.968  -2.623  -1.978  0.00  0.00    -0.205 F 
ENDBRANCH  21  22
BRANCH  21  29
ATOM     29  C   UNL     1       0.756  -0.404  -3.341  0.00  0.00    +0.201 C 
ATOM     30  O   UNL     1       1.766  -1.070  -3.253  0.00  0.00    -0.277 OA
ATOM     31  N   UNL     1       0.305  -0.022  -4.553  0.00  0.00    -0.330 N 
ATOM     32  H   UNL     1      -0.503   0.511  -4.623  0.00  0.00    +0.145 HD
ATOM     33  H   UNL     1       0.787  -0.280  -5.353  0.00  0.00    +0.145 HD
ENDBRANCH  21  29
ENDBRANCH  18  21
ENDBRANCH   2  18
TORSDOF 7
