REMARK  Name = ZINC40376073
REMARK  7 active torsions:
REMARK  status: ('A' for Active; 'I' for Inactive)
REMARK    1  A    between atoms: C_1  and  C_2
REMARK    2  A    between atoms: C_6  and  N_8
REMARK    3  A    between atoms: C_14  and  C_19
REMARK    4  A    between atoms: C_19  and  C_20
REMARK    5  A    between atoms: N_22  and  C_23
REMARK    6  A    between atoms: C_28  and  O_29
REMARK    7  A    between atoms: O_29  and  C_30
REMARK                            x       y       z     vdW  Elec       q    Type
REMARK                         _______ _______ _______ _____ _____    ______ ____
ROOT
ATOM      1  N   UNL     1      -3.324  -3.470   0.004  0.00  0.00    -0.215 NA
ATOM      2  C   UNL     1      -2.795  -2.546   0.770  0.00  0.00    +0.202 C 
ATOM      3  N   UNL     1      -2.539  -1.297   0.263  0.00  0.00    -0.369 N 
ATOM      4  N   UNL     1      -2.495  -2.829   2.083  0.00  0.00    -0.295 N 
ATOM      5  C   UNL     1      -2.827  -4.061   2.618  0.00  0.00    +0.230 C 
ATOM      6  N   UNL     1      -2.644  -4.377   3.870  0.00  0.00    -0.236 NA
ATOM      7  C   UNL     1      -3.125  -5.762   4.023  0.00  0.00    +0.208 C 
ATOM      8  C   UNL     1      -3.596  -6.123   2.628  0.00  0.00    +0.274 C 
ATOM      9  O   UNL     1      -4.130  -7.290   2.226  0.00  0.00    -0.268 OA
ATOM     10  N   UNL     1      -3.380  -5.063   1.901  0.00  0.00    -0.176 NA
ATOM     11  H   UNL     1      -2.297  -0.571   0.859  0.00  0.00    +0.159 HD
ATOM     12  H   UNL     1      -2.051  -2.165   2.634  0.00  0.00    +0.172 HD
ATOM     13  H   UNL     1      -2.602  -1.140  -0.693  0.00  0.00    +0.159 HD
ENDROOT
BRANCH   1  19
ATOM     14  C   UNL     1      -2.991  -4.195  -4.827  0.00  0.00    +0.044 C 
ATOM     15  C   UNL     1      -3.592  -3.490  -3.639  0.00  0.00    -0.048 A 
ATOM     16  C   UNL     1      -4.561  -2.520  -3.830  0.00  0.00    +0.003 A 
ATOM     17  C   UNL     1      -5.118  -1.867  -2.745  0.00  0.00    +0.002 A 
ATOM     18  C   UNL     1      -4.710  -2.179  -1.464  0.00  0.00    +0.028 A 
ATOM     19  C   UNL     1      -3.733  -3.156  -1.265  0.00  0.00    +0.068 A 
ATOM     20  C   UNL     1      -3.180  -3.816  -2.364  0.00  0.00    +0.031 A 
ENDBRANCH   1  19
BRANCH   7  21
ATOM     21  C   UNL     1      -4.284  -5.823   5.021  0.00  0.00    +0.132 C 
BRANCH  21  22
ATOM     22  C   UNL     1      -3.781  -5.468   6.396  0.00  0.00    +0.220 C 
ATOM     23  O   UNL     1      -2.611  -5.194   6.563  0.00  0.00    -0.275 OA
ATOM     24  N   UNL     1      -4.631  -5.456   7.442  0.00  0.00    -0.282 N 
ATOM     25  H   UNL     1      -5.547  -5.753   7.326  0.00  0.00    +0.155 HD
BRANCH  24  26
ATOM     26  C   UNL     1      -4.192  -5.015   8.697  0.00  0.00    +0.077 A 
ATOM     27  C   UNL     1      -3.035  -4.257   8.802  0.00  0.00    +0.047 A 
ATOM     28  C   UNL     1      -2.604  -3.822  10.042  0.00  0.00    +0.043 A 
ATOM     29  C   UNL     1      -3.324  -4.141  11.179  0.00  0.00    +0.024 A 
ATOM     30  C   UNL     1      -4.478  -4.896  11.082  0.00  0.00    +0.049 A 
ATOM     31  C   UNL     1      -4.920  -5.330   9.842  0.00  0.00    +0.141 A 
ATOM     32 CL   UNL     1      -1.156  -2.873  10.172  0.00  0.00    -0.083 Cl
BRANCH  31  33
ATOM     33  O   UNL     1      -6.058  -6.068   9.745  0.00  0.00    -0.493 OA
ATOM     34  C   UNL     1      -6.752  -6.354  10.961  0.00  0.00    +0.277 C 
ENDBRANCH  31  33
ENDBRANCH  24  26
ENDBRANCH  21  22
ENDBRANCH   7  21
TORSDOF 5
