REMARK  Name = ZINC08644688
REMARK  7 active torsions:
REMARK  status: ('A' for Active; 'I' for Inactive)
REMARK    1  A    between atoms: C_1  and  C_2
REMARK    2  A    between atoms: C_2  and  C_4
REMARK    3  A    between atoms: C_2  and  S_17
REMARK    4  A    between atoms: N_6  and  C_7
REMARK    5  A    between atoms: S_17  and  C_18
REMARK    6  A    between atoms: C_21  and  C_24
REMARK    7  A    between atoms: N_22  and  N_23
REMARK                            x       y       z     vdW  Elec       q    Type
REMARK                         _______ _______ _______ _____ _____    ______ ____
ROOT
ATOM      1  S   UNL     1       4.738  -4.461  -0.495  0.00  0.00    -0.072 S 
ENDROOT
BRANCH   1   2
ATOM      2  C   UNL     1       6.413  -5.001  -0.402  0.00  0.00    +0.209 A 
ATOM      3  N   UNL     1       7.437  -4.295   0.022  0.00  0.00    -0.121 NA
ATOM      4  N   UNL     1       8.512  -4.996  -0.043  0.00  0.00    -0.127 NA
ATOM      5  C   UNL     1       8.241  -6.191  -0.511  0.00  0.00    +0.183 A 
ATOM      6  N   UNL     1       6.887  -6.234  -0.751  0.00  0.00    -0.224 N 
BRANCH   5   7
ATOM      7  C   UNL     1       9.207  -7.288  -0.734  0.00  0.00    +0.039 A 
ATOM      8  C   UNL     1       9.225  -7.970  -1.952  0.00  0.00    +0.014 A 
ATOM      9  C   UNL     1      10.132  -8.988  -2.156  0.00  0.00    +0.021 A 
ATOM     10  C   UNL     1      11.018  -9.342  -1.152  0.00  0.00    +0.042 A 
ATOM     11  C   UNL     1      11.003  -8.674   0.060  0.00  0.00    +0.040 A 
ATOM     12  C   UNL     1      10.103  -7.649   0.275  0.00  0.00    +0.053 A 
ATOM     13 CL   UNL     1      10.085  -6.812   1.795  0.00  0.00    -0.083 Cl
ATOM     14 CL   UNL     1      12.152 -10.630  -1.415  0.00  0.00    -0.083 Cl
ENDBRANCH   5   7
BRANCH   6  15
ATOM     15  N   UNL     1       6.168  -7.287  -1.238  0.00  0.00    -0.295 N 
ATOM     16  H   UNL     1       6.057  -7.218  -2.239  0.00  0.00    +0.163 HD
ATOM     17  H   UNL     1       6.593  -8.165  -0.982  0.00  0.00    +0.163 HD
ENDBRANCH   6  15
ENDBRANCH   1   2
BRANCH   1  19
ATOM     18  C   UNL     1       5.360  -2.816   1.595  0.00  0.00    +0.029 C 
ATOM     19  C   UNL     1       4.917  -2.772   0.131  0.00  0.00    +0.137 C 
BRANCH  19  20
ATOM     20  C   UNL     1       3.596  -2.055   0.027  0.00  0.00    +0.230 C 
ATOM     21  O   UNL     1       2.561  -2.688   0.020  0.00  0.00    -0.274 OA
ATOM     22  N   UNL     1       3.564  -0.711  -0.057  0.00  0.00    -0.284 N 
ATOM     23  H   UNL     1       4.391  -0.208  -0.115  0.00  0.00    +0.155 HD
BRANCH  22  24
ATOM     24  C   UNL     1       2.335  -0.038  -0.062  0.00  0.00    +0.037 A 
ATOM     25  C   UNL     1       2.217   1.199   0.556  0.00  0.00    +0.027 A 
ATOM     26  C   UNL     1       1.006   1.862   0.552  0.00  0.00    +0.051 A 
ATOM     27  C   UNL     1      -0.097   1.295  -0.070  0.00  0.00    +0.162 A 
ATOM     28  C   UNL     1       0.018   0.058  -0.692  0.00  0.00    +0.164 A 
ATOM     29  C   UNL     1       1.234  -0.608  -0.686  0.00  0.00    +0.072 A 
ATOM     30  O   UNL     1      -1.051  -0.511  -1.315  0.00  0.00    -0.485 OA
ATOM     31  C   UNL     1      -2.342   0.008  -0.980  0.00  0.00    +0.270 C 
ATOM     32  C   UNL     1      -2.267   1.541  -1.012  0.00  0.00    +0.270 C 
ATOM     33  O   UNL     1      -1.286   1.960  -0.057  0.00  0.00    -0.485 OA
ENDBRANCH  22  24
ENDBRANCH  19  20
ENDBRANCH   1  19
TORSDOF 6
