REMARK  Name = ZINC02841251
REMARK  8 active torsions:
REMARK  status: ('A' for Active; 'I' for Inactive)
REMARK    1  A    between atoms: C_1  and  C_2
REMARK    2  A    between atoms: C_2  and  C_3
REMARK    3  A    between atoms: C_2  and  C_4
REMARK    4  A    between atoms: C_4  and  C_5
REMARK    5  A    between atoms: N_7  and  C_8
REMARK    6  A    between atoms: C_9  and  C_19
REMARK    7  A    between atoms: C_10  and  C_13
REMARK    8  A    between atoms: N_21  and  C_22
REMARK                            x       y       z     vdW  Elec       q    Type
REMARK                         _______ _______ _______ _____ _____    ______ ____
ROOT
ATOM      1  C   UNL     1      -5.368   0.836   1.477  0.00  0.00    +0.085 A 
ATOM      2  C   UNL     1      -4.858   1.219   0.245  0.00  0.00    +0.073 A 
ATOM      3  C   UNL     1      -5.622   0.834  -0.927  0.00  0.00    +0.003 A 
ATOM      4  C   UNL     1      -6.767   0.139  -0.707  0.00  0.00    +0.056 A 
ATOM      5  S   UNL     1      -6.827  -0.002   1.067  0.00  0.00    -0.081 S 
ENDROOT
BRANCH   3   6
ATOM      6  C   UNL     1      -5.173   1.181  -2.296  0.00  0.00    -0.017 A 
ATOM      7  C   UNL     1      -4.814   2.493  -2.603  0.00  0.00    +0.008 A 
ATOM      8  C   UNL     1      -4.392   2.808  -3.879  0.00  0.00    +0.001 A 
ATOM      9  C   UNL     1      -4.335   1.829  -4.854  0.00  0.00    +0.000 A 
ATOM     10  C   UNL     1      -4.696   0.527  -4.556  0.00  0.00    +0.001 A 
ATOM     11  C   UNL     1      -5.114   0.198  -3.283  0.00  0.00    +0.008 A 
ENDBRANCH   3   6
BRANCH   1  14
ATOM     12  C   UNL     1      -5.479   0.618   3.832  0.00  0.00    +0.218 C 
ATOM     13  O   UNL     1      -6.520   0.007   3.717  0.00  0.00    -0.275 OA
ATOM     14  N   UNL     1      -4.837   1.070   2.736  0.00  0.00    -0.279 N 
ATOM     15  H   UNL     1      -4.005   1.558   2.828  0.00  0.00    +0.155 HD
BRANCH  12  16
ATOM     16  C   UNL     1      -4.902   0.872   5.201  0.00  0.00    +0.099 C 
BRANCH  16  18
ATOM     17  C   UNL     1      -5.833  -1.262   6.106  0.00  0.00    +0.008 C 
ATOM     18  C   UNL     1      -5.817   0.259   6.262  0.00  0.00    -0.008 C 
ATOM     19  C   UNL     1      -5.299   0.624   7.655  0.00  0.00    +0.008 C 
ENDBRANCH  16  18
ENDBRANCH  12  16
ENDBRANCH   1  14
BRANCH   2  20
ATOM     20  C   UNL     1      -3.606   1.970   0.132  0.00  0.00    +0.251 C 
ATOM     21  O   UNL     1      -3.623   3.187   0.138  0.00  0.00    -0.270 OA
ATOM     22  N   UNL     1      -2.434   1.313   0.021  0.00  0.00    -0.279 N 
ATOM     23  H   UNL     1      -2.425   0.347  -0.065  0.00  0.00    +0.155 HD
BRANCH  22  24
ATOM     24  C   UNL     1      -1.229   2.026   0.030  0.00  0.00    +0.069 A 
ATOM     25  C   UNL     1      -1.160   3.269   0.644  0.00  0.00    +0.026 A 
ATOM     26  C   UNL     1       0.029   3.972   0.646  0.00  0.00    +0.002 A 
ATOM     27  C   UNL     1       1.153   3.438   0.043  0.00  0.00    +0.003 A 
ATOM     28  C   UNL     1       1.091   2.197  -0.565  0.00  0.00    +0.040 A 
ATOM     29  C   UNL     1      -0.096   1.488  -0.571  0.00  0.00    +0.144 A 
ATOM     30  F   UNL     1      -0.157   0.276  -1.166  0.00  0.00    -0.204 F 
ENDBRANCH  22  24
ENDBRANCH   2  20
TORSDOF 6
