REMARK  Name = ZINC03427827
REMARK  10 active torsions:
REMARK  status: ('A' for Active; 'I' for Inactive)
REMARK    1  A    between atoms: C_1  and  C_2
REMARK    2  A    between atoms: C_4  and  N_11
REMARK    3  A    between atoms: C_5  and  O_9
REMARK    4  A    between atoms: O_9  and  C_10
REMARK    5  A    between atoms: C_12  and  C_14
REMARK    6  A    between atoms: C_14  and  N_15
REMARK    7  A    between atoms: N_15  and  C_16
REMARK    8  A    between atoms: N_15  and  C_17
REMARK    9  A    between atoms: C_17  and  C_18
REMARK   10  A    between atoms: N_20  and  C_21
REMARK                            x       y       z     vdW  Elec       q    Type
REMARK                         _______ _______ _______ _____ _____    ______ ____
ROOT
ATOM      1  N   UNL     1       3.671   6.183   0.292  0.00  0.00    +0.389 N 
ATOM      2  C   UNL     1       4.305   5.741   1.541  0.00  0.00    -0.095 C 
ATOM      3  H   UNL     1       4.247   5.765  -0.546  0.00  0.00    -0.081 HD
ENDROOT
BRANCH   1   4
ATOM      4  C   UNL     1       3.703   7.647   0.176  0.00  0.00    +0.019 C 
BRANCH   4   6
ATOM      5  N   UNL     1       5.406   9.422  -0.087  0.00  0.00    -0.284 N 
ATOM      6  C   UNL     1       5.131   8.108   0.036  0.00  0.00    +0.201 C 
ATOM      7  O   UNL     1       6.033   7.297   0.033  0.00  0.00    -0.278 OA
ATOM      8  H   UNL     1       4.599  10.164   0.007  0.00  0.00    +0.155 HD
BRANCH   5  12
ATOM      9  C   UNL     1       9.893   8.470  -1.860  0.00  0.00    +0.045 C 
ATOM     10  C   UNL     1       8.916   9.403  -1.192  0.00  0.00    -0.030 A 
ATOM     11  C   UNL     1       7.620   8.986  -0.949  0.00  0.00    +0.031 A 
ATOM     12  C   UNL     1       6.720   9.843  -0.334  0.00  0.00    +0.076 A 
ATOM     13  C   UNL     1       7.123  11.126   0.031  0.00  0.00    +0.143 A 
ATOM     14  C   UNL     1       8.424  11.535  -0.211  0.00  0.00    +0.067 A 
ATOM     15  C   UNL     1       9.317  10.675  -0.824  0.00  0.00    +0.047 A 
ATOM     16 CL   UNL     1      10.945  11.192  -1.134  0.00  0.00    -0.083 Cl
BRANCH  13  17
ATOM     17  O   UNL     1       6.242  11.972   0.629  0.00  0.00    -0.493 OA
ATOM     18  C   UNL     1       6.725  13.271   0.977  0.00  0.00    +0.277 C 
ENDBRANCH  13  17
ENDBRANCH   5  12
ENDBRANCH   4   6
ENDBRANCH   1   4
BRANCH   1  19
ATOM     19  C   UNL     1       2.295   5.678   0.193  0.00  0.00    +0.019 C 
BRANCH  19  20
ATOM     20  C   UNL     1       2.319   4.176   0.070  0.00  0.00    +0.201 C 
ATOM     21  O   UNL     1       3.379   3.585   0.065  0.00  0.00    -0.278 OA
ATOM     22  N   UNL     1       1.164   3.490  -0.036  0.00  0.00    -0.285 N 
ATOM     23  H   UNL     1       0.209   4.029  -0.111  0.00  0.00    +0.155 HD
BRANCH  22  24
ATOM     24  C   UNL     1       1.181   2.088  -0.050  0.00  0.00    +0.072 A 
ATOM     25  C   UNL     1       2.229   1.412  -0.658  0.00  0.00    +0.029 A 
ATOM     26  C   UNL     1       2.245   0.030  -0.671  0.00  0.00    +0.043 A 
ATOM     27  C   UNL     1       1.215  -0.682  -0.080  0.00  0.00    +0.161 A 
ATOM     28  C   UNL     1       0.166  -0.010   0.527  0.00  0.00    +0.195 A 
ATOM     29  C   UNL     1       0.146   1.374   0.544  0.00  0.00    +0.182 A 
ATOM     30  F   UNL     1      -0.879   2.030   1.131  0.00  0.00    -0.200 F 
ATOM     31  F   UNL     1      -0.839  -0.707   1.103  0.00  0.00    -0.199 F 
ATOM     32  F   UNL     1       1.233  -2.032  -0.096  0.00  0.00    -0.202 F 
ENDBRANCH  22  24
ENDBRANCH  19  20
ENDBRANCH   1  19
TORSDOF 7
