REMARK  Name = ZINC30828903
REMARK  8 active torsions:
REMARK  status: ('A' for Active; 'I' for Inactive)
REMARK    1  A    between atoms: C_1  and  C_2
REMARK    2  A    between atoms: C_4  and  N_32
REMARK    3  A    between atoms: C_7  and  C_8
REMARK    4  A    between atoms: C_11  and  C_13
REMARK    5  A    between atoms: C_14  and  C_15
REMARK    6  A    between atoms: N_17  and  C_18
REMARK    7  A    between atoms: C_23  and  N_24
REMARK    8  A    between atoms: N_27  and  C_30
REMARK                            x       y       z     vdW  Elec       q    Type
REMARK                         _______ _______ _______ _____ _____    ______ ____
ROOT
ATOM      1  C   UNL     1       3.639  -2.009   0.058  0.00  0.00    +0.241 C 
ATOM      2  O   UNL     1       2.593  -2.633   0.065  0.00  0.00    -0.270 OA
ATOM      3  N   UNL     1       3.621  -0.664  -0.036  0.00  0.00    -0.280 N 
ATOM      4  H   UNL     1       4.565  -0.106  -0.116  0.00  0.00    +0.155 HD
ENDROOT
BRANCH   3   5
ATOM      5  C   UNL     1       2.400   0.021  -0.032  0.00  0.00    +0.056 A 
ATOM      6  C   UNL     1       1.283  -0.544  -0.629  0.00  0.00    +0.025 A 
ATOM      7  C   UNL     1       0.078   0.134  -0.624  0.00  0.00    +0.003 A 
ATOM      8  C   UNL     1      -0.018   1.377  -0.025  0.00  0.00    +0.022 A 
ATOM      9  C   UNL     1       1.091   1.949   0.573  0.00  0.00    +0.064 A 
ATOM     10  C   UNL     1       2.304   1.274   0.573  0.00  0.00    +0.070 A 
ATOM     11 CL   UNL     1       0.965   3.509   1.323  0.00  0.00    -0.082 Cl
BRANCH  10  12
ATOM     12  N   UNL     1       3.427   1.850   1.177  0.00  0.00    -0.331 N 
ATOM     13  C   UNL     1       3.221   2.015   2.623  0.00  0.00    +0.086 C 
ATOM     14  C   UNL     1       4.497   2.572   3.258  0.00  0.00    -0.060 C 
ATOM     15  N   UNL     1       4.835   3.856   2.628  0.00  0.00    +0.380 N 
ATOM     16  C   UNL     1       5.041   3.691   1.182  0.00  0.00    -0.060 C 
ATOM     17  C   UNL     1       3.765   3.134   0.547  0.00  0.00    +0.086 C 
ATOM     18  C   UNL     1       6.013   4.460   3.263  0.00  0.00    -0.096 C 
ATOM     19  H   UNL     1       3.986   4.539   2.774  0.00  0.00    -0.082 HD
ENDBRANCH  10  12
ENDBRANCH   3   5
BRANCH   1  21
ATOM     20  C   UNL     1       4.891  -4.049   0.244  0.00  0.00    +0.051 C 
ATOM     21  C   UNL     1       4.873  -2.695   0.149  0.00  0.00    +0.071 C 
BRANCH  20  25
ATOM     22  C   UNL     1       8.285  -5.128   0.437  0.00  0.00    +0.136 A 
ATOM     23  C   UNL     1       7.662  -6.342   0.500  0.00  0.00    +0.050 A 
ATOM     24  C   UNL     1       6.287  -6.104   0.436  0.00  0.00    +0.050 A 
ATOM     25  C   UNL     1       6.124  -4.735   0.335  0.00  0.00    +0.129 A 
ATOM     26  O   UNL     1       7.349  -4.168   0.333  0.00  0.00    -0.455 OA
BRANCH  22  33
ATOM     27  C   UNL     1       9.525  -3.451  -1.569  0.00  0.00    +0.044 C 
ATOM     28  C   UNL     1      10.355  -4.099  -0.490  0.00  0.00    -0.038 A 
ATOM     29  C   UNL     1      11.719  -3.897  -0.451  0.00  0.00    +0.036 A 
ATOM     30  C   UNL     1      12.481  -4.491   0.539  0.00  0.00    +0.126 A 
ATOM     31  C   UNL     1      11.883  -5.291   1.496  0.00  0.00    +0.033 A 
ATOM     32  C   UNL     1      10.520  -5.498   1.472  0.00  0.00    +0.014 A 
ATOM     33  C   UNL     1       9.744  -4.906   0.472  0.00  0.00    +0.020 A 
BRANCH  30  34
ATOM     34  N   UNL     1      13.944  -4.268   0.575  0.00  0.00    +0.056 N 
ATOM     35  O   UNL     1      14.474  -3.563  -0.266  0.00  0.00    -0.126 OA
ATOM     36  O   UNL     1      14.619  -4.789   1.445  0.00  0.00    -0.126 OA
ENDBRANCH  30  34
ENDBRANCH  22  33
ENDBRANCH  20  25
ENDBRANCH   1  21
TORSDOF 6
