REMARK  Name = ZINC64461052
REMARK  3 active torsions:
REMARK  status: ('A' for Active; 'I' for Inactive)
REMARK    1  A    between atoms: C_1  and  C_2
REMARK    2  A    between atoms: C_16  and  C_18
REMARK    3  A    between atoms: N_20  and  C_21
REMARK                            x       y       z     vdW  Elec       q    Type
REMARK                         _______ _______ _______ _____ _____    ______ ____
ROOT
ATOM      1  C   UNL     1      -0.018   1.503   0.010  0.00  0.00    +0.044 C 
ATOM      2  C   UNL     1       0.002  -0.004   0.002  0.00  0.00    -0.050 A 
ATOM      3  C   UNL     1       0.006  -0.686  -1.206  0.00  0.00    +0.005 A 
ATOM      4  C   UNL     1       0.024  -2.066  -1.237  0.00  0.00    +0.027 A 
ATOM      5  C   UNL     1       0.039  -2.776  -0.044  0.00  0.00    +0.062 A 
ATOM      6  C   UNL     1       0.036  -2.088   1.173  0.00  0.00    +0.065 A 
ATOM      7  C   UNL     1       0.023  -0.695   1.195  0.00  0.00    +0.018 A 
ATOM      8  C   UNL     1       0.053  -2.891   2.409  0.00  0.00    +0.281 A 
ATOM      9  O   UNL     1       0.051  -2.363   3.508  0.00  0.00    -0.265 OA
ATOM     10  N   UNL     1       0.070  -4.223   2.277  0.00  0.00    -0.193 NA
ATOM     11  C   UNL     1       0.072  -4.845   1.111  0.00  0.00    +0.142 A 
ATOM     12  N   UNL     1       0.057  -4.185  -0.063  0.00  0.00    -0.284 N 
ATOM     13  C   UNL     1       0.060  -4.856  -1.255  0.00  0.00    +0.128 C 
ATOM     14  S   UNL     1       0.044  -4.179  -2.828  0.00  0.00    -0.025 S 
ATOM     15  S   UNL     1       0.085  -6.580  -0.824  0.00  0.00    -0.079 S 
ATOM     16  C   UNL     1       0.092  -6.376   1.000  0.00  0.00    +0.205 C 
ENDROOT
BRANCH  16  17
ATOM     17  C   UNL     1       1.345  -6.951   1.608  0.00  0.00    +0.234 C 
ATOM     18  O   UNL     1       2.373  -6.307   1.602  0.00  0.00    -0.274 OA
ATOM     19  N   UNL     1       1.324  -8.181   2.159  0.00  0.00    -0.311 N 
ATOM     20  H   UNL     1       0.502  -8.696   2.164  0.00  0.00    +0.149 HD
BRANCH  19  21
ATOM     21  C   UNL     1       2.542  -8.739   2.751  0.00  0.00    +0.073 C 
ATOM     22  C   UNL     1       3.364  -9.475   1.672  0.00  0.00    +0.022 C 
ATOM     23  C   UNL     1       3.952 -10.702   2.413  0.00  0.00    +0.002 C 
ATOM     24  C   UNL     1       2.792 -11.124   3.348  0.00  0.00    +0.002 C 
ATOM     25  C   UNL     1       2.178  -9.788   3.816  0.00  0.00    +0.022 C 
ENDBRANCH  19  21
ENDBRANCH  16  17
TORSDOF 2
