REMARK  Name = ZINC20555659
REMARK  6 active torsions:
REMARK  status: ('A' for Active; 'I' for Inactive)
REMARK    1  A    between atoms: C_4  and  N_7
REMARK    2  A    between atoms: C_8  and  S_12
REMARK    3  A    between atoms: S_12  and  C_13
REMARK    4  A    between atoms: C_13  and  C_14
REMARK    5  A    between atoms: C_19  and  N_21
REMARK    6  A    between atoms: N_24  and  C_25
REMARK                            x       y       z     vdW  Elec       q    Type
REMARK                         _______ _______ _______ _____ _____    ______ ____
ROOT
ATOM      1  C   UNL     1       2.837  -5.006   2.680  0.00  0.00    +0.061 A 
ATOM      2  C   UNL     1       3.199  -5.060   4.014  0.00  0.00    +0.096 A 
ATOM      3  C   UNL     1       2.720  -6.113   4.793  0.00  0.00    +0.275 A 
ATOM      4  O   UNL     1       3.050  -6.202   6.104  0.00  0.00    -0.266 OA
ATOM      5  N   UNL     1       1.937  -7.026   4.234  0.00  0.00    -0.172 NA
ATOM      6  C   UNL     1       1.610  -6.941   2.947  0.00  0.00    +0.257 A 
ATOM      7  N   UNL     1       2.048  -5.944   2.183  0.00  0.00    -0.215 NA
ENDROOT
BRANCH   6   8
ATOM      8  N   UNL     1       0.805  -7.893   2.401  0.00  0.00    -0.177 NA
ATOM      9  C   UNL     1       0.248  -8.805   3.171  0.00  0.00    +0.203 C 
ATOM     10  N   UNL     1       0.361  -8.713   4.532  0.00  0.00    -0.369 N 
ATOM     11  N   UNL     1      -0.444  -9.846   2.609  0.00  0.00    -0.326 N 
ATOM     12  H   UNL     1       0.300  -7.848   4.967  0.00  0.00    +0.159 HD
ATOM     13  H   UNL     1      -0.890 -10.494   3.177  0.00  0.00    +0.169 HD
ATOM     14  H   UNL     1       0.501  -9.513   5.062  0.00  0.00    +0.159 HD
BRANCH  11  15
ATOM     15  C   UNL     1      -0.506  -9.975   1.218  0.00  0.00    +0.043 A 
ATOM     16  C   UNL     1       0.592  -9.637   0.438  0.00  0.00    +0.026 A 
ATOM     17  C   UNL     1       0.528  -9.764  -0.936  0.00  0.00    +0.003 A 
ATOM     18  C   UNL     1      -0.629 -10.228  -1.536  0.00  0.00    +0.020 A 
ATOM     19  C   UNL     1      -1.725 -10.565  -0.762  0.00  0.00    +0.043 A 
ATOM     20  C   UNL     1      -1.665 -10.445   0.614  0.00  0.00    +0.045 A 
ATOM     21 CL   UNL     1      -3.176 -11.146  -1.519  0.00  0.00    -0.083 Cl
ENDBRANCH  11  15
ENDBRANCH   6   8
BRANCH   1  22
ATOM     22  C   UNL     1       3.333  -3.885   1.803  0.00  0.00    +0.133 C 
BRANCH  22  23
ATOM     23  S   UNL     1       2.160  -2.503   1.867  0.00  0.00    -0.078 S 
BRANCH  23  25
ATOM     24  N   UNL     1       2.360  -0.065   0.523  0.00  0.00    -0.187 N 
ATOM     25  C   UNL     1       2.871  -1.290   0.805  0.00  0.00    +0.214 A 
ATOM     26  N   UNL     1       3.999  -1.400   0.137  0.00  0.00    -0.101 NA
ATOM     27  N   UNL     1       4.226  -0.334  -0.541  0.00  0.00    -0.022 NA
ATOM     28  N   UNL     1       3.278   0.521  -0.365  0.00  0.00    -0.038 NA
BRANCH  24  32
ATOM     29  C   UNL     1      -1.182   1.595   1.966  0.00  0.00    +0.000 A 
ATOM     30  C   UNL     1      -0.083   2.404   1.739  0.00  0.00    +0.002 A 
ATOM     31  C   UNL     1       1.092   1.856   1.261  0.00  0.00    +0.028 A 
ATOM     32  C   UNL     1       1.169   0.493   1.009  0.00  0.00    +0.070 A 
ATOM     33  C   UNL     1       0.064  -0.316   1.239  0.00  0.00    +0.028 A 
ATOM     34  C   UNL     1      -1.108   0.237   1.716  0.00  0.00    +0.002 A 
ENDBRANCH  24  32
ENDBRANCH  23  25
ENDBRANCH  22  23
ENDBRANCH   1  22
TORSDOF 6
