REMARK  Name = ZINC18189346
REMARK  5 active torsions:
REMARK  status: ('A' for Active; 'I' for Inactive)
REMARK    1  A    between atoms: C_5  and  S_7
REMARK    2  A    between atoms: S_7  and  C_8
REMARK    3  A    between atoms: C_8  and  C_9
REMARK    4  A    between atoms: N_15  and  C_16
REMARK    5  A    between atoms: N_17  and  C_18
REMARK                            x       y       z     vdW  Elec       q    Type
REMARK                         _______ _______ _______ _____ _____    ______ ____
ROOT
ATOM      1  C   UNL     1       2.662  -4.268   0.045  0.00  0.00    +0.034 A 
ATOM      2  C   UNL     1       3.254  -4.788  -1.057  0.00  0.00    +0.094 A 
ATOM      3  C   UNL     1       3.597  -6.153  -1.074  0.00  0.00    +0.275 A 
ATOM      4  N   UNL     1       3.341  -6.912  -0.021  0.00  0.00    -0.173 NA
ATOM      5  C   UNL     1       2.758  -6.399   1.063  0.00  0.00    +0.234 A 
ATOM      6  N   UNL     1       2.417  -5.075   1.114  0.00  0.00    -0.327 N 
ATOM      7  N   UNL     1       2.510  -7.184   2.112  0.00  0.00    -0.177 NA
ATOM      8  O   UNL     1       4.188  -6.688  -2.166  0.00  0.00    -0.266 OA
ATOM      9  H   UNL     1       1.998  -4.712   1.909  0.00  0.00    +0.169 HD
ENDROOT
BRANCH   7  10
ATOM     10  C   UNL     1       2.845  -8.481   2.072  0.00  0.00    +0.225 C 
ATOM     11  N   UNL     1       3.423  -8.982   0.994  0.00  0.00    -0.212 NA
ATOM     12  N   UNL     1       2.588  -9.294   3.158  0.00  0.00    -0.368 N 
ATOM     13  H   UNL     1       2.050  -8.963   3.895  0.00  0.00    +0.159 HD
ATOM     14  H   UNL     1       2.945 -10.195   3.185  0.00  0.00    +0.159 HD
BRANCH  11  15
ATOM     15  C   UNL     1       3.645 -10.328   0.900  0.00  0.00    +0.086 A 
ATOM     16  C   UNL     1       2.608 -11.229   1.151  0.00  0.00    +0.031 A 
ATOM     17  C   UNL     1       2.840 -12.586   1.055  0.00  0.00    +0.022 A 
ATOM     18  C   UNL     1       4.096 -13.055   0.709  0.00  0.00    +0.042 A 
ATOM     19  C   UNL     1       5.128 -12.168   0.459  0.00  0.00    +0.042 A 
ATOM     20  C   UNL     1       4.910 -10.807   0.545  0.00  0.00    +0.068 A 
ATOM     21 CL   UNL     1       6.203  -9.696   0.223  0.00  0.00    -0.081 Cl
ATOM     22 CL   UNL     1       4.377 -14.764   0.590  0.00  0.00    -0.083 Cl
ENDBRANCH  11  15
ENDBRANCH   7  10
BRANCH   1  23
ATOM     23  C   UNL     1       2.284  -2.809   0.089  0.00  0.00    +0.129 C 
BRANCH  23  24
ATOM     24  S   UNL     1       0.487  -2.644  -0.100  0.00  0.00    -0.100 S 
BRANCH  24  29
ATOM     25  C   UNL     1      -1.290   0.957  -0.084  0.00  0.00    +0.004 A 
ATOM     26  C   UNL     1      -0.188   1.785   0.087  0.00  0.00    +0.020 A 
ATOM     27  C   UNL     1       1.069   1.225   0.193  0.00  0.00    +0.112 A 
ATOM     28  N   UNL     1       1.234  -0.083   0.134  0.00  0.00    -0.249 NA
ATOM     29  C   UNL     1       0.209  -0.906  -0.028  0.00  0.00    +0.097 A 
ATOM     30  C   UNL     1      -1.086  -0.409  -0.143  0.00  0.00    +0.035 A 
ENDBRANCH  24  29
ENDBRANCH  23  24
ENDBRANCH   1  23
TORSDOF 5
