REMARK  Name = ZINC09348155
REMARK  8 active torsions:
REMARK  status: ('A' for Active; 'I' for Inactive)
REMARK    1  A    between atoms: C_1  and  C_2
REMARK    2  A    between atoms: C_5  and  C_8
REMARK    3  A    between atoms: C_13  and  C_22
REMARK    4  A    between atoms: C_18  and  C_20
REMARK    5  A    between atoms: C_25  and  O_30
REMARK    6  A    between atoms: C_26  and  O_28
REMARK    7  A    between atoms: O_28  and  C_29
REMARK    8  A    between atoms: O_30  and  C_31
REMARK                            x       y       z     vdW  Elec       q    Type
REMARK                         _______ _______ _______ _____ _____    ______ ____
ROOT
ATOM      1  C   UNL     1       0.059  -4.275  -0.021  0.00  0.00    +0.032 C 
ATOM      2  C   UNL     1       1.311  -4.779   0.701  0.00  0.00    +0.060 C 
ATOM      3  C   UNL     1       1.308  -6.289   0.726  0.00  0.00    +0.020 C 
ATOM      4  C   UNL     1       0.149  -6.980   0.774  0.00  0.00    +0.041 C 
ATOM      5  C   UNL     1       0.115  -8.492   0.818  0.00  0.00    +0.176 C 
ATOM      6  N   UNL     1       1.422  -9.030   0.462  0.00  0.00    -0.221 N 
ATOM      7  C   UNL     1       2.550  -8.279   0.412  0.00  0.00    +0.219 A 
ATOM      8  N   UNL     1       3.538  -9.058   0.072  0.00  0.00    -0.198 NA
ATOM      9  C   UNL     1       3.085 -10.303  -0.107  0.00  0.00    +0.150 A 
ATOM     10  N   UNL     1       1.795 -10.329   0.121  0.00  0.00    -0.153 NA
ATOM     11  C   UNL     1       3.925 -11.489  -0.508  0.00  0.00    +0.090 C 
ATOM     12  N   UNL     1       2.528  -6.922   0.691  0.00  0.00    -0.287 N 
ATOM     13  C   UNL     1      -1.089  -6.311   0.781  0.00  0.00    +0.164 C 
ATOM     14  O   UNL     1      -2.114  -6.961   0.841  0.00  0.00    -0.292 OA
ATOM     15  C   UNL     1      -1.172  -4.812   0.716  0.00  0.00    +0.088 C 
ATOM     16  H   UNL     1       3.349  -6.433   0.857  0.00  0.00    +0.155 HD
ENDROOT
BRANCH   1  21
ATOM     17  C   UNL     1      -0.018   1.503   0.010  0.00  0.00    +0.044 C 
ATOM     18  C   UNL     1       0.002  -0.004   0.002  0.00  0.00    -0.050 A 
ATOM     19  C   UNL     1       0.006  -0.689  -1.199  0.00  0.00    +0.003 A 
ATOM     20  C   UNL     1       0.025  -2.071  -1.206  0.00  0.00    +0.004 A 
ATOM     21  C   UNL     1       0.040  -2.768  -0.013  0.00  0.00    -0.043 A 
ATOM     22  C   UNL     1       0.037  -2.084   1.188  0.00  0.00    +0.004 A 
ATOM     23  C   UNL     1       0.023  -0.702   1.195  0.00  0.00    +0.003 A 
ENDBRANCH   1  21
BRANCH   5  24
ATOM     24  C   UNL     1      -0.249  -8.944   2.208  0.00  0.00    -0.015 A 
ATOM     25  C   UNL     1       0.550  -8.590   3.280  0.00  0.00    +0.010 A 
ATOM     26  C   UNL     1       0.221  -9.002   4.558  0.00  0.00    +0.050 A 
ATOM     27  C   UNL     1      -0.912  -9.772   4.767  0.00  0.00    +0.162 A 
ATOM     28  C   UNL     1      -1.717 -10.128   3.688  0.00  0.00    +0.162 A 
ATOM     29  C   UNL     1      -1.384  -9.707   2.411  0.00  0.00    +0.055 A 
BRANCH  28  30
ATOM     30  O   UNL     1      -2.830 -10.883   3.889  0.00  0.00    -0.491 OA
ATOM     31  C   UNL     1      -3.608 -11.210   2.736  0.00  0.00    +0.277 C 
ENDBRANCH  28  30
BRANCH  27  32
ATOM     32  O   UNL     1      -1.237 -10.179   6.023  0.00  0.00    -0.491 OA
ATOM     33  C   UNL     1      -0.365  -9.777   7.081  0.00  0.00    +0.277 C 
ENDBRANCH  27  32
ENDBRANCH   5  24
TORSDOF 4
