REMARK  Name = ZINC40544879
REMARK  5 active torsions:
REMARK  status: ('A' for Active; 'I' for Inactive)
REMARK    1  A    between atoms: C_5  and  N_8
REMARK    2  A    between atoms: N_11  and  CA_12
REMARK    3  A    between atoms: CA_12  and  CB_14
REMARK    4  A    between atoms: CA_12  and  C_18
REMARK    5  A    between atoms: CB_14  and  CG_15
REMARK                            x       y       z     vdW  Elec       q    Type
REMARK                         _______ _______ _______ _____ _____    ______ ____
ROOT
ATOM      1  N   UNK A   0       1.237  -2.081  -0.022  0.00  0.00    -0.267 N 
ATOM      2  C   UNK A   0       0.155  -2.775   0.384  0.00  0.00    +0.305 C 
ATOM      3  O   UNK A   0      -0.870  -2.188   0.671  0.00  0.00    -0.252 OA
ATOM      4  N   ASN A   1       0.210  -4.119   0.471  0.00  0.00    -0.285 N 
ATOM      5  H   UNK A   0       2.031  -2.552  -0.321  0.00  0.00    +0.156 HD
ATOM      6  H   ASN A   1       1.029  -4.587   0.242  0.00  0.00    +0.151 HD
ENDROOT
BRANCH   1  11
ATOM      7  C   UNK A   0       0.774   1.399  -1.124  0.00  0.00    +0.032 A 
ATOM      8  C   UNK A   0       1.174   2.087   0.007  0.00  0.00    +0.020 A 
ATOM      9  C   UNK A   0       1.595   1.395   1.129  0.00  0.00    +0.032 A 
ATOM     10  C   UNK A   0       1.617   0.013   1.122  0.00  0.00    +0.041 A 
ATOM     11  C   UNK A   0       1.216  -0.681  -0.012  0.00  0.00    +0.063 A 
ATOM     12  C   UNK A   0       0.793   0.017  -1.137  0.00  0.00    +0.041 A 
ATOM     13 BR   UNK A   0       0.246  -0.923  -2.683  0.00  0.00    -0.048 Br
ATOM     14 BR   UNK A   0       2.194  -0.931   2.655  0.00  0.00    -0.048 Br
ATOM     15 BR   UNK A   0       1.147   3.978   0.020  0.00  0.00    -0.050 Br
ENDBRANCH   1  11
BRANCH   4  16
ATOM     16  CA  ASN A   1      -0.966  -4.873   0.912  0.00  0.00    +0.196 C 
BRANCH  16  17
ATOM     17  C   ASN A   1      -1.868  -5.131  -0.267  0.00  0.00    +0.376 C 
ATOM     18  O   ASN A   1      -1.480  -4.888  -1.396  0.00  0.00    -0.244 OA
ATOM     19  OXT ASN A   1      -2.987  -5.583  -0.091  0.00  0.00    -0.244 OA
ENDBRANCH  16  17
BRANCH  16  20
ATOM     20  CB  ASN A   1      -0.520  -6.206   1.515  0.00  0.00    +0.129 C 
BRANCH  20  21
ATOM     21  CG  ASN A   1       0.281  -5.950   2.766  0.00  0.00    +0.213 C 
ATOM     22  OD1 ASN A   1       0.476  -4.812   3.138  0.00  0.00    -0.276 OA
ATOM     23  ND2 ASN A   1       0.781  -6.984   3.470  0.00  0.00    -0.329 N 
ATOM     24 HD21 ASN A   1       0.625  -7.894   3.172  0.00  0.00    +0.145 HD
ATOM     25 HD22 ASN A   1       1.296  -6.819   4.275  0.00  0.00    +0.145 HD
ENDBRANCH  20  21
ENDBRANCH  16  20
ENDBRANCH   4  16
TORSDOF 5
