REMARK  Name = ZINC00705608
REMARK  7 active torsions:
REMARK  status: ('A' for Active; 'I' for Inactive)
REMARK    1  A    between atoms: C_1  and  C_2
REMARK    2  A    between atoms: C_7  and  C_8
REMARK    3  A    between atoms: C_14  and  C_29
REMARK    4  A    between atoms: C_15  and  C_22
REMARK    5  A    between atoms: C_17  and  C_20
REMARK    6  A    between atoms: C_18  and  N_19
REMARK    7  A    between atoms: C_27  and  C_28
REMARK                            x       y       z     vdW  Elec       q    Type
REMARK                         _______ _______ _______ _____ _____    ______ ____
ROOT
ATOM      1  C   UNL     1      -7.289   0.193  -2.548  0.00  0.00    +0.028 C 
ATOM      2  C   UNL     1      -6.434   1.184  -2.187  0.00  0.00    +0.080 A 
ATOM      3  C   UNL     1      -6.416   2.000  -0.967  0.00  0.00    +0.271 A 
ATOM      4  O   UNL     1      -7.248   1.836  -0.095  0.00  0.00    -0.266 OA
ATOM      5  N   UNL     1      -5.454   2.936  -0.836  0.00  0.00    -0.256 N 
ATOM      6  C   UNL     1      -4.542   3.066  -1.865  0.00  0.00    +0.104 A 
ATOM      7  C   UNL     1      -3.522   3.961  -1.875  0.00  0.00    +0.072 C 
ATOM      8  C   UNL     1      -3.362   4.883  -0.683  0.00  0.00    +0.106 C 
ATOM      9  C   UNL     1      -4.381   4.709   0.425  0.00  0.00    +0.080 C 
ATOM     10  C   UNL     1      -5.341   3.769   0.284  0.00  0.00    +0.119 C 
ATOM     11  S   UNL     1      -5.030   1.846  -3.069  0.00  0.00    -0.065 S 
ENDROOT
BRANCH   1  18
ATOM     12  C   UNL     1      -9.951  -0.464  -3.472  0.00  0.00    +0.044 C 
ATOM     13  C   UNL     1      -9.578  -0.624  -2.021  0.00  0.00    -0.043 A 
ATOM     14  C   UNL     1     -10.507  -1.093  -1.116  0.00  0.00    +0.004 A 
ATOM     15  C   UNL     1     -10.167  -1.235   0.219  0.00  0.00    +0.000 A 
ATOM     16  C   UNL     1      -8.893  -0.914   0.655  0.00  0.00    +0.001 A 
ATOM     17  C   UNL     1      -7.952  -0.449  -0.238  0.00  0.00    +0.008 A 
ATOM     18  C   UNL     1      -8.287  -0.302  -1.589  0.00  0.00    -0.021 A 
ENDBRANCH   1  18
BRANCH   8  19
ATOM     19  C   UNL     1      -1.990   4.665  -0.100  0.00  0.00    -0.031 A 
ATOM     20  C   UNL     1      -1.639   3.424   0.399  0.00  0.00    +0.005 A 
ATOM     21  C   UNL     1      -0.382   3.227   0.939  0.00  0.00    +0.000 A 
ATOM     22  C   UNL     1       0.528   4.267   0.972  0.00  0.00    +0.000 A 
ATOM     23  C   UNL     1       0.179   5.506   0.469  0.00  0.00    +0.003 A 
ATOM     24  C   UNL     1      -1.080   5.705  -0.067  0.00  0.00    -0.046 A 
ATOM     25  C   UNL     1      -1.460   7.057  -0.615  0.00  0.00    +0.044 C 
ENDBRANCH   8  19
BRANCH  10  26
ATOM     26  N   UNL     1      -6.259   3.622   1.296  0.00  0.00    -0.343 N 
ATOM     27  H   UNL     1      -6.479   4.377   1.863  0.00  0.00    +0.144 HD
ATOM     28  H   UNL     1      -6.686   2.764   1.443  0.00  0.00    +0.144 HD
ENDBRANCH  10  26
BRANCH   9  29
ATOM     29  C   UNL     1      -4.328   5.526   1.599  0.00  0.00    +0.099 C 
ATOM     30  N   UNL     1      -4.285   6.174   2.531  0.00  0.00    -0.191 NA
ENDBRANCH   9  29
BRANCH   7  31
ATOM     31  C   UNL     1      -2.618   4.031  -2.984  0.00  0.00    +0.098 C 
ATOM     32  N   UNL     1      -1.902   4.087  -3.864  0.00  0.00    -0.191 NA
ENDBRANCH   7  31
TORSDOF 5
