REMARK  Name = ZINC18062595
REMARK  5 active torsions:
REMARK  status: ('A' for Active; 'I' for Inactive)
REMARK    1  A    between atoms: C_1  and  O_2
REMARK    2  A    between atoms: O_2  and  C_3
REMARK    3  A    between atoms: C_3  and  C_5
REMARK    4  A    between atoms: N_7  and  C_24
REMARK    5  A    between atoms: N_14  and  C_17
REMARK                            x       y       z     vdW  Elec       q    Type
REMARK                         _______ _______ _______ _____ _____    ______ ____
ROOT
ATOM      1  C   UNL     1       0.713  -1.849  -1.449  0.00  0.00    +0.157 C 
ATOM      2  N   UNL     1       0.227  -2.447  -0.409  0.00  0.00    -0.176 NA
ATOM      3  N   UNL     1       0.379  -3.832  -0.428  0.00  0.00    -0.211 N 
ATOM      4  C   UNL     1       1.069  -4.223  -1.666  0.00  0.00    +0.203 C 
ATOM      5  C   UNL     1       1.305  -2.872  -2.391  0.00  0.00    +0.164 C 
ATOM      6  C   UNL     1       2.812  -2.742  -2.400  0.00  0.00    +0.238 C 
ATOM      7  O   UNL     1       3.433  -1.817  -2.877  0.00  0.00    -0.274 OA
ATOM      8  N   UNL     1       3.353  -3.808  -1.798  0.00  0.00    -0.208 N 
ATOM      9  C   UNL     1       2.459  -4.718  -1.338  0.00  0.00    +0.250 C 
ATOM     10  O   UNL     1       2.717  -5.757  -0.768  0.00  0.00    -0.273 OA
ENDROOT
BRANCH   8  11
ATOM     11  C   UNL     1       4.737  -3.975  -1.651  0.00  0.00    +0.044 A 
ATOM     12  C   UNL     1       5.455  -3.127  -0.818  0.00  0.00    +0.025 A 
ATOM     13  C   UNL     1       6.819  -3.294  -0.674  0.00  0.00    +0.017 A 
ATOM     14  C   UNL     1       7.469  -4.304  -1.360  0.00  0.00    +0.018 A 
ATOM     15  C   UNL     1       6.756  -5.150  -2.191  0.00  0.00    +0.017 A 
ATOM     16  C   UNL     1       5.391  -4.991  -2.333  0.00  0.00    +0.025 A 
ATOM     17 BR   UNL     1       9.336  -4.529  -1.162  0.00  0.00    -0.050 Br
ENDBRANCH   8  11
BRANCH   3  18
ATOM     18  C   UNL     1      -0.054  -4.708   0.569  0.00  0.00    +0.052 A 
ATOM     19  C   UNL     1       0.163  -6.074   0.437  0.00  0.00    +0.026 A 
ATOM     20  C   UNL     1      -0.266  -6.938   1.425  0.00  0.00    +0.017 A 
ATOM     21  C   UNL     1      -0.911  -6.444   2.546  0.00  0.00    +0.018 A 
ATOM     22  C   UNL     1      -1.129  -5.084   2.680  0.00  0.00    +0.017 A 
ATOM     23  C   UNL     1      -0.697  -4.215   1.698  0.00  0.00    +0.026 A 
ATOM     24 BR   UNL     1      -1.498  -7.631   3.896  0.00  0.00    -0.050 Br
ENDBRANCH   3  18
BRANCH   1  25
ATOM     25  C   UNL     1       0.686  -0.449  -1.674  0.00  0.00    +0.356 C 
ATOM     26  O   UNL     1       1.168   0.012  -2.691  0.00  0.00    -0.244 OA
BRANCH  25  28
ATOM     27  C   UNL     1       0.137   1.769  -1.050  0.00  0.00    +0.280 C 
ATOM     28  O   UNL     1       0.128   0.370  -0.759  0.00  0.00    -0.464 OA
ENDBRANCH  25  28
ENDBRANCH   1  25
TORSDOF 4
