REMARK  Name = ZINC48744301
REMARK  10 active torsions:
REMARK  status: ('A' for Active; 'I' for Inactive)
REMARK    1  A    between atoms: C_1  and  C_2
REMARK    2  A    between atoms: C_2  and  C_3
REMARK    3  A    between atoms: N_5  and  C_6
REMARK    4  A    between atoms: C_9  and  N_12
REMARK    5  A    between atoms: C_13  and  C_15
REMARK    6  A    between atoms: N_17  and  C_18
REMARK    7  A    between atoms: C_18  and  C_19
REMARK    8  A    between atoms: C_19  and  N_24
REMARK    9  A    between atoms: N_24  and  C_25
REMARK   10  A    between atoms: N_24  and  C_26
REMARK                            x       y       z     vdW  Elec       q    Type
REMARK                         _______ _______ _______ _____ _____    ______ ____
ROOT
ATOM      1  N   UNL     1      -6.854  -4.004   0.587  0.00  0.00    -0.278 N 
ATOM      2  C   UNL     1      -6.954  -5.340   0.727  0.00  0.00    +0.303 C 
ATOM      3  O   UNL     1      -5.950  -6.018   0.815  0.00  0.00    -0.265 OA
ATOM      4  H   UNL     1      -7.652  -3.470   0.445  0.00  0.00    +0.155 HD
ENDROOT
BRANCH   1   8
ATOM      5  C   UNL     1      -3.120  -2.161   0.761  0.00  0.00    +0.033 A 
ATOM      6  C   UNL     1      -3.248  -3.418   0.184  0.00  0.00    +0.025 A 
ATOM      7  C   UNL     1      -4.484  -4.028   0.126  0.00  0.00    +0.025 A 
ATOM      8  C   UNL     1      -5.601  -3.386   0.645  0.00  0.00    +0.034 A 
ATOM      9  C   UNL     1      -5.473  -2.129   1.224  0.00  0.00    +0.025 A 
ATOM     10  C   UNL     1      -4.235  -1.521   1.286  0.00  0.00    +0.025 A 
BRANCH   5  13
ATOM     11  C   UNL     1      -1.536  -0.787   1.887  0.00  0.00    +0.217 C 
ATOM     12  O   UNL     1      -2.357  -0.570   2.753  0.00  0.00    -0.275 OA
ATOM     13  N   UNL     1      -1.865  -1.542   0.820  0.00  0.00    -0.286 N 
ATOM     14  H   UNL     1      -1.233  -1.657   0.093  0.00  0.00    +0.155 HD
BRANCH  11  16
ATOM     15  C   UNL     1      -0.038   0.599   3.296  0.00  0.00    +0.013 C 
ATOM     16  C   UNL     1      -0.148  -0.212   2.003  0.00  0.00    +0.093 C 
ENDBRANCH  11  16
ENDBRANCH   5  13
ENDBRANCH   1   8
BRANCH   2  17
ATOM     17  C   UNL     1      -8.298  -5.988   0.774  0.00  0.00    +0.299 C 
ATOM     18  O   UNL     1      -9.302  -5.311   0.686  0.00  0.00    -0.265 OA
ATOM     19  N   UNL     1      -8.398  -7.325   0.915  0.00  0.00    -0.309 N 
ATOM     20  H   UNL     1      -7.596  -7.866   0.985  0.00  0.00    +0.149 HD
BRANCH  19  21
ATOM     21  C   UNL     1      -9.717  -7.961   0.961  0.00  0.00    +0.093 C 
BRANCH  21  22
ATOM     22  C   UNL     1      -9.553  -9.454   1.248  0.00  0.00    -0.050 C 
ATOM     23  C   UNL     1      -8.770 -10.130   0.104  0.00  0.00    -0.010 C 
ATOM     24  C   UNL     1      -9.440 -11.518  -0.048  0.00  0.00    -0.001 C 
ATOM     25  C   UNL     1     -10.938 -11.201   0.183  0.00  0.00    -0.001 C 
ATOM     26  C   UNL     1     -10.932 -10.136   1.299  0.00  0.00    -0.010 C 
BRANCH  22  27
ATOM     27  N   UNL     1      -8.850  -9.647   2.523  0.00  0.00    +0.381 N 
ATOM     28  C   UNL     1      -9.665  -9.106   3.619  0.00  0.00    -0.096 C 
ATOM     29  C   UNL     1      -8.622 -11.081   2.745  0.00  0.00    -0.096 C 
ATOM     30  H   UNL     1      -7.963  -9.166   2.494  0.00  0.00    -0.082 HD
ENDBRANCH  22  27
ENDBRANCH  21  22
ENDBRANCH  19  21
ENDBRANCH   2  17
TORSDOF 7
