REMARK  Name = ZINC22942591
REMARK  3 active torsions:
REMARK  status: ('A' for Active; 'I' for Inactive)
REMARK    1  A    between atoms: C_9  and  N_12
REMARK    2  A    between atoms: N_15  and  C_18
REMARK    3  A    between atoms: N_23  and  C_26
REMARK                            x       y       z     vdW  Elec       q    Type
REMARK                         _______ _______ _______ _____ _____    ______ ____
ROOT
ATOM      1  N   UNL     1       4.430  -3.281  -0.778  0.00  0.00    +0.383 N 
ATOM      2  C   UNL     1       5.406  -2.613  -1.649  0.00  0.00    -0.063 C 
ATOM      3  C   UNL     1       6.817  -3.080  -1.288  0.00  0.00    +0.066 C 
ATOM      4  N   UNL     1       6.905  -4.538  -1.454  0.00  0.00    -0.295 NA
ATOM      5  C   UNL     1       5.917  -5.220  -0.607  0.00  0.00    +0.066 C 
ATOM      6  C   UNL     1       4.513  -4.735  -0.974  0.00  0.00    -0.063 C 
ATOM      7  H   UNL     1       4.632  -3.060   0.185  0.00  0.00    -0.081 HD
ENDROOT
BRANCH   1  16
ATOM      8  C   UNL     1      -1.038   0.121  -1.236  0.00  0.00    +0.000 A 
ATOM      9  C   UNL     1       0.034   0.990  -1.323  0.00  0.00    +0.000 A 
ATOM     10  C   UNL     1       1.320   0.505  -1.209  0.00  0.00    +0.004 A 
ATOM     11  C   UNL     1       1.548  -0.851  -1.010  0.00  0.00    -0.046 A 
ATOM     12  C   UNL     1       0.481  -1.717  -0.929  0.00  0.00    -0.044 A 
ATOM     13  C   UNL     1      -0.814  -1.226  -1.039  0.00  0.00    +0.004 A 
ATOM     14  C   UNL     1       0.654  -3.200  -0.730  0.00  0.00    +0.034 C 
ATOM     15  C   UNL     1       2.054  -3.513  -0.206  0.00  0.00    -0.010 C 
ATOM     16  C   UNL     1       3.077  -2.819  -1.113  0.00  0.00    -0.064 C 
ATOM     17  C   UNL     1       2.977  -1.312  -0.888  0.00  0.00    +0.020 C 
ENDBRANCH   1  16
BRANCH   4  18
ATOM     18  C   UNL     1       8.263  -5.020  -1.170  0.00  0.00    +0.153 C 
ATOM     19  C   UNL     1       8.358  -6.542  -1.399  0.00  0.00    +0.125 C 
ATOM     20  C   UNL     1       9.388  -6.671  -2.500  0.00  0.00    +0.228 C 
ATOM     21  O   UNL     1       9.766  -7.714  -2.989  0.00  0.00    -0.275 OA
ATOM     22  N   UNL     1       9.815  -5.451  -2.850  0.00  0.00    -0.209 N 
ATOM     23  C   UNL     1       9.250  -4.446  -2.164  0.00  0.00    +0.244 C 
ATOM     24  O   UNL     1       9.489  -3.267  -2.315  0.00  0.00    -0.273 OA
BRANCH  22  25
ATOM     25  C   UNL     1      10.776  -5.241  -3.849  0.00  0.00    +0.044 A 
ATOM     26  C   UNL     1      12.030  -4.748  -3.515  0.00  0.00    +0.025 A 
ATOM     27  C   UNL     1      12.974  -4.541  -4.502  0.00  0.00    +0.017 A 
ATOM     28  C   UNL     1      12.672  -4.826  -5.822  0.00  0.00    +0.018 A 
ATOM     29  C   UNL     1      11.423  -5.318  -6.157  0.00  0.00    +0.017 A 
ATOM     30  C   UNL     1      10.477  -5.531  -5.173  0.00  0.00    +0.025 A 
ATOM     31 BR   UNL     1      13.967  -4.542  -7.169  0.00  0.00    -0.050 Br
ENDBRANCH  22  25
ENDBRANCH   4  18
TORSDOF 3
