REMARK  Name = ZINC02810311
REMARK  11 active torsions:
REMARK  status: ('A' for Active; 'I' for Inactive)
REMARK    1  A    between atoms: C_1  and  C_2
REMARK    2  A    between atoms: C_3  and  C_12
REMARK    3  A    between atoms: C_12  and  S_13
REMARK    4  A    between atoms: S_13  and  C_14
REMARK    5  A    between atoms: C_14  and  C_15
REMARK    6  A    between atoms: C_15  and  O_17
REMARK    7  A    between atoms: O_17  and  C_18
REMARK    8  A    between atoms: C_18  and  C_19
REMARK    9  A    between atoms: N_21  and  C_22
REMARK   10  A    between atoms: C_25  and  S_28
REMARK   11  A    between atoms: S_28  and  N_31
REMARK                            x       y       z     vdW  Elec       q    Type
REMARK                         _______ _______ _______ _____ _____    ______ ____
ROOT
ATOM      1  O   UNL     1       3.520   1.994   0.082  0.00  0.00    -0.455 OA
ENDROOT
BRANCH   1   2
ATOM      2  C   UNL     1       4.781   1.540   0.162  0.00  0.00    +0.317 C 
ATOM      3  O   UNL     1       4.992   0.354   0.249  0.00  0.00    -0.250 OA
BRANCH   2   4
ATOM      4  C   UNL     1       5.934   2.511   0.145  0.00  0.00    +0.189 C 
BRANCH   4   5
ATOM      5  S   UNL     1       7.496   1.597   0.268  0.00  0.00    -0.145 S 
BRANCH   5   6
ATOM      6  C   UNL     1       8.766   2.892   0.234  0.00  0.00    +0.112 C 
BRANCH   6   9
ATOM      7  C   UNL     1      10.442   2.696  -2.089  0.00  0.00    +0.064 C 
ATOM      8  C   UNL     1      10.920   2.168  -0.761  0.00  0.00    +0.026 A 
ATOM      9  C   UNL     1      10.130   2.260   0.330  0.00  0.00    +0.046 A 
ATOM     10  C   UNL     1      10.599   1.751   1.565  0.00  0.00    +0.258 A 
ATOM     11  O   UNL     1       9.903   1.819   2.562  0.00  0.00    -0.267 OA
ATOM     12  N   UNL     1      11.824   1.190   1.627  0.00  0.00    -0.275 N 
ATOM     13  H   UNL     1      12.162   0.828   2.496  0.00  0.00    +0.173 HD
ATOM     14  C   UNL     1      12.592   1.115   0.525  0.00  0.00    +0.327 A 
ATOM     15  O   UNL     1      13.694   0.606   0.596  0.00  0.00    -0.247 OA
ATOM     16  N   UNL     1      12.158   1.595  -0.655  0.00  0.00    -0.311 N 
ATOM     17  H   UNL     1      12.746   1.533  -1.461  0.00  0.00    +0.170 HD
ENDBRANCH   6   9
ENDBRANCH   5   6
ENDBRANCH   4   5
ENDBRANCH   2   4
ENDBRANCH   1   2
BRANCH   1  18
ATOM     18  C   UNL     1       2.460   1.002   0.104  0.00  0.00    +0.328 C 
BRANCH  18  19
ATOM     19  C   UNL     1       1.124   1.692   0.005  0.00  0.00    +0.255 C 
ATOM     20  O   UNL     1       1.071   2.901  -0.076  0.00  0.00    -0.272 OA
ATOM     21  N   UNL     1      -0.011   0.966   0.007  0.00  0.00    -0.283 N 
ATOM     22  H   UNL     1       0.033  -0.003   0.005  0.00  0.00    +0.155 HD
BRANCH  21  23
ATOM     23  C   UNL     1      -1.253   1.610   0.007  0.00  0.00    +0.034 A 
ATOM     24  C   UNL     1      -2.325   1.055   0.695  0.00  0.00    +0.025 A 
ATOM     25  C   UNL     1      -3.548   1.696   0.698  0.00  0.00    +0.030 A 
ATOM     26  C   UNL     1      -3.710   2.883   0.008  0.00  0.00    +0.105 A 
ATOM     27  C   UNL     1      -2.647   3.435  -0.683  0.00  0.00    +0.030 A 
ATOM     28  C   UNL     1      -1.419   2.802  -0.685  0.00  0.00    +0.025 A 
BRANCH  26  29
ATOM     29  S   UNL     1      -5.274   3.695   0.008  0.00  0.00    +0.056 S 
ATOM     30  O   UNL     1      -5.957   3.260   1.176  0.00  0.00    -0.153 OA
ATOM     31  O   UNL     1      -5.020   5.067  -0.259  0.00  0.00    -0.153 OA
BRANCH  29  32
ATOM     32  N   UNL     1      -6.128   3.111  -1.285  0.00  0.00    -0.204 NA
ATOM     33  H   UNL     1      -5.732   2.443  -1.867  0.00  0.00    +0.144 HD
ATOM     34  H   UNL     1      -7.025   3.436  -1.460  0.00  0.00    +0.144 HD
ENDBRANCH  29  32
ENDBRANCH  26  29
ENDBRANCH  21  23
ENDBRANCH  18  19
ENDBRANCH   1  18
TORSDOF 10
