REMARK  Name = ZINC40010227
REMARK  8 active torsions:
REMARK  status: ('A' for Active; 'I' for Inactive)
REMARK    1  A    between atoms: C_1  and  C_2
REMARK    2  A    between atoms: C_4  and  C_36
REMARK    3  A    between atoms: C_7  and  C_14
REMARK    4  A    between atoms: C_18  and  O_34
REMARK    5  A    between atoms: C_19  and  O_32
REMARK    6  A    between atoms: C_25  and  C_27
REMARK    7  A    between atoms: O_32  and  C_33
REMARK    8  A    between atoms: O_34  and  C_35
REMARK                            x       y       z     vdW  Elec       q    Type
REMARK                         _______ _______ _______ _____ _____    ______ ____
ROOT
ATOM      1  C   UNL     1       1.276  -5.722   1.269  0.00  0.00    +0.123 C 
ATOM      2  C   UNL     1       1.380  -6.328   2.646  0.00  0.00    -0.019 A 
ATOM      3  C   UNL     1       1.705  -5.484   3.700  0.00  0.00    +0.055 A 
ATOM      4  C   UNL     1       1.806  -5.974   4.989  0.00  0.00    +0.162 A 
ATOM      5  C   UNL     1       1.579  -7.327   5.228  0.00  0.00    +0.162 A 
ATOM      6  C   UNL     1       1.259  -8.164   4.175  0.00  0.00    +0.053 A 
ATOM      7  C   UNL     1       1.165  -7.668   2.880  0.00  0.00    -0.037 A 
ATOM      8  C   UNL     1       0.840  -8.646   1.782  0.00  0.00    +0.054 C 
ATOM      9  C   UNL     1       0.304  -7.922   0.548  0.00  0.00    +0.113 C 
ATOM     10  N   UNL     1       1.199  -6.789   0.265  0.00  0.00    -0.287 N 
ATOM     11  C   UNL     1       1.920  -6.735  -0.872  0.00  0.00    +0.282 C 
ATOM     12  O   UNL     1       1.762  -7.579  -1.734  0.00  0.00    -0.267 OA
ENDROOT
BRANCH   1  19
ATOM     13  C   UNL     1      -5.325  -6.236  -2.248  0.00  0.00    +0.044 C 
ATOM     14  C   UNL     1      -4.212  -6.090  -1.243  0.00  0.00    -0.048 A 
ATOM     15  C   UNL     1      -4.321  -6.755  -0.021  0.00  0.00    +0.007 A 
ATOM     16  C   UNL     1      -3.350  -6.662   0.924  0.00  0.00    -0.042 A 
ATOM     17  C   UNL     1      -2.169  -5.845   0.644  0.00  0.00    -0.004 A 
ATOM     18  C   UNL     1      -1.169  -5.723   1.563  0.00  0.00    -0.002 C 
ATOM     19  C   UNL     1       0.017  -4.856   1.188  0.00  0.00    +0.123 C 
ATOM     20  C   UNL     1      -0.005  -4.198  -0.174  0.00  0.00    +0.226 C 
ATOM     21  O   UNL     1       0.921  -3.493  -0.526  0.00  0.00    -0.275 OA
ATOM     22  N   UNL     1      -1.035  -4.393  -0.980  0.00  0.00    -0.284 N 
ATOM     23  C   UNL     1      -2.080  -5.154  -0.654  0.00  0.00    +0.041 A 
ATOM     24  C   UNL     1      -3.139  -5.321  -1.565  0.00  0.00    +0.027 A 
ATOM     25  C   UNL     1      -3.487  -7.388   2.238  0.00  0.00    +0.044 C 
ATOM     26  H   UNL     1      -1.030  -3.962  -1.849  0.00  0.00    +0.155 HD
ENDBRANCH   1  19
BRANCH  11  27
ATOM     27  C   UNL     1       2.895  -5.657  -1.071  0.00  0.00    +0.189 A 
ATOM     28  C   UNL     1       3.596  -5.411  -2.217  0.00  0.00    +0.054 A 
ATOM     29  C   UNL     1       4.406  -4.293  -1.963  0.00  0.00    +0.042 A 
ATOM     30  C   UNL     1       4.167  -3.911  -0.689  0.00  0.00    +0.196 A 
ATOM     31  O   UNL     1       3.253  -4.732  -0.157  0.00  0.00    -0.458 OA
ENDBRANCH  11  27
BRANCH   5  32
ATOM     32  O   UNL     1       1.670  -7.822   6.491  0.00  0.00    -0.491 OA
ATOM     33  C   UNL     1       1.423  -9.219   6.660  0.00  0.00    +0.277 C 
ENDBRANCH   5  32
BRANCH   4  34
ATOM     34  O   UNL     1       2.127  -5.142   6.015  0.00  0.00    -0.491 OA
ATOM     35  C   UNL     1       2.347  -3.768   5.691  0.00  0.00    +0.277 C 
ENDBRANCH   4  34
TORSDOF 4
