REMARK  Name = ZINC13476401
REMARK  7 active torsions:
REMARK  status: ('A' for Active; 'I' for Inactive)
REMARK    1  A    between atoms: C_1  and  N_2
REMARK    2  A    between atoms: N_2  and  C_3
REMARK    3  A    between atoms: N_10  and  N_11
REMARK    4  A    between atoms: C_12  and  C_13
REMARK    5  A    between atoms: C_15  and  N_23
REMARK    6  A    between atoms: C_17  and  N_20
REMARK    7  A    between atoms: N_26  and  C_27
REMARK                            x       y       z     vdW  Elec       q    Type
REMARK                         _______ _______ _______ _____ _____    ______ ____
ROOT
ATOM      1  C   UNL     1      -0.559   1.537   0.123  0.00  0.00    +0.132 C 
ATOM      2  N   UNL     1       0.329   0.426  -0.230  0.00  0.00    -0.306 N 
ATOM      3  C   UNL     1       1.368  -0.006   0.709  0.00  0.00    +0.132 C 
ATOM      4  C   UNL     1       0.188  -0.212  -1.445  0.00  0.00    +0.223 A 
ATOM      5  N   UNL     1       0.991  -1.223  -1.762  0.00  0.00    -0.181 NA
ATOM      6  C   UNL     1       0.854  -1.838  -2.933  0.00  0.00    +0.225 A 
ATOM      7  N   UNL     1      -0.085  -1.442  -3.787  0.00  0.00    -0.179 NA
ATOM      8  C   UNL     1      -0.888  -0.431  -3.469  0.00  0.00    +0.241 A 
ATOM      9  N   UNL     1      -0.755   0.181  -2.296  0.00  0.00    -0.180 NA
ATOM     10  N   UNL     1      -1.863  -0.019  -4.356  0.00  0.00    -0.205 N 
ATOM     11  N   UNL     1       1.688  -2.889  -3.262  0.00  0.00    -0.283 N 
ATOM     12  H   UNL     1      -2.016  -0.518  -5.174  0.00  0.00    +0.177 HD
ATOM     13  H   UNL     1       2.436  -3.113  -2.687  0.00  0.00    +0.155 HD
ENDROOT
BRANCH  11  14
ATOM     14  C   UNL     1       1.454  -3.630  -4.426  0.00  0.00    +0.034 A 
ATOM     15  C   UNL     1       1.075  -2.985  -5.596  0.00  0.00    +0.026 A 
ATOM     16  C   UNL     1       0.845  -3.718  -6.744  0.00  0.00    +0.040 A 
ATOM     17  C   UNL     1       0.993  -5.095  -6.729  0.00  0.00    +0.124 A 
ATOM     18  C   UNL     1       1.371  -5.740  -5.564  0.00  0.00    +0.040 A 
ATOM     19  C   UNL     1       1.607  -5.010  -4.415  0.00  0.00    +0.026 A 
ATOM     20  F   UNL     1       0.767  -5.810  -7.853  0.00  0.00    -0.205 F 
ENDBRANCH  11  14
BRANCH  10  21
ATOM     21  N   UNL     1      -2.631   1.118  -4.074  0.00  0.00    -0.187 NA
ATOM     22  C   UNL     1      -3.611   1.449  -4.857  0.00  0.00    +0.142 C 
BRANCH  22  23
ATOM     23  C   UNL     1      -4.487   2.581  -4.503  0.00  0.00    +0.046 A 
ATOM     24  C   UNL     1      -5.515   2.970  -5.365  0.00  0.00    +0.046 A 
ATOM     25  C   UNL     1      -6.331   4.029  -5.028  0.00  0.00    +0.129 A 
ATOM     26  C   UNL     1      -6.136   4.709  -3.838  0.00  0.00    +0.069 A 
ATOM     27  C   UNL     1      -5.122   4.334  -2.977  0.00  0.00    +0.175 A 
ATOM     28  C   UNL     1      -4.296   3.269  -3.298  0.00  0.00    +0.218 A 
ATOM     29  O   UNL     1      -3.303   2.897  -2.450  0.00  0.00    -0.285 OA
BRANCH  27  30
ATOM     30  N   UNL     1      -4.921   5.068  -1.707  0.00  0.00    +0.060 N 
ATOM     31  O   UNL     1      -5.578   6.055  -1.469  0.00  0.00    -0.126 OA
ATOM     32  O   UNL     1      -4.101   4.681  -0.908  0.00  0.00    -0.126 OA
ENDBRANCH  27  30
BRANCH  25  33
ATOM     33  N   UNL     1      -7.420   4.440  -5.942  0.00  0.00    +0.057 N 
ATOM     34  O   UNL     1      -7.593   3.848  -6.982  0.00  0.00    -0.126 OA
ATOM     35  O   UNL     1      -8.137   5.369  -5.649  0.00  0.00    -0.126 OA
ENDBRANCH  25  33
ENDBRANCH  22  23
ENDBRANCH  10  21
TORSDOF 5
