REMARK  Name = ZINC40106661
REMARK  7 active torsions:
REMARK  status: ('A' for Active; 'I' for Inactive)
REMARK    1  A    between atoms: C_1  and  C_2
REMARK    2  A    between atoms: C_5  and  N_18
REMARK    3  A    between atoms: C_7  and  N_8
REMARK    4  A    between atoms: N_8  and  S_9
REMARK    5  A    between atoms: S_9  and  C_12
REMARK    6  A    between atoms: C_19  and  C_21
REMARK    7  A    between atoms: C_22  and  C_23
REMARK                            x       y       z     vdW  Elec       q    Type
REMARK                         _______ _______ _______ _____ _____    ______ ____
ROOT
ATOM      1  C   UNL     1      -0.323   1.781   0.297  0.00  0.00    +0.046 C 
ATOM      2  C   UNL     1      -0.098   0.324  -0.013  0.00  0.00    -0.028 A 
ATOM      3  C   UNL     1      -0.283  -0.145  -1.300  0.00  0.00    +0.007 A 
ATOM      4  C   UNL     1      -0.077  -1.481  -1.587  0.00  0.00    +0.024 A 
ATOM      5  C   UNL     1       0.316  -2.357  -0.583  0.00  0.00    +0.035 A 
ATOM      6  C   UNL     1       0.503  -1.890   0.710  0.00  0.00    +0.048 A 
ATOM      7  C   UNL     1       0.302  -0.546   0.994  0.00  0.00    +0.053 A 
ENDROOT
BRANCH   5   8
ATOM      8  N   UNL     1       0.522  -3.709  -0.875  0.00  0.00    -0.282 N 
ATOM      9  C   UNL     1       1.045  -4.069  -2.064  0.00  0.00    +0.241 C 
ATOM     10  O   UNL     1       1.258  -3.226  -2.916  0.00  0.00    -0.270 OA
ATOM     11  H   UNL     1       0.289  -4.387  -0.222  0.00  0.00    +0.155 HD
BRANCH   9  12
ATOM     12  C   UNL     1       1.356  -5.473  -2.331  0.00  0.00    +0.068 C 
ATOM     13  C   UNL     1       1.879  -5.834  -3.521  0.00  0.00    +0.013 C 
BRANCH  13  14
ATOM     14  C   UNL     1       2.192  -7.246  -3.790  0.00  0.00    -0.025 A 
ATOM     15  C   UNL     1       1.942  -8.219  -2.815  0.00  0.00    +0.011 A 
ATOM     16  C   UNL     1       2.237  -9.540  -3.073  0.00  0.00    +0.039 A 
ATOM     17  C   UNL     1       2.780  -9.906  -4.295  0.00  0.00    +0.123 A 
ATOM     18  C   UNL     1       3.030  -8.947  -5.266  0.00  0.00    +0.039 A 
ATOM     19  C   UNL     1       2.734  -7.624  -5.023  0.00  0.00    +0.011 A 
ATOM     20  F   UNL     1       3.068 -11.203  -4.542  0.00  0.00    -0.205 F 
ENDBRANCH  13  14
ENDBRANCH   9  12
ENDBRANCH   5   8
BRANCH   7  21
ATOM     21  N   UNL     1       0.494  -0.070   2.293  0.00  0.00    -0.216 N 
ATOM     22  H   UNL     1      -0.077   0.632   2.642  0.00  0.00    +0.174 HD
BRANCH  21  23
ATOM     23  S   UNL     1       1.697  -0.705   3.238  0.00  0.00    +0.072 S 
ATOM     24  O   UNL     1       1.724   0.064   4.432  0.00  0.00    -0.150 OA
ATOM     25  O   UNL     1       1.508  -2.114   3.244  0.00  0.00    -0.150 OA
BRANCH  23  26
ATOM     26  C   UNL     1       3.223  -0.405   2.410  0.00  0.00    +0.108 A 
ATOM     27  C   UNL     1       3.715  -1.332   1.510  0.00  0.00    +0.029 A 
ATOM     28  C   UNL     1       4.912  -1.096   0.861  0.00  0.00    +0.002 A 
ATOM     29  C   UNL     1       5.617   0.066   1.111  0.00  0.00    +0.000 A 
ATOM     30  C   UNL     1       5.125   0.993   2.011  0.00  0.00    +0.002 A 
ATOM     31  C   UNL     1       3.926   0.759   2.657  0.00  0.00    +0.029 A 
ENDBRANCH  23  26
ENDBRANCH  21  23
ENDBRANCH   7  21
TORSDOF 6
