REMARK  Name = ZINC22930724
REMARK  7 active torsions:
REMARK  status: ('A' for Active; 'I' for Inactive)
REMARK    1  A    between atoms: C_1  and  C_2
REMARK    2  A    between atoms: C_5  and  N_8
REMARK    3  A    between atoms: C_9  and  C_11
REMARK    4  A    between atoms: C_11  and  N_12
REMARK    5  A    between atoms: N_15  and  C_18
REMARK    6  A    between atoms: C_18  and  C_19
REMARK    7  A    between atoms: C_22  and  C_24
REMARK                            x       y       z     vdW  Elec       q    Type
REMARK                         _______ _______ _______ _____ _____    ______ ____
ROOT
ATOM      1  N   UNL     1       0.420  -6.846   2.499  0.00  0.00    +0.387 N 
ATOM      2  C   UNL     1       1.665  -6.350   3.099  0.00  0.00    -0.063 C 
ATOM      3  C   UNL     1       1.773  -6.852   4.541  0.00  0.00    +0.066 C 
ATOM      4  N   UNL     1       1.757  -8.322   4.548  0.00  0.00    -0.297 NA
ATOM      5  C   UNL     1       0.526  -8.833   3.927  0.00  0.00    +0.066 C 
ATOM      6  C   UNL     1       0.429  -8.315   2.491  0.00  0.00    -0.063 C 
ATOM      7  H   UNL     1      -0.367  -6.518   3.039  0.00  0.00    -0.081 HD
ENDROOT
BRANCH   1   8
ATOM      8  C   UNL     1       0.309  -6.349   1.121  0.00  0.00    +0.019 C 
BRANCH   8  10
ATOM      9  N   UNL     1       0.059  -4.170  -0.021  0.00  0.00    -0.287 N 
ATOM     10  C   UNL     1       0.175  -4.848   1.138  0.00  0.00    +0.201 C 
ATOM     11  O   UNL     1       0.173  -4.251   2.193  0.00  0.00    -0.278 OA
ATOM     12  H   UNL     1      -0.007  -4.651  -0.861  0.00  0.00    +0.155 HD
BRANCH   9  17
ATOM     13  C   UNL     1      -0.047   1.502   0.014  0.00  0.00    +0.044 C 
ATOM     14  C   UNL     1      -0.019  -0.004   0.005  0.00  0.00    -0.050 A 
ATOM     15  C   UNL     1      -0.605  -0.712   1.038  0.00  0.00    +0.005 A 
ATOM     16  C   UNL     1      -0.581  -2.093   1.033  0.00  0.00    +0.023 A 
ATOM     17  C   UNL     1       0.032  -2.771  -0.013  0.00  0.00    +0.033 A 
ATOM     18  C   UNL     1       0.620  -2.058  -1.049  0.00  0.00    +0.023 A 
ATOM     19  C   UNL     1       0.588  -0.677  -1.040  0.00  0.00    +0.005 A 
ENDBRANCH   9  17
ENDBRANCH   8  10
ENDBRANCH   1   8
BRANCH   4  20
ATOM     20  C   UNL     1       1.915  -8.844   5.912  0.00  0.00    +0.182 C 
BRANCH  20  21
ATOM     21  C   UNL     1       2.140 -10.333   5.857  0.00  0.00    +0.232 A 
ATOM     22  N   UNL     1       3.293 -10.934   5.775  0.00  0.00    -0.111 NA
ATOM     23  N   UNL     1       3.113 -12.208   5.749  0.00  0.00    -0.107 NA
ATOM     24  C   UNL     1       1.828 -12.465   5.814  0.00  0.00    +0.248 A 
ATOM     25  O   UNL     1       1.187 -11.281   5.889  0.00  0.00    -0.419 OA
BRANCH  24  26
ATOM     26  C   UNL     1       1.200 -13.803   5.811  0.00  0.00    +0.039 A 
ATOM     27  C   UNL     1      -0.189 -13.925   5.879  0.00  0.00    +0.014 A 
ATOM     28  C   UNL     1      -0.770 -15.176   5.876  0.00  0.00    +0.021 A 
ATOM     29  C   UNL     1       0.022 -16.310   5.805  0.00  0.00    +0.041 A 
ATOM     30  C   UNL     1       1.401 -16.195   5.738  0.00  0.00    +0.021 A 
ATOM     31  C   UNL     1       1.992 -14.949   5.734  0.00  0.00    +0.014 A 
ATOM     32 CL   UNL     1      -0.716 -17.881   5.801  0.00  0.00    -0.084 Cl
ENDBRANCH  24  26
ENDBRANCH  20  21
ENDBRANCH   4  20
TORSDOF 6
