REMARK  Name = ZINC66827264
REMARK  5 active torsions:
REMARK  status: ('A' for Active; 'I' for Inactive)
REMARK    1  A    between atoms: C_3  and  N_13
REMARK    2  A    between atoms: C_5  and  S_7
REMARK    3  A    between atoms: S_7  and  C_10
REMARK    4  A    between atoms: N_13  and  C_14
REMARK    5  A    between atoms: C_14  and  C_15
REMARK                            x       y       z     vdW  Elec       q    Type
REMARK                         _______ _______ _______ _____ _____    ______ ____
ROOT
ATOM      1  N   UNL     1       3.582   2.122  -0.021  0.00  0.00    -0.338 N 
ATOM      2  H   UNL     1       4.428   1.647  -0.032  0.00  0.00    +0.146 HD
ENDROOT
BRANCH   1   5
ATOM      3  C   UNL     1      -0.017   1.378   0.010  0.00  0.00    +0.004 A 
ATOM      4  C   UNL     1       1.169   2.087   0.002  0.00  0.00    +0.023 A 
ATOM      5  C   UNL     1       2.381   1.409  -0.013  0.00  0.00    +0.029 A 
ATOM      6  C   UNL     1       2.396   0.020  -0.021  0.00  0.00    +0.050 A 
ATOM      7  C   UNL     1       1.207  -0.682  -0.013  0.00  0.00    +0.096 A 
ATOM      8  C   UNL     1       0.002  -0.004   0.002  0.00  0.00    +0.027 A 
BRANCH   7   9
ATOM      9  S   UNL     1       1.225  -2.444  -0.023  0.00  0.00    +0.058 S 
ATOM     10  O   UNL     1      -0.011  -2.816  -0.616  0.00  0.00    -0.164 OA
ATOM     11  O   UNL     1       2.458  -2.791  -0.640  0.00  0.00    -0.164 OA
BRANCH   9  12
ATOM     12  C   UNL     1       1.247  -2.920   1.727  0.00  0.00    +0.485 C 
ATOM     13  F   UNL     1       2.390  -2.395   2.339  0.00  0.00    -0.183 F 
ATOM     14  F   UNL     1       0.106  -2.418   2.361  0.00  0.00    -0.183 F 
ENDBRANCH   9  12
ENDBRANCH   7   9
ENDBRANCH   1   5
BRANCH   1  15
ATOM     15  C   UNL     1       3.564   3.587  -0.014  0.00  0.00    +0.155 C 
BRANCH  15  16
ATOM     16  C   UNL     1       4.979   4.107  -0.025  0.00  0.00    +0.040 A 
ATOM     17  C   UNL     1       5.452   4.830  -1.099  0.00  0.00    +0.093 A 
ATOM     18  C   UNL     1       6.764   5.303  -1.091  0.00  0.00    +0.259 A 
ATOM     19  O   UNL     1       7.188   5.944  -2.039  0.00  0.00    -0.267 OA
ATOM     20  N   UNL     1       7.574   5.049  -0.020  0.00  0.00    -0.263 N 
ATOM     21  C   UNL     1       8.881   5.445   0.135  0.00  0.00    +0.104 A 
ATOM     22  C   UNL     1       9.569   5.133   1.232  0.00  0.00    +0.067 A 
ATOM     23  S   UNL     1       8.361   4.211   2.172  0.00  0.00    -0.059 S 
ATOM     24  C   UNL     1       7.024   4.324   1.003  0.00  0.00    +0.158 A 
ATOM     25  N   UNL     1       5.791   3.881   1.004  0.00  0.00    -0.337 N 
ATOM     26  H   UNL     1       5.466   3.376   1.767  0.00  0.00    +0.168 HD
ENDBRANCH  15  16
ENDBRANCH   1  15
TORSDOF 5
