REMARK  Name = ZINC12529750
REMARK  6 active torsions:
REMARK  status: ('A' for Active; 'I' for Inactive)
REMARK    1  A    between atoms: C_1  and  C_2
REMARK    2  A    between atoms: C_5  and  C_8
REMARK    3  A    between atoms: C_10  and  C_13
REMARK    4  A    between atoms: C_16  and  N_21
REMARK    5  A    between atoms: N_19  and  C_20
REMARK    6  A    between atoms: N_24  and  C_25
REMARK                            x       y       z     vdW  Elec       q    Type
REMARK                         _______ _______ _______ _____ _____    ______ ____
ROOT
ATOM      1  C   UNL     1       3.498   0.850  -0.042  0.00  0.00    +0.023 C 
ATOM      2  C   UNL     1       4.011   1.256   1.356  0.00  0.00    +0.014 C 
ATOM      3  C   UNL     1       5.191   2.212   1.089  0.00  0.00    +0.057 C 
ATOM      4  C   UNL     1       5.293   2.303  -0.449  0.00  0.00    -0.056 C 
ATOM      5  N   UNL     1       3.933   1.954  -0.935  0.00  0.00    +0.387 N 
ATOM      6  C   UNL     1       3.972   1.514  -2.336  0.00  0.00    -0.095 C 
ATOM      7  H   UNL     1       3.243   2.811  -0.920  0.00  0.00    -0.081 HD
ENDROOT
BRANCH   3   8
ATOM      8  N   UNL     1       4.916   3.533   1.659  0.00  0.00    -0.298 N 
ATOM      9  C   UNL     1       5.936   4.346   1.998  0.00  0.00    +0.304 C 
ATOM     10  O   UNL     1       7.084   3.984   1.829  0.00  0.00    -0.253 OA
ATOM     11  N   UNL     1       5.683   5.561   2.523  0.00  0.00    -0.269 N 
ATOM     12  H   UNL     1       3.877   3.860   1.812  0.00  0.00    +0.150 HD
ATOM     13  H   UNL     1       4.646   5.920   2.605  0.00  0.00    +0.156 HD
BRANCH  11  14
ATOM     14  C   UNL     1       6.739   6.367   2.964  0.00  0.00    +0.035 A 
ATOM     15  C   UNL     1       6.572   7.187   4.072  0.00  0.00    +0.023 A 
ATOM     16  C   UNL     1       7.618   7.978   4.507  0.00  0.00    +0.002 A 
ATOM     17  C   UNL     1       8.826   7.961   3.834  0.00  0.00    +0.000 A 
ATOM     18  C   UNL     1       8.993   7.149   2.727  0.00  0.00    +0.002 A 
ATOM     19  C   UNL     1       7.953   6.353   2.290  0.00  0.00    +0.023 A 
ENDBRANCH  11  14
ENDBRANCH   3   8
BRANCH   1  22
ATOM     20  C   UNL     1       0.002   0.014  -0.037  0.00  0.00    +0.202 A 
ATOM     21  N   UNL     1       1.298  -0.372  -0.043  0.00  0.00    -0.193 NA
ATOM     22  C   UNL     1       1.995   0.737  -0.039  0.00  0.00    +0.214 A 
ATOM     23  O   UNL     1       1.123   1.750  -0.031  0.00  0.00    -0.339 OA
ATOM     24  N   UNL     1      -0.011   1.321  -0.030  0.00  0.00    -0.056 NA
BRANCH  20  29
ATOM     25  C   UNL     1      -4.596  -3.454  -0.044  0.00  0.00    +0.044 C 
ATOM     26  C   UNL     1      -3.393  -2.547  -0.041  0.00  0.00    -0.050 A 
ATOM     27  C   UNL     1      -3.565  -1.174  -0.034  0.00  0.00    +0.004 A 
ATOM     28  C   UNL     1      -2.466  -0.339  -0.032  0.00  0.00    +0.012 A 
ATOM     29  C   UNL     1      -1.183  -0.880  -0.039  0.00  0.00    +0.022 A 
ATOM     30  C   UNL     1      -1.015  -2.263  -0.052  0.00  0.00    +0.012 A 
ATOM     31  C   UNL     1      -2.121  -3.089  -0.048  0.00  0.00    +0.004 A 
ENDBRANCH  20  29
ENDBRANCH   1  22
TORSDOF 4
