REMARK  Name = ZINC10040539
REMARK  13 active torsions:
REMARK  status: ('A' for Active; 'I' for Inactive)
REMARK    1  A    between atoms: C_1  and  C_2
REMARK    2  A    between atoms: N_4  and  C_5
REMARK    3  A    between atoms: C_5  and  C_7
REMARK    4  A    between atoms: C_5  and  C_23
REMARK    5  A    between atoms: C_7  and  S_8
REMARK    6  A    between atoms: S_8  and  C_9
REMARK    7  A    between atoms: C_12  and  O_15
REMARK    8  A    between atoms: O_15  and  C_16
REMARK    9  A    between atoms: C_16  and  C_17
REMARK   10  A    between atoms: N_25  and  C_26
REMARK   11  A    between atoms: N_25  and  C_29
REMARK   12  A    between atoms: C_26  and  C_27
REMARK   13  A    between atoms: C_29  and  C_30
REMARK                            x       y       z     vdW  Elec       q    Type
REMARK                         _______ _______ _______ _____ _____    ______ ____
ROOT
ATOM      1  C   UNL     1       9.800  -4.112  -0.552  0.00  0.00    +0.106 C 
ENDROOT
BRANCH   1   2
ATOM      2  C   UNL     1      11.134  -4.859  -0.625  0.00  0.00    +0.169 C 
BRANCH   2   6
ATOM      3  C   UNL     1      13.504  -1.924  -1.277  0.00  0.00    +0.109 C 
ATOM      4  C   UNL     1      12.463  -2.816  -0.652  0.00  0.00    +0.211 C 
ATOM      5  O   UNL     1      11.908  -2.477   0.371  0.00  0.00    -0.276 OA
ATOM      6  N   UNL     1      12.147  -3.992  -1.232  0.00  0.00    -0.303 N 
ATOM      7  H   UNL     1      12.590  -4.263  -2.051  0.00  0.00    +0.149 HD
ENDBRANCH   2   6
BRANCH   2   8
ATOM      8  C   UNL     1      11.570  -5.244   0.765  0.00  0.00    +0.237 C 
ATOM      9  O   UNL     1      12.403  -4.580   1.345  0.00  0.00    -0.274 OA
ATOM     10  N   UNL     1      11.036  -6.327   1.363  0.00  0.00    -0.292 N 
BRANCH  10  11
ATOM     11  C   UNL     1      11.460  -6.701   2.715  0.00  0.00    +0.135 C 
BRANCH  11  12
ATOM     12  C   UNL     1      10.576  -6.018   3.726  0.00  0.00    -0.016 C 
ATOM     13  C   UNL     1       9.946  -6.727   4.630  0.00  0.00    +0.005 C 
ENDBRANCH  11  12
ENDBRANCH  10  11
BRANCH  10  14
ATOM     14  C   UNL     1      10.030  -7.129   0.663  0.00  0.00    +0.135 C 
BRANCH  14  15
ATOM     15  C   UNL     1      10.714  -8.216  -0.126  0.00  0.00    -0.016 C 
ATOM     16  C   UNL     1      10.376  -9.468   0.055  0.00  0.00    +0.005 C 
ENDBRANCH  14  15
ENDBRANCH  10  14
ENDBRANCH   2   8
ENDBRANCH   1   2
BRANCH   1  17
ATOM     17  S   UNL     1       9.202  -3.779  -2.232  0.00  0.00    -0.123 S 
BRANCH  17  18
ATOM     18  C   UNL     1       7.680  -2.927  -1.981  0.00  0.00    +0.008 A 
ATOM     19  C   UNL     1       6.930  -2.507  -3.072  0.00  0.00    +0.018 A 
ATOM     20  C   UNL     1       5.737  -1.840  -2.874  0.00  0.00    +0.047 A 
ATOM     21  C   UNL     1       5.288  -1.589  -1.586  0.00  0.00    +0.121 A 
ATOM     22  C   UNL     1       6.039  -2.003  -0.495  0.00  0.00    +0.047 A 
ATOM     23  C   UNL     1       7.230  -2.674  -0.691  0.00  0.00    +0.018 A 
BRANCH  21  24
ATOM     24  O   UNL     1       4.113  -0.932  -1.392  0.00  0.00    -0.487 OA
BRANCH  24  25
ATOM     25  C   UNL     1       3.711  -0.707  -0.039  0.00  0.00    +0.264 C 
BRANCH  25  26
ATOM     26  C   UNL     1       2.396   0.029  -0.022  0.00  0.00    -0.010 A 
ATOM     27  C   UNL     1       1.208  -0.679  -0.014  0.00  0.00    +0.007 A 
ATOM     28  C   UNL     1       0.002  -0.004   0.002  0.00  0.00    +0.000 A 
ATOM     29  C   UNL     1      -0.017   1.378   0.010  0.00  0.00    +0.000 A 
ATOM     30  C   UNL     1       1.171   2.086   0.002  0.00  0.00    +0.000 A 
ATOM     31  C   UNL     1       2.377   1.411  -0.014  0.00  0.00    +0.007 A 
ENDBRANCH  25  26
ENDBRANCH  24  25
ENDBRANCH  21  24
ENDBRANCH  17  18
ENDBRANCH   1  17
TORSDOF 12
