REMARK  Name = ZINC12714763
REMARK  11 active torsions:
REMARK  status: ('A' for Active; 'I' for Inactive)
REMARK    1  A    between atoms: C_1  and  C_2
REMARK    2  A    between atoms: C_5  and  C_37
REMARK    3  A    between atoms: C_6  and  N_8
REMARK    4  A    between atoms: N_8  and  C_9
REMARK    5  A    between atoms: C_9  and  C_11
REMARK    6  A    between atoms: C_9  and  C_17
REMARK    7  A    between atoms: C_14  and  C_16
REMARK    8  A    between atoms: N_19  and  C_20
REMARK    9  A    between atoms: C_26  and  C_28
REMARK   10  A    between atoms: C_29  and  N_36
REMARK   11  A    between atoms: C_30  and  C_33
REMARK                            x       y       z     vdW  Elec       q    Type
REMARK                         _______ _______ _______ _____ _____    ______ ____
ROOT
ATOM      1  N   UNL     1      -4.384   3.539   2.117  0.00  0.00    -0.248 N 
ATOM      2  C   UNL     1      -4.543   4.862   2.319  0.00  0.00    +0.262 C 
ATOM      3  O   UNL     1      -4.253   5.352   3.395  0.00  0.00    -0.269 OA
ENDROOT
BRANCH   1   9
ATOM      4  C   UNL     1      -7.701   1.357  -0.782  0.00  0.00    +0.044 C 
ATOM      5  C   UNL     1      -6.318   1.910  -0.551  0.00  0.00    -0.049 A 
ATOM      6  C   UNL     1      -5.377   1.859  -1.563  0.00  0.00    +0.004 A 
ATOM      7  C   UNL     1      -4.107   2.365  -1.356  0.00  0.00    +0.005 A 
ATOM      8  C   UNL     1      -3.775   2.923  -0.137  0.00  0.00    -0.029 A 
ATOM      9  C   UNL     1      -4.718   2.975   0.881  0.00  0.00    +0.041 A 
ATOM     10  C   UNL     1      -5.991   2.461   0.671  0.00  0.00    +0.027 A 
ATOM     11  C   UNL     1      -2.390   3.474   0.088  0.00  0.00    +0.045 C 
ENDBRANCH   1   9
BRANCH   2  12
ATOM     12  C   UNL     1      -5.064   5.709   1.245  0.00  0.00    +0.116 A 
ATOM     13  C   UNL     1      -5.310   7.083   1.242  0.00  0.00    +0.076 A 
ATOM     14  C   UNL     1      -5.808   7.534   0.020  0.00  0.00    +0.155 A 
ATOM     15  N   UNL     1      -5.999   6.672  -0.955  0.00  0.00    -0.203 NA
ATOM     16  S   UNL     1      -5.563   5.261  -0.405  0.00  0.00    +0.019 S 
BRANCH  14  17
ATOM     17  C   UNL     1      -6.124   8.961  -0.176  0.00  0.00    +0.262 C 
ATOM     18  O   UNL     1      -5.945   9.753   0.730  0.00  0.00    -0.269 OA
ATOM     19  N   UNL     1      -6.610   9.388  -1.358  0.00  0.00    -0.324 N 
ATOM     20  H   UNL     1      -6.753   8.757  -2.080  0.00  0.00    +0.145 HD
ATOM     21  H   UNL     1      -6.818  10.327  -1.486  0.00  0.00    +0.145 HD
ENDBRANCH  14  17
BRANCH  13  22
ATOM     22  N   UNL     1      -5.080   7.910   2.334  0.00  0.00    -0.355 N 
ATOM     23  H   UNL     1      -4.730   7.539   3.158  0.00  0.00    +0.142 HD
ATOM     24  H   UNL     1      -5.271   8.859   2.272  0.00  0.00    +0.142 HD
ENDBRANCH  13  22
ENDBRANCH   2  12
BRANCH   1  25
ATOM     25  C   UNL     1      -3.862   2.691   3.192  0.00  0.00    +0.233 C 
BRANCH  25  26
ATOM     26  C   UNL     1      -2.691   1.893   2.678  0.00  0.00    +0.135 A 
ATOM     27  C   UNL     1      -1.487   1.793   3.270  0.00  0.00    +0.047 A 
ATOM     28  C   UNL     1      -0.698   0.952   2.452  0.00  0.00    +0.045 A 
ATOM     29  C   UNL     1      -1.466   0.589   1.410  0.00  0.00    +0.102 A 
ATOM     30  O   UNL     1      -2.671   1.166   1.549  0.00  0.00    -0.462 OA
ATOM     31  C   UNL     1      -1.045  -0.309   0.275  0.00  0.00    +0.086 C 
ENDBRANCH  25  26
BRANCH  25  32
ATOM     32  C   UNL     1      -4.943   1.752   3.661  0.00  0.00    +0.242 C 
ATOM     33  O   UNL     1      -6.042   1.787   3.148  0.00  0.00    -0.273 OA
ATOM     34  N   UNL     1      -4.690   0.873   4.650  0.00  0.00    -0.311 N 
ATOM     35  H   UNL     1      -3.811   0.844   5.060  0.00  0.00    +0.149 HD
BRANCH  34  36
ATOM     36  C   UNL     1      -5.741  -0.041   5.106  0.00  0.00    +0.073 C 
ATOM     37  C   UNL     1      -6.608   0.662   6.152  0.00  0.00    +0.022 C 
ATOM     38  C   UNL     1      -7.706  -0.291   6.628  0.00  0.00    +0.002 C 
ATOM     39  C   UNL     1      -7.067  -1.535   7.248  0.00  0.00    +0.000 C 
ATOM     40  C   UNL     1      -6.199  -2.238   6.202  0.00  0.00    +0.002 C 
ATOM     41  C   UNL     1      -5.102  -1.285   5.726  0.00  0.00    +0.022 C 
ENDBRANCH  34  36
ENDBRANCH  25  32
ENDBRANCH   1  25
TORSDOF 8
