REMARK  Name = ZINC63398655
REMARK  4 active torsions:
REMARK  status: ('A' for Active; 'I' for Inactive)
REMARK    1  A    between atoms: C_6  and  S_10
REMARK    2  A    between atoms: S_10  and  C_11
REMARK    3  A    between atoms: C_14  and  C_16
REMARK    4  A    between atoms: N_23  and  C_26
REMARK                            x       y       z     vdW  Elec       q    Type
REMARK                         _______ _______ _______ _____ _____    ______ ____
ROOT
ATOM      1  C   UNL     1       0.187  -1.763  -1.295  0.00  0.00    +0.165 A 
ATOM      2  C   UNL     1       0.460  -2.627  -2.341  0.00  0.00    +0.057 A 
ATOM      3  C   UNL     1       0.560  -1.859  -3.491  0.00  0.00    +0.050 A 
ATOM      4  C   UNL     1       0.343  -0.533  -3.111  0.00  0.00    +0.130 A 
ATOM      5  O   UNL     1       0.115  -0.513  -1.776  0.00  0.00    -0.449 OA
ENDROOT
BRANCH   4   6
ATOM      6  C   UNL     1       0.355   0.572  -3.955  0.00  0.00    +0.064 C 
ATOM      7  C   UNL     1       0.970   1.762  -3.543  0.00  0.00    +0.105 C 
ATOM      8  C   UNL     1       0.842   2.957  -4.300  0.00  0.00    +0.277 C 
ATOM      9  O   UNL     1       0.119   2.969  -5.441  0.00  0.00    -0.268 OA
ATOM     10  N   UNL     1       1.440   4.058  -3.873  0.00  0.00    -0.123 NA
ATOM     11  C   UNL     1       2.159   4.083  -2.755  0.00  0.00    +0.340 C 
ATOM     12  O   UNL     1       2.682   5.132  -2.421  0.00  0.00    -0.250 OA
ATOM     13  N   UNL     1       2.333   3.001  -1.977  0.00  0.00    -0.188 N 
ATOM     14  C   UNL     1       1.766   1.821  -2.309  0.00  0.00    +0.264 C 
ATOM     15  O   UNL     1       1.913   0.835  -1.610  0.00  0.00    -0.269 OA
BRANCH  13  16
ATOM     16  C   UNL     1       3.103   3.099  -0.811  0.00  0.00    +0.047 A 
ATOM     17  C   UNL     1       4.479   2.920  -0.869  0.00  0.00    +0.024 A 
ATOM     18  C   UNL     1       5.237   3.017   0.281  0.00  0.00    +0.003 A 
ATOM     19  C   UNL     1       4.627   3.292   1.492  0.00  0.00    +0.020 A 
ATOM     20  C   UNL     1       3.256   3.471   1.553  0.00  0.00    +0.043 A 
ATOM     21  C   UNL     1       2.494   3.381   0.404  0.00  0.00    +0.044 A 
ATOM     22 CL   UNL     1       2.494   3.816   3.075  0.00  0.00    -0.083 Cl
ENDBRANCH  13  16
ENDBRANCH   4   6
BRANCH   1  23
ATOM     23  S   UNL     1      -0.037  -2.229   0.390  0.00  0.00    -0.042 S 
BRANCH  23  29
ATOM     24  C   UNL     1      -4.817  -2.333  -2.928  0.00  0.00    +0.002 A 
ATOM     25  C   UNL     1      -4.884  -0.973  -2.576  0.00  0.00    +0.002 A 
ATOM     26  C   UNL     1      -4.165  -0.448  -1.563  0.00  0.00    +0.027 A 
ATOM     27  C   UNL     1      -3.271  -1.315  -0.784  0.00  0.00    +0.061 A 
ATOM     28  N   UNL     1      -2.476  -1.090   0.223  0.00  0.00    -0.355 N 
ATOM     29  C   UNL     1      -1.837  -2.365   0.572  0.00  0.00    +0.243 C 
ATOM     30  N   UNL     1      -2.364  -3.363  -0.366  0.00  0.00    -0.355 N 
ATOM     31  C   UNL     1      -3.200  -2.754  -1.156  0.00  0.00    +0.061 A 
ATOM     32  C   UNL     1      -4.029  -3.213  -2.279  0.00  0.00    +0.027 A 
ATOM     33  H   UNL     1      -2.333  -0.237   0.661  0.00  0.00    +0.162 HD
ATOM     34  H   UNL     1      -2.133  -4.305  -0.392  0.00  0.00    +0.162 HD
ENDBRANCH  23  29
ENDBRANCH   1  23
TORSDOF 4
