REMARK  Name = ZINC13733997
REMARK  17 active torsions:
REMARK  status: ('A' for Active; 'I' for Inactive)
REMARK    1  A    between atoms: C_1  and  C_2
REMARK    2  A    between atoms: C_2  and  C_3
REMARK    3  A    between atoms: C_3  and  C_4
REMARK    4  A    between atoms: C_4  and  N_5
REMARK    5  A    between atoms: N_5  and  C_6
REMARK    6  A    between atoms: N_5  and  C_10
REMARK    7  A    between atoms: C_6  and  C_7
REMARK    8  A    between atoms: C_7  and  C_8
REMARK    9  A    between atoms: C_8  and  C_9
REMARK   10  A    between atoms: C_10  and  C_11
REMARK   11  A    between atoms: C_11  and  C_12
REMARK   12  A    between atoms: C_12  and  N_13
REMARK   13  A    between atoms: N_13  and  C_14
REMARK   14  A    between atoms: C_14  and  C_15
REMARK   15  A    between atoms: C_18  and  O_22
REMARK   16  A    between atoms: O_22  and  C_23
REMARK   17  A    between atoms: C_23  and  C_24
REMARK                            x       y       z     vdW  Elec       q    Type
REMARK                         _______ _______ _______ _____ _____    ______ ____
ROOT
ATOM      1  C   UNL     1       3.062  -5.691   0.901  0.00  0.00    +0.079 C 
ENDROOT
BRANCH   1   2
ATOM      2  N   UNL     1       3.871  -5.931  -0.302  0.00  0.00    -0.312 NA
ATOM      3  H   UNL     1       3.400  -5.592  -1.128  0.00  0.00    +0.122 HD
BRANCH   2   4
ATOM      4  C   UNL     1       4.206  -7.356  -0.435  0.00  0.00    +0.116 C 
BRANCH   4   5
ATOM      5  C   UNL     1       5.033  -7.563  -1.677  0.00  0.00    -0.032 A 
ATOM      6  C   UNL     1       4.412  -7.828  -2.884  0.00  0.00    +0.008 A 
ATOM      7  C   UNL     1       5.168  -8.020  -4.024  0.00  0.00    +0.047 A 
ATOM      8  C   UNL     1       6.552  -7.945  -3.958  0.00  0.00    +0.134 A 
ATOM      9  C   UNL     1       7.173  -7.678  -2.746  0.00  0.00    +0.060 A 
ATOM     10  C   UNL     1       6.412  -7.483  -1.609  0.00  0.00    +0.023 A 
ATOM     11 BR   UNL     1       9.059  -7.576  -2.651  0.00  0.00    -0.047 Br
BRANCH   8  12
ATOM     12  O   UNL     1       7.298  -8.133  -5.079  0.00  0.00    -0.491 OA
BRANCH  12  13
ATOM     13  C   UNL     1       6.591  -8.404  -6.291  0.00  0.00    +0.226 C 
ATOM     14  C   UNL     1       7.591  -8.586  -7.435  0.00  0.00    +0.048 C 
ENDBRANCH  12  13
ENDBRANCH   8  12
ENDBRANCH   4   5
ENDBRANCH   2   4
ENDBRANCH   1   2
BRANCH   1  15
ATOM     15  C   UNL     1       2.734  -4.200   1.005  0.00  0.00    -0.003 C 
BRANCH  15  16
ATOM     16  C   UNL     1       1.892  -3.949   2.257  0.00  0.00    -0.078 C 
BRANCH  16  17
ATOM     17  N   UNL     1       1.577  -2.518   2.357  0.00  0.00    +0.380 N 
ATOM     18  H   UNL     1       2.432  -1.983   2.333  0.00  0.00    -0.082 HD
BRANCH  17  19
ATOM     19  C   UNL     1       0.722  -2.125   1.229  0.00  0.00    -0.079 C 
BRANCH  19  20
ATOM     20  C   UNL     1       0.511  -0.610   1.253  0.00  0.00    -0.019 C 
BRANCH  20  22
ATOM     21  C   UNL     1      -0.478   1.331   0.030  0.00  0.00    +0.004 C 
ATOM     22  C   UNL     1      -0.267  -0.184   0.006  0.00  0.00    -0.005 C 
ENDBRANCH  20  22
ENDBRANCH  19  20
ENDBRANCH  17  19
BRANCH  17  23
ATOM     23  C   UNL     1       0.872  -2.259   3.620  0.00  0.00    -0.079 C 
BRANCH  23  24
ATOM     24  C   UNL     1       1.813  -2.531   4.795  0.00  0.00    -0.019 C 
BRANCH  24  25
ATOM     25  C   UNL     1       1.125  -2.135   6.102  0.00  0.00    -0.005 C 
ATOM     26  C   UNL     1       2.066  -2.408   7.277  0.00  0.00    +0.004 C 
ENDBRANCH  24  25
ENDBRANCH  23  24
ENDBRANCH  17  23
ENDBRANCH  16  17
ENDBRANCH  15  16
ENDBRANCH   1  15
TORSDOF 14
