REMARK  Name = ZINC08970675
REMARK  2 active torsions:
REMARK  status: ('A' for Active; 'I' for Inactive)
REMARK    1  A    between atoms: C_6  and  C_7
REMARK    2  A    between atoms: C_10  and  C_31
REMARK                            x       y       z     vdW  Elec       q    Type
REMARK                         _______ _______ _______ _____ _____    ______ ____
ROOT
ATOM      1  C   UNL     1      -1.293  -0.775   0.010  0.00  0.00    +0.143 C 
ATOM      2  C   UNL     1      -1.350  -1.670   1.254  0.00  0.00    +0.058 C 
ATOM      3  C   UNL     1      -2.522  -2.651   1.132  0.00  0.00    +0.106 C 
ATOM      4  N   UNL     1      -2.288  -3.520  -0.037  0.00  0.00    -0.307 N 
ATOM      5  C   UNL     1      -1.832  -2.892  -1.188  0.00  0.00    +0.216 A 
ATOM      6  N   UNL     1      -1.371  -1.616  -1.184  0.00  0.00    -0.224 N 
ATOM      7  N   UNL     1      -1.008  -1.316  -2.498  0.00  0.00    -0.131 NA
ATOM      8  C   UNL     1      -1.258  -2.388  -3.214  0.00  0.00    +0.251 A 
ATOM      9  N   UNL     1      -1.756  -3.346  -2.410  0.00  0.00    -0.179 NA
ATOM     10  N   UNL     1      -1.037  -2.515  -4.592  0.00  0.00    -0.176 N 
ATOM     11  C   UNL     1      -0.525  -1.526  -5.348  0.00  0.00    +0.233 C 
ATOM     12  O   UNL     1      -0.009  -0.506  -4.945  0.00  0.00    -0.274 OA
ATOM     13  C   UNL     1      -0.716  -1.932  -6.819  0.00  0.00    +0.092 C 
ATOM     14  C   UNL     1      -2.103  -1.403  -7.194  0.00  0.00    +0.040 C 
ATOM     15  C   UNL     1      -2.831  -2.282  -8.151  0.00  0.00    -0.030 C 
ATOM     16  C   UNL     1      -2.536  -3.516  -8.392  0.00  0.00    -0.030 C 
ATOM     17  C   UNL     1      -1.374  -4.220  -7.766  0.00  0.00    +0.040 C 
ATOM     18  C   UNL     1      -0.720  -3.460  -6.649  0.00  0.00    +0.092 C 
ATOM     19  C   UNL     1      -1.313  -3.645  -5.282  0.00  0.00    +0.233 C 
ATOM     20  O   UNL     1      -1.921  -4.613  -4.878  0.00  0.00    -0.274 OA
ATOM     21  H   UNL     1      -2.445  -4.477  -0.004  0.00  0.00    +0.149 HD
ENDROOT
BRANCH   1  27
ATOM     22  C   UNL     1      -0.017   1.378   0.010  0.00  0.00    +0.008 A 
ATOM     23  C   UNL     1       1.170   2.086   0.002  0.00  0.00    +0.038 A 
ATOM     24  C   UNL     1       2.379   1.410  -0.013  0.00  0.00    +0.123 A 
ATOM     25  C   UNL     1       2.396   0.026  -0.021  0.00  0.00    +0.038 A 
ATOM     26  C   UNL     1       1.208  -0.680  -0.013  0.00  0.00    +0.008 A 
ATOM     27  C   UNL     1       0.002  -0.004   0.002  0.00  0.00    -0.023 A 
ATOM     28  F   UNL     1       3.540   2.101  -0.021  0.00  0.00    -0.205 F 
ENDBRANCH   1  27
BRANCH   3  29
ATOM     29  C   UNL     1      -3.807  -1.885   0.949  0.00  0.00    -0.027 A 
ATOM     30  C   UNL     1      -4.144  -1.391  -0.297  0.00  0.00    +0.007 A 
ATOM     31  C   UNL     1      -5.322  -0.688  -0.466  0.00  0.00    +0.020 A 
ATOM     32  C   UNL     1      -6.163  -0.478   0.613  0.00  0.00    +0.041 A 
ATOM     33  C   UNL     1      -5.825  -0.973   1.859  0.00  0.00    +0.020 A 
ATOM     34  C   UNL     1      -4.649  -1.681   2.026  0.00  0.00    +0.007 A 
ATOM     35 CL   UNL     1      -7.643   0.405   0.402  0.00  0.00    -0.084 Cl
ENDBRANCH   3  29
TORSDOF 2
