REMARK  Name = ZINC09761296
REMARK  6 active torsions:
REMARK  status: ('A' for Active; 'I' for Inactive)
REMARK    1  A    between atoms: C_1  and  S_2
REMARK    2  A    between atoms: S_2  and  C_3
REMARK    3  A    between atoms: C_4  and  C_23
REMARK    4  A    between atoms: C_5  and  S_10
REMARK    5  A    between atoms: S_10  and  C_11
REMARK    6  A    between atoms: C_11  and  C_12
REMARK                            x       y       z     vdW  Elec       q    Type
REMARK                         _______ _______ _______ _____ _____    ______ ____
ROOT
ATOM      1  S   UNL     1       4.250   5.295  -0.009  0.00  0.00    -0.095 S 
ENDROOT
BRANCH   1   4
ATOM      2  C   UNL     1       1.708   2.135  -0.003  0.00  0.00    +0.120 A 
ATOM      3  C   UNL     1       2.186   3.462  -0.000  0.00  0.00    +0.115 A 
ATOM      4  C   UNL     1       3.581   3.665  -0.012  0.00  0.00    +0.121 A 
ATOM      5  N   UNL     1       4.384   2.605  -0.025  0.00  0.00    -0.207 NA
ATOM      6  C   UNL     1       3.890   1.375  -0.027  0.00  0.00    +0.215 A 
ATOM      7  N   UNL     1       2.587   1.137  -0.011  0.00  0.00    -0.207 NA
ATOM      8  N   UNL     1       4.763   0.306  -0.040  0.00  0.00    -0.327 N 
ATOM      9  H   UNL     1       5.721   0.462  -0.048  0.00  0.00    +0.145 HD
ATOM     10  H   UNL     1       4.420  -0.601  -0.042  0.00  0.00    +0.145 HD
BRANCH   2  12
ATOM     11  C   UNL     1       0.002  -0.004   0.002  0.00  0.00    +0.091 C 
ATOM     12  S   UNL     1      -0.022   1.806   0.012  0.00  0.00    -0.108 S 
ENDBRANCH   2  12
BRANCH   3  13
ATOM     13  C   UNL     1       1.280   4.572   0.014  0.00  0.00    +0.104 C 
ATOM     14  N   UNL     1       0.562   5.452   0.026  0.00  0.00    -0.191 NA
ENDBRANCH   3  13
ENDBRANCH   1   4
BRANCH   1  15
ATOM     15  C   UNL     1       6.018   4.909  -0.028  0.00  0.00    +0.172 C 
BRANCH  15  16
ATOM     16  C   UNL     1       6.812   6.190  -0.028  0.00  0.00    +0.229 C 
ATOM     17  O   UNL     1       6.239   7.259  -0.016  0.00  0.00    -0.275 OA
ATOM     18  N   UNL     1       8.159   6.149  -0.040  0.00  0.00    -0.269 N 
ATOM     19  C   UNL     1       8.894   7.334  -0.040  0.00  0.00    +0.139 A 
ATOM     20  C   UNL     1      10.284   7.284  -0.048  0.00  0.00    +0.059 A 
ATOM     21  C   UNL     1      11.001   8.468  -0.053  0.00  0.00    +0.035 A 
ATOM     22  C   UNL     1      10.299   9.667  -0.040  0.00  0.00    +0.037 A 
ATOM     23  C   UNL     1       8.918   9.642  -0.028  0.00  0.00    +0.128 A 
ATOM     24  N   UNL     1       8.262   8.497  -0.028  0.00  0.00    -0.238 NA
ATOM     25 BR   UNL     1      11.225  11.316  -0.039  0.00  0.00    -0.049 Br
ATOM     26 BR   UNL     1      11.182   5.620  -0.057  0.00  0.00    -0.047 Br
ATOM     27  H   UNL     1       8.618   5.294  -0.049  0.00  0.00    +0.156 HD
ENDBRANCH  15  16
ENDBRANCH   1  15
TORSDOF 5
