REMARK  Name = ZINC13473998
REMARK  11 active torsions:
REMARK  status: ('A' for Active; 'I' for Inactive)
REMARK    1  A    between atoms: C_1  and  C_2
REMARK    2  A    between atoms: C_2  and  O_3
REMARK    3  A    between atoms: O_3  and  C_4
REMARK    4  A    between atoms: C_4  and  C_6
REMARK    5  A    between atoms: C_6  and  C_7
REMARK    6  A    between atoms: C_11  and  O_13
REMARK    7  A    between atoms: O_13  and  C_14
REMARK    8  A    between atoms: C_16  and  C_30
REMARK    9  A    between atoms: C_18  and  O_20
REMARK   10  A    between atoms: O_20  and  C_21
REMARK   11  A    between atoms: C_25  and  C_27
REMARK                            x       y       z     vdW  Elec       q    Type
REMARK                         _______ _______ _______ _____ _____    ______ ____
ROOT
ATOM      1  C   UNL     1      -1.162   2.850   0.808  0.00  0.00    +0.260 A 
ATOM      2  C   UNL     1      -0.683   2.153  -0.294  0.00  0.00    +0.191 A 
ATOM      3  C   UNL     1      -1.248   0.929  -0.619  0.00  0.00    +0.030 A 
ATOM      4  C   UNL     1      -2.281   0.446   0.171  0.00  0.00    +0.191 A 
ATOM      5  C   UNL     1      -2.706   1.193   1.263  0.00  0.00    +0.260 A 
ATOM      6  N   UNL     1      -2.145   2.358   1.544  0.00  0.00    -0.172 NA
ATOM      7  F   UNL     1      -2.863  -0.740  -0.114  0.00  0.00    -0.200 F 
ATOM      8  C   UNL     1      -0.756   0.144  -1.807  0.00  0.00    +0.050 C 
ATOM      9  F   UNL     1       0.321   2.662  -1.041  0.00  0.00    -0.200 F 
ENDROOT
BRANCH   1  10
ATOM     10  O   UNL     1      -0.615   4.049   1.134  0.00  0.00    -0.436 OA
BRANCH  10  15
ATOM     11  C   UNL     1      -1.048   6.407   3.871  0.00  0.00    -0.033 A 
ATOM     12  C   UNL     1      -2.392   6.233   4.150  0.00  0.00    +0.004 A 
ATOM     13  C   UNL     1      -3.140   5.329   3.420  0.00  0.00    +0.004 A 
ATOM     14  C   UNL     1      -2.548   4.596   2.409  0.00  0.00    +0.046 A 
ATOM     15  C   UNL     1      -1.200   4.769   2.127  0.00  0.00    +0.131 A 
ATOM     16  C   UNL     1      -0.450   5.673   2.866  0.00  0.00    +0.050 A 
BRANCH  11  17
ATOM     17  C   UNL     1      -0.236   7.394   4.669  0.00  0.00    +0.155 C 
BRANCH  17  18
ATOM     18  C   UNL     1       0.361   6.701   5.867  0.00  0.00    +0.311 C 
ATOM     19  O   UNL     1       0.148   5.526   6.053  0.00  0.00    -0.250 OA
BRANCH  18  20
ATOM     20  O   UNL     1       1.129   7.388   6.726  0.00  0.00    -0.465 OA
BRANCH  20  22
ATOM     21  C   UNL     1       2.513   7.599   8.719  0.00  0.00    +0.048 C 
ATOM     22  C   UNL     1       1.670   6.656   7.858  0.00  0.00    +0.229 C 
ENDBRANCH  20  22
ENDBRANCH  18  20
ENDBRANCH  17  18
ENDBRANCH  11  17
ENDBRANCH  10  15
ENDBRANCH   1  10
BRANCH   5  23
ATOM     23  O   UNL     1      -3.712   0.725   2.046  0.00  0.00    -0.436 OA
BRANCH  23  24
ATOM     24  C   UNL     1      -4.001   1.405   3.187  0.00  0.00    +0.131 A 
ATOM     25  C   UNL     1      -3.014   2.147   3.821  0.00  0.00    +0.046 A 
ATOM     26  C   UNL     1      -3.302   2.840   4.982  0.00  0.00    +0.004 A 
ATOM     27  C   UNL     1      -4.574   2.798   5.517  0.00  0.00    +0.011 A 
ATOM     28  C   UNL     1      -5.572   2.055   4.886  0.00  0.00    +0.016 A 
ATOM     29  C   UNL     1      -5.281   1.361   3.713  0.00  0.00    +0.057 A 
BRANCH  28  30
ATOM     30  C   UNL     1      -6.937   2.009   5.459  0.00  0.00    +0.094 C 
ATOM     31  N   UNL     1      -7.223   2.700   6.616  0.00  0.00    -0.345 N 
ATOM     32  H   UNL     1      -8.791   1.222   5.165  0.00  0.00    +0.157 HD
ATOM     33  H   UNL     1      -6.530   3.217   7.056  0.00  0.00    +0.144 HD
ATOM     34  H   UNL     1      -8.117   2.669   6.990  0.00  0.00    +0.144 HD
ATOM     35  N   UNL     1      -7.837   1.285   4.811  0.00  0.00    -0.387 N 
ATOM     36  H   UNL     1      -7.574   0.788   3.952  0.00  0.00    +0.157 HD
ENDBRANCH  28  30
ENDBRANCH  23  24
ENDBRANCH   5  23
TORSDOF 9
