REMARK  Name = ZINC13566855
REMARK  4 active torsions:
REMARK  status: ('A' for Active; 'I' for Inactive)
REMARK    1  A    between atoms: C_6  and  C_7
REMARK    2  A    between atoms: C_7  and  N_9
REMARK    3  A    between atoms: C_11  and  C_22
REMARK    4  A    between atoms: N_13  and  C_15
REMARK                            x       y       z     vdW  Elec       q    Type
REMARK                         _______ _______ _______ _____ _____    ______ ____
ROOT
ATOM      1  N   UNL     1      -3.690   3.402   0.039  0.00  0.00    -0.166 NA
ATOM      2  C   UNL     1      -2.425   3.838   0.034  0.00  0.00    +0.144 A 
ATOM      3  C   UNL     1      -1.207   3.097   0.025  0.00  0.00    +0.177 A 
ATOM      4  N   UNL     1      -0.115   3.802   0.029  0.00  0.00    -0.152 NA
ATOM      5  N   UNL     1      -0.143   5.091   0.030  0.00  0.00    -0.199 N 
ATOM      6  S   UNL     1      -1.813   5.462   0.040  0.00  0.00    +0.032 S 
ENDROOT
BRANCH   5   7
ATOM      7  C   UNL     1       0.937   5.976   0.030  0.00  0.00    +0.073 A 
ATOM      8  C   UNL     1       2.238   5.487   0.028  0.00  0.00    +0.030 A 
ATOM      9  C   UNL     1       3.304   6.365   0.022  0.00  0.00    +0.022 A 
ATOM     10  C   UNL     1       3.077   7.731   0.030  0.00  0.00    +0.041 A 
ATOM     11  C   UNL     1       1.783   8.221   0.039  0.00  0.00    +0.022 A 
ATOM     12  C   UNL     1       0.713   7.348   0.039  0.00  0.00    +0.030 A 
ATOM     13 CL   UNL     1       4.420   8.831   0.029  0.00  0.00    -0.084 Cl
ENDBRANCH   5   7
BRANCH   3  14
ATOM     14  C   UNL     1      -1.187   1.624   0.017  0.00  0.00    +0.264 C 
ATOM     15  O   UNL     1      -2.232   1.001   0.018  0.00  0.00    -0.269 OA
ATOM     16  N   UNL     1      -0.011   0.966   0.007  0.00  0.00    -0.324 N 
ATOM     17  H   UNL     1       0.002  -0.004   0.002  0.00  0.00    +0.145 HD
ATOM     18  H   UNL     1       0.822   1.462   0.002  0.00  0.00    +0.145 HD
ENDBRANCH   3  14
BRANCH   1  19
ATOM     19  C   UNL     1      -4.696   4.276   0.048  0.00  0.00    +0.268 C 
ATOM     20  O   UNL     1      -4.464   5.473   0.053  0.00  0.00    -0.268 OA
BRANCH  19  26
ATOM     21  C   UNL     1      -6.365   2.424   0.042  0.00  0.00    +0.014 A 
ATOM     22  C   UNL     1      -7.671   1.980   0.051  0.00  0.00    +0.021 A 
ATOM     23  C   UNL     1      -8.715   2.891   0.061  0.00  0.00    +0.041 A 
ATOM     24  C   UNL     1      -8.454   4.251   0.067  0.00  0.00    +0.021 A 
ATOM     25  C   UNL     1      -7.152   4.706   0.063  0.00  0.00    +0.014 A 
ATOM     26  C   UNL     1      -6.097   3.793   0.053  0.00  0.00    +0.039 A 
ATOM     27 CL   UNL     1     -10.356   2.325   0.065  0.00  0.00    -0.084 Cl
ENDBRANCH  19  26
ENDBRANCH   1  19
TORSDOF 4
