REMARK  Name = ZINC28717862
REMARK  9 active torsions:
REMARK  status: ('A' for Active; 'I' for Inactive)
REMARK    1  A    between atoms: C_1  and  C_2
REMARK    2  A    between atoms: C_4  and  C_15
REMARK    3  A    between atoms: C_6  and  S_9
REMARK    4  A    between atoms: C_7  and  C_8
REMARK    5  A    between atoms: S_9  and  N_12
REMARK    6  A    between atoms: N_12  and  C_13
REMARK    7  A    between atoms: N_12  and  C_14
REMARK    8  A    between atoms: N_17  and  N_18
REMARK    9  A    between atoms: C_19  and  C_21
REMARK                            x       y       z     vdW  Elec       q    Type
REMARK                         _______ _______ _______ _____ _____    ______ ____
ROOT
ATOM      1  C   UNL     1       2.714   3.313  -0.724  0.00  0.00    +0.260 C 
ATOM      2  O   UNL     1       1.908   4.147  -0.360  0.00  0.00    -0.269 OA
ATOM      3  N   UNL     1       3.941   3.695  -1.133  0.00  0.00    -0.230 N 
ATOM      4  H   UNL     1       4.670   2.941  -1.463  0.00  0.00    +0.173 HD
ENDROOT
BRANCH   1   8
ATOM      5  C   UNL     1       3.922  -1.452  -1.580  0.00  0.00    +0.044 C 
ATOM      6  C   UNL     1       2.926  -0.415  -1.130  0.00  0.00    -0.045 A 
ATOM      7  C   UNL     1       3.273   0.921  -1.137  0.00  0.00    +0.016 A 
ATOM      8  C   UNL     1       2.349   1.881  -0.720  0.00  0.00    +0.040 A 
ATOM      9  C   UNL     1       1.080   1.482  -0.297  0.00  0.00    +0.042 A 
ATOM     10  C   UNL     1       0.746   0.143  -0.295  0.00  0.00    +0.109 A 
ATOM     11  C   UNL     1       1.666  -0.803  -0.711  0.00  0.00    -0.021 A 
ATOM     12  C   UNL     1       1.294  -2.264  -0.706  0.00  0.00    +0.046 C 
BRANCH  10  13
ATOM     13  S   UNL     1      -0.856  -0.362   0.237  0.00  0.00    +0.061 S 
ATOM     14  O   UNL     1      -1.379  -1.197  -0.787  0.00  0.00    -0.153 OA
ATOM     15  O   UNL     1      -0.718  -0.801   1.581  0.00  0.00    -0.153 OA
BRANCH  13  16
ATOM     16  N   UNL     1      -1.809   0.992   0.276  0.00  0.00    -0.183 NA
ATOM     17  C   UNL     1      -2.468   1.460  -0.945  0.00  0.00    +0.131 C 
ATOM     18  C   UNL     1      -1.992   1.722   1.533  0.00  0.00    +0.131 C 
ENDBRANCH  13  16
ENDBRANCH  10  13
ENDBRANCH   1   8
BRANCH   3  19
ATOM     19  N   UNL     1       4.286   5.053  -1.137  0.00  0.00    -0.229 N 
ATOM     20  C   UNL     1       5.513   5.434  -1.545  0.00  0.00    +0.276 C 
ATOM     21  O   UNL     1       6.320   4.600  -1.910  0.00  0.00    -0.267 OA
ATOM     22  H   UNL     1       3.557   5.807  -0.807  0.00  0.00    +0.173 HD
BRANCH  20  23
ATOM     23  C   UNL     1       5.875   6.856  -1.550  0.00  0.00    +0.104 A 
ATOM     24  C   UNL     1       7.088   7.386  -1.934  0.00  0.00    +0.047 A 
ATOM     25  C   UNL     1       6.996   8.774  -1.783  0.00  0.00    +0.036 A 
ATOM     26  C   UNL     1       5.758   9.059  -1.312  0.00  0.00    +0.098 A 
ATOM     27  N   UNL     1       5.067   7.902  -1.166  0.00  0.00    -0.356 N 
ATOM     28  H   UNL     1       4.043   7.706  -0.815  0.00  0.00    +0.166 HD
ATOM     29 BR   UNL     1       8.360  10.028  -2.162  0.00  0.00    -0.049 Br
ENDBRANCH  20  23
ENDBRANCH   3  19
TORSDOF 5
