REMARK  Name = ZINC12879819
REMARK  6 active torsions:
REMARK  status: ('A' for Active; 'I' for Inactive)
REMARK    1  A    between atoms: C_3  and  S_26
REMARK    2  A    between atoms: C_6  and  N_7
REMARK    3  A    between atoms: C_8  and  C_10
REMARK    4  A    between atoms: C_10  and  C_11
REMARK    5  A    between atoms: C_17  and  C_19
REMARK    6  A    between atoms: S_26  and  N_29
REMARK                            x       y       z     vdW  Elec       q    Type
REMARK                         _______ _______ _______ _____ _____    ______ ____
ROOT
ATOM      1  C   UNL     1      -2.916   5.294   0.040  0.00  0.00    +0.152 C 
ENDROOT
BRANCH   1   2
ATOM      2  C   UNL     1      -2.676   3.806   0.033  0.00  0.00    +0.059 A 
ATOM      3  C   UNL     1      -3.716   2.936   0.027  0.00  0.00    +0.072 A 
ATOM      4  S   UNL     1      -2.844   1.377   0.021  0.00  0.00    -0.060 S 
ATOM      5  C   UNL     1      -1.231   2.019   0.028  0.00  0.00    +0.165 A 
ATOM      6  N   UNL     1      -1.450   3.320   0.039  0.00  0.00    -0.229 NA
ATOM      7  N   UNL     1      -0.019   1.338   0.027  0.00  0.00    -0.263 N 
ATOM      8  C   UNL     1      -0.004  -0.009   0.020  0.00  0.00    +0.239 C 
ATOM      9  O   UNL     1      -1.048  -0.628   0.019  0.00  0.00    -0.273 OA
ATOM     10  H   UNL     1       0.815   1.833   0.028  0.00  0.00    +0.157 HD
BRANCH   8  11
ATOM     11  C   UNL     1       1.309  -0.748   0.013  0.00  0.00    +0.160 C 
ATOM     12  C   UNL     1       1.880  -0.810  -1.421  0.00  0.00    +0.041 C 
ATOM     13  C   UNL     1       1.338  -2.174  -1.915  0.00  0.00    +0.098 C 
ATOM     14  C   UNL     1       1.115  -2.967  -0.646  0.00  0.00    +0.214 C 
ATOM     15  O   UNL     1       0.963  -4.169  -0.596  0.00  0.00    -0.276 OA
ATOM     16  N   UNL     1       1.109  -2.145   0.418  0.00  0.00    -0.304 N 
ATOM     17  H   UNL     1       0.988  -2.437   1.335  0.00  0.00    +0.149 HD
ENDBRANCH   8  11
ENDBRANCH   1   2
BRANCH   1  19
ATOM     18  N   UNL     1      -2.264   7.243   1.417  0.00  0.00    -0.285 N 
ATOM     19  C   UNL     1      -2.193   5.913   1.209  0.00  0.00    +0.223 C 
ATOM     20  O   UNL     1      -1.547   5.215   1.961  0.00  0.00    -0.275 OA
ATOM     21  H   UNL     1      -2.724   7.810   0.778  0.00  0.00    +0.155 HD
BRANCH  18  27
ATOM     22  C   UNL     1      -2.268   8.895   3.179  0.00  0.00    +0.025 A 
ATOM     23  C   UNL     1      -1.687   9.444   4.306  0.00  0.00    +0.030 A 
ATOM     24  C   UNL     1      -0.509   8.918   4.804  0.00  0.00    +0.105 A 
ATOM     25  C   UNL     1       0.087   7.837   4.181  0.00  0.00    +0.030 A 
ATOM     26  C   UNL     1      -0.492   7.279   3.058  0.00  0.00    +0.025 A 
ATOM     27  C   UNL     1      -1.675   7.805   2.554  0.00  0.00    +0.034 A 
BRANCH  24  28
ATOM     28  S   UNL     1       0.234   9.626   6.236  0.00  0.00    +0.056 S 
ATOM     29  O   UNL     1      -0.806  10.281   6.951  0.00  0.00    -0.153 OA
ATOM     30  O   UNL     1       1.038   8.611   6.821  0.00  0.00    -0.153 OA
BRANCH  28  31
ATOM     31  N   UNL     1       1.269  10.809   5.717  0.00  0.00    -0.204 NA
ATOM     32  H   UNL     1       1.364  10.988   4.768  0.00  0.00    +0.144 HD
ATOM     33  H   UNL     1       1.780  11.324   6.361  0.00  0.00    +0.144 HD
ENDBRANCH  28  31
ENDBRANCH  24  28
ENDBRANCH  18  27
ENDBRANCH   1  19
TORSDOF 6
