REMARK  Name = ZINC25511481
REMARK  6 active torsions:
REMARK  status: ('A' for Active; 'I' for Inactive)
REMARK    1  A    between atoms: C_1  and  C_2
REMARK    2  A    between atoms: C_2  and  C_4
REMARK    3  A    between atoms: C_2  and  N_18
REMARK    4  A    between atoms: N_6  and  C_7
REMARK    5  A    between atoms: C_11  and  N_13
REMARK    6  A    between atoms: C_14  and  C_16
REMARK                            x       y       z     vdW  Elec       q    Type
REMARK                         _______ _______ _______ _____ _____    ______ ____
ROOT
ATOM      1  C   UNL     1       6.544   1.436   1.197  0.00  0.00    +0.238 C 
ATOM      2  O   UNL     1       5.757   1.851   2.022  0.00  0.00    -0.273 OA
ATOM      3  N   UNL     1       7.868   1.600   1.387  0.00  0.00    -0.284 N 
ATOM      4  H   UNL     1       8.584   1.141   0.689  0.00  0.00    +0.155 HD
ENDROOT
BRANCH   3   5
ATOM      5  C   UNL     1       8.332   2.353   2.472  0.00  0.00    +0.035 A 
ATOM      6  C   UNL     1       7.534   3.350   3.018  0.00  0.00    +0.026 A 
ATOM      7  C   UNL     1       7.988   4.090   4.092  0.00  0.00    +0.042 A 
ATOM      8  C   UNL     1       9.244   3.849   4.620  0.00  0.00    +0.145 A 
ATOM      9  C   UNL     1      10.050   2.856   4.074  0.00  0.00    +0.071 A 
ATOM     10  C   UNL     1       9.592   2.108   2.998  0.00  0.00    +0.049 A 
ATOM     11  F   UNL     1       9.688   4.579   5.667  0.00  0.00    -0.204 F 
BRANCH   9  12
ATOM     12  N   UNL     1      11.320   2.611   4.608  0.00  0.00    -0.283 N 
ATOM     13  C   UNL     1      12.333   2.243   3.798  0.00  0.00    +0.214 C 
ATOM     14  O   UNL     1      12.124   2.041   2.620  0.00  0.00    -0.276 OA
ATOM     15  C   UNL     1      13.723   2.081   4.356  0.00  0.00    +0.109 C 
ATOM     16  H   UNL     1      11.493   2.719   5.689  0.00  0.00    +0.155 HD
ENDBRANCH   9  12
ENDBRANCH   3   5
BRANCH   1  18
ATOM     17  C   UNL     1       6.499   1.507  -1.281  0.00  0.00    +0.038 C 
ATOM     18  C   UNL     1       6.040   0.739  -0.040  0.00  0.00    +0.168 C 
BRANCH  18  19
ATOM     19  N   UNL     1       4.576   0.688  -0.011  0.00  0.00    -0.222 N 
ATOM     20  C   UNL     1       3.778   1.770   0.032  0.00  0.00    +0.255 C 
ATOM     21  O   UNL     1       4.151   2.926   0.051  0.00  0.00    -0.270 OA
ATOM     22  C   UNL     1       2.372   1.318   0.051  0.00  0.00    +0.051 A 
ATOM     23  C   UNL     1       1.147   1.966   0.093  0.00  0.00    +0.035 A 
ATOM     24  C   UNL     1      -0.024   1.223   0.101  0.00  0.00    +0.060 A 
ATOM     25  C   UNL     1       0.023  -0.161   0.067  0.00  0.00    +0.060 A 
ATOM     26  C   UNL     1       1.242  -0.821   0.024  0.00  0.00    +0.035 A 
ATOM     27  C   UNL     1       2.419  -0.091   0.016  0.00  0.00    +0.051 A 
ATOM     28  C   UNL     1       3.853  -0.446  -0.023  0.00  0.00    +0.255 C 
ATOM     29  O   UNL     1       4.304  -1.573  -0.060  0.00  0.00    -0.270 OA
ATOM     30 CL   UNL     1      -1.453  -1.074   0.077  0.00  0.00    -0.082 Cl
ATOM     31 CL   UNL     1      -1.559   2.033   0.146  0.00  0.00    -0.082 Cl
ENDBRANCH  18  19
ENDBRANCH   1  18
TORSDOF 4
