REMARK  Name = ZINC04349256
REMARK  11 active torsions:
REMARK  status: ('A' for Active; 'I' for Inactive)
REMARK    1  A    between atoms: C_3  and  O_37
REMARK    2  A    between atoms: C_4  and  O_36
REMARK    3  A    between atoms: C_6  and  C_7
REMARK    4  A    between atoms: C_15  and  O_35
REMARK    5  A    between atoms: C_16  and  C_19
REMARK    6  A    between atoms: C_17  and  O_18
REMARK    7  A    between atoms: C_21  and  O_34
REMARK    8  A    between atoms: C_23  and  O_33
REMARK    9  A    between atoms: C_25  and  O_32
REMARK   10  A    between atoms: C_27  and  C_30
REMARK   11  A    between atoms: C_30  and  O_31
REMARK                            x       y       z     vdW  Elec       q    Type
REMARK                         _______ _______ _______ _____ _____    ______ ____
ROOT
ATOM      1  C   UNL     1       4.393   0.363  -5.598  0.00  0.00    +0.139 A 
ATOM      2  C   UNL     1       4.022   1.670  -5.671  0.00  0.00    +0.098 A 
ATOM      3  C   UNL     1       3.337   2.262  -4.584  0.00  0.00    +0.197 A 
ATOM      4  O   UNL     1       2.990   3.432  -4.615  0.00  0.00    -0.287 OA
ATOM      5  C   UNL     1       3.060   1.413  -3.413  0.00  0.00    +0.106 A 
ATOM      6  C   UNL     1       3.487   0.074  -3.440  0.00  0.00    +0.146 A 
ATOM      7  O   UNL     1       4.134  -0.402  -4.525  0.00  0.00    -0.454 OA
ATOM      8  C   UNL     1       3.236  -0.743  -2.349  0.00  0.00    +0.093 A 
ATOM      9  C   UNL     1       2.569  -0.239  -1.243  0.00  0.00    +0.130 A 
ATOM     10  C   UNL     1       2.146   1.085  -1.213  0.00  0.00    +0.067 A 
ATOM     11  C   UNL     1       2.383   1.915  -2.295  0.00  0.00    +0.140 A 
ENDROOT
BRANCH   1  17
ATOM     12  C   UNL     1       5.389   0.533  -7.872  0.00  0.00    +0.015 A 
ATOM     13  C   UNL     1       6.056  -0.029  -8.939  0.00  0.00    +0.050 A 
ATOM     14  C   UNL     1       6.448  -1.360  -8.894  0.00  0.00    +0.158 A 
ATOM     15  C   UNL     1       6.169  -2.134  -7.769  0.00  0.00    +0.159 A 
ATOM     16  C   UNL     1       5.505  -1.576  -6.693  0.00  0.00    +0.060 A 
ATOM     17  C   UNL     1       5.106  -0.237  -6.741  0.00  0.00    +0.021 A 
BRANCH  15  18
ATOM     18  O   UNL     1       6.555  -3.438  -7.727  0.00  0.00    -0.503 OA
ATOM     19  H   UNL     1       7.438  -3.575  -7.359  0.00  0.00    +0.292 HD
ENDBRANCH  15  18
BRANCH  14  20
ATOM     20  O   UNL     1       7.106  -1.909  -9.948  0.00  0.00    -0.503 OA
ATOM     21  H   UNL     1       8.068  -1.828  -9.896  0.00  0.00    +0.292 HD
ENDBRANCH  14  20
ENDBRANCH   1  17
BRANCH  10  22
ATOM     22  C   UNL     1       1.423   1.617  -0.003  0.00  0.00    +0.187 C 
ATOM     23  C   UNL     1      -0.013   1.086   0.008  0.00  0.00    +0.179 C 
ATOM     24  C   UNL     1      -0.723   1.581   1.272  0.00  0.00    +0.177 C 
ATOM     25  C   UNL     1       0.073   1.131   2.501  0.00  0.00    +0.176 C 
ATOM     26  C   UNL     1       1.506   1.660   2.394  0.00  0.00    +0.175 C 
ATOM     27  O   UNL     1       2.097   1.188   1.182  0.00  0.00    -0.361 OA
BRANCH  25  28
ATOM     28  O   UNL     1      -0.540   1.649   3.683  0.00  0.00    -0.386 OA
ATOM     29  H   UNL     1      -1.452   1.354   3.815  0.00  0.00    +0.210 HD
ENDBRANCH  25  28
BRANCH  24  30
ATOM     30  O   UNL     1      -2.040   1.030   1.327  0.00  0.00    -0.386 OA
ATOM     31  H   UNL     1      -2.548   1.303   2.104  0.00  0.00    +0.210 HD
ENDBRANCH  24  30
BRANCH  23  32
ATOM     32  O   UNL     1      -0.706   1.560  -1.148  0.00  0.00    -0.386 OA
ATOM     33  H   UNL     1      -1.625   1.263  -1.205  0.00  0.00    +0.210 HD
ENDBRANCH  23  32
BRANCH  26  34
ATOM     34  C   UNL     1       1.485   3.190   2.389  0.00  0.00    +0.190 C 
BRANCH  34  35
ATOM     35  O   UNL     1       2.826   3.685   2.405  0.00  0.00    -0.392 OA
ATOM     36  H   UNL     1       2.889   4.650   2.403  0.00  0.00    +0.210 HD
ENDBRANCH  34  35
ENDBRANCH  26  34
ENDBRANCH  10  22
BRANCH  11  37
ATOM     37  O   UNL     1       1.966   3.206  -2.270  0.00  0.00    -0.505 OA
ATOM     38  H   UNL     1       2.617   3.822  -1.909  0.00  0.00    +0.292 HD
ENDBRANCH  11  37
BRANCH   9  39
ATOM     39  O   UNL     1       2.327  -1.045  -0.178  0.00  0.00    -0.506 OA
ATOM     40  H   UNL     1       1.485  -1.518  -0.226  0.00  0.00    +0.292 HD
ENDBRANCH   9  39
TORSDOF 11
