REMARK  Name = ZINC02271781
REMARK  9 active torsions:
REMARK  status: ('A' for Active; 'I' for Inactive)
REMARK    1  A    between atoms: C_1  and  C_2
REMARK    2  A    between atoms: C_4  and  C_34
REMARK    3  A    between atoms: N_5  and  C_7
REMARK    4  A    between atoms: C_7  and  C_8
REMARK    5  A    between atoms: C_10  and  C_16
REMARK    6  A    between atoms: C_13  and  O_14
REMARK    7  A    between atoms: O_14  and  C_15
REMARK    8  A    between atoms: N_27  and  C_28
REMARK    9  A    between atoms: C_28  and  C_29
REMARK                            x       y       z     vdW  Elec       q    Type
REMARK                         _______ _______ _______ _____ _____    ______ ____
ROOT
ATOM      1  C   UNL     1      -2.511   7.317   5.556  0.00  0.00    +0.193 C 
ATOM      2  N   UNL     1      -3.458   6.641   6.451  0.00  0.00    -0.321 N 
ATOM      3  C   UNL     1      -3.092   6.441   7.777  0.00  0.00    +0.041 A 
ATOM      4  C   UNL     1      -3.560   5.366   8.513  0.00  0.00    +0.024 A 
ATOM      5  C   UNL     1      -3.162   5.212   9.827  0.00  0.00    +0.002 A 
ATOM      6  C   UNL     1      -2.298   6.124  10.413  0.00  0.00    +0.001 A 
ATOM      7  C   UNL     1      -1.823   7.202   9.694  0.00  0.00    +0.015 A 
ATOM      8  C   UNL     1      -2.218   7.370   8.369  0.00  0.00    +0.058 A 
ATOM      9  C   UNL     1      -1.749   8.508   7.558  0.00  0.00    +0.250 C 
ATOM     10  O   UNL     1      -1.204   9.457   8.087  0.00  0.00    -0.270 OA
ATOM     11  N   UNL     1      -1.930   8.483   6.221  0.00  0.00    -0.268 N 
ATOM     12  H   UNL     1      -4.321   6.340   6.124  0.00  0.00    +0.148 HD
ENDROOT
BRANCH   1  15
ATOM     13  C   UNL     1      -0.664   4.123   4.762  0.00  0.00    +0.016 A 
ATOM     14  C   UNL     1      -1.670   5.003   5.109  0.00  0.00    +0.016 A 
ATOM     15  C   UNL     1      -1.411   6.359   5.178  0.00  0.00    -0.009 A 
ATOM     16  C   UNL     1      -0.144   6.838   4.899  0.00  0.00    +0.010 A 
ATOM     17  C   UNL     1       0.866   5.962   4.551  0.00  0.00    +0.046 A 
ATOM     18  C   UNL     1       0.609   4.600   4.487  0.00  0.00    +0.125 A 
BRANCH  18  19
ATOM     19  O   UNL     1       1.602   3.736   4.150  0.00  0.00    -0.495 OA
ATOM     20  C   UNL     1       2.888   4.298   3.880  0.00  0.00    +0.277 C 
ENDBRANCH  18  19
BRANCH  13  21
ATOM     21  C   UNL     1      -0.947   2.644   4.687  0.00  0.00    +0.182 C 
BRANCH  21  26
ATOM     22  C   UNL     1      -0.013   1.086   0.008  0.00  0.00    +0.068 C 
ATOM     23  C   UNL     1      -0.718   1.572   1.248  0.00  0.00    +0.074 A 
ATOM     24  C   UNL     1      -2.088   1.831   1.364  0.00  0.00    +0.061 A 
ATOM     25  C   UNL     1      -2.328   2.245   2.630  0.00  0.00    +0.051 A 
ATOM     26  N   UNL     1      -1.149   2.256   3.289  0.00  0.00    -0.263 N 
ATOM     27  N   UNL     1      -0.154   1.829   2.400  0.00  0.00    -0.175 NA
ATOM     28  C   UNL     1      -3.668   2.630   3.201  0.00  0.00    +0.066 C 
ATOM     29 BR   UNL     1      -3.378   1.634  -0.005  0.00  0.00    -0.047 Br
ENDBRANCH  21  26
ENDBRANCH  13  21
ENDBRANCH   1  15
BRANCH  11  30
ATOM     30  C   UNL     1      -1.539   9.646   5.421  0.00  0.00    +0.184 C 
BRANCH  30  31
ATOM     31  C   UNL     1      -2.703  10.597   5.313  0.00  0.00    +0.122 A 
ATOM     32  C   UNL     1      -2.978  11.604   6.162  0.00  0.00    +0.046 A 
ATOM     33  C   UNL     1      -4.151  12.232   5.686  0.00  0.00    +0.041 A 
ATOM     34  C   UNL     1      -4.524  11.572   4.574  0.00  0.00    +0.195 A 
ATOM     35  O   UNL     1      -3.639  10.586   4.350  0.00  0.00    -0.466 OA
ENDBRANCH  30  31
ENDBRANCH  11  30
TORSDOF 6
