REMARK  Name = ZINC35843282
REMARK  2 active torsions:
REMARK  status: ('A' for Active; 'I' for Inactive)
REMARK    1  A    between atoms: C_1  and  C_2
REMARK    2  A    between atoms: N_24  and  C_27
REMARK                            x       y       z     vdW  Elec       q    Type
REMARK                         _______ _______ _______ _____ _____    ______ ____
ROOT
ATOM      1  C   UNL     1       1.073   1.494  -0.195  0.00  0.00    +0.047 C 
ATOM      2  C   UNL     1       0.786   0.015  -0.143  0.00  0.00    -0.011 A 
ATOM      3  C   UNL     1       0.620  -0.696  -1.315  0.00  0.00    +0.046 A 
ATOM      4  C   UNL     1       0.356  -2.054  -1.277  0.00  0.00    +0.020 A 
ATOM      5  C   UNL     1       0.258  -2.702  -0.058  0.00  0.00    +0.006 A 
ATOM      6  C   UNL     1       0.424  -1.997   1.113  0.00  0.00    -0.027 A 
ATOM      7  C   UNL     1       0.695  -0.631   1.087  0.00  0.00    +0.040 A 
ATOM      8  N   UNL     1       0.828  -0.141   2.387  0.00  0.00    -0.286 N 
ATOM      9  C   UNL     1       0.669  -1.105   3.313  0.00  0.00    +0.212 C 
ATOM     10  O   UNL     1       0.731  -0.971   4.517  0.00  0.00    -0.277 OA
ATOM     11  C   UNL     1       0.384  -2.381   2.566  0.00  0.00    +0.053 C 
ATOM     12  C   UNL     1       1.435  -3.448   2.891  0.00  0.00    +0.089 C 
ATOM     13  C   UNL     1       0.648  -4.787   2.896  0.00  0.00    +0.074 C 
ATOM     14  C   UNL     1      -0.805  -4.403   2.561  0.00  0.00    -0.054 C 
ATOM     15  N   UNL     1      -0.919  -2.955   2.938  0.00  0.00    +0.395 N 
ATOM     16  C   UNL     1      -1.049  -2.949   4.415  0.00  0.00    -0.076 C 
ATOM     17  C   UNL     1      -1.923  -4.175   4.749  0.00  0.00    -0.020 C 
ATOM     18  C   UNL     1      -1.758  -5.147   3.515  0.00  0.00    -0.016 C 
ATOM     19  C   UNL     1       0.742  -5.242   4.335  0.00  0.00    +0.228 C 
ATOM     20  O   UNL     1       0.256  -6.259   4.781  0.00  0.00    -0.275 OA
ATOM     21  N   UNL     1       1.446  -4.348   5.038  0.00  0.00    -0.210 N 
ATOM     22  C   UNL     1       1.895  -3.292   4.323  0.00  0.00    +0.229 C 
ATOM     23  O   UNL     1       2.555  -2.369   4.751  0.00  0.00    -0.275 OA
ATOM     24 CL   UNL     1       0.743   0.117  -2.844  0.00  0.00    -0.083 Cl
ATOM     25  H   UNL     1       1.015   0.787   2.599  0.00  0.00    +0.155 HD
ATOM     26  H   UNL     1      -1.689  -2.498   2.474  0.00  0.00    -0.079 HD
ENDROOT
BRANCH  21  27
ATOM     27  C   UNL     1       1.703  -4.495   6.409  0.00  0.00    +0.044 A 
ATOM     28  C   UNL     1       2.529  -5.517   6.856  0.00  0.00    +0.025 A 
ATOM     29  C   UNL     1       2.780  -5.660   8.206  0.00  0.00    +0.017 A 
ATOM     30  C   UNL     1       2.210  -4.784   9.114  0.00  0.00    +0.018 A 
ATOM     31  C   UNL     1       1.387  -3.764   8.671  0.00  0.00    +0.017 A 
ATOM     32  C   UNL     1       1.137  -3.614   7.321  0.00  0.00    +0.025 A 
ATOM     33 BR   UNL     1       2.557  -4.983  10.962  0.00  0.00    -0.050 Br
ENDBRANCH  21  27
TORSDOF 1
