REMARK  Name = ZINC04134385
REMARK  8 active torsions:
REMARK  status: ('A' for Active; 'I' for Inactive)
REMARK    1  A    between atoms: C_1  and  C_2
REMARK    2  A    between atoms: C_2  and  C_3
REMARK    3  A    between atoms: C_2  and  C_4
REMARK    4  A    between atoms: C_2  and  C_5
REMARK    5  A    between atoms: C_24  and  C_37
REMARK    6  A    between atoms: C_37  and  C_38
REMARK    7  A    between atoms: C_37  and  C_39
REMARK    8  A    between atoms: C_37  and  C_40
REMARK                            x       y       z     vdW  Elec       q    Type
REMARK                         _______ _______ _______ _____ _____    ______ ____
ROOT
ATOM      1  C   UNL     1       1.679   7.216   3.578  0.00  0.00    -0.003 C 
ATOM      2  C   UNL     1       1.365   6.098   2.583  0.00  0.00    +0.007 C 
ATOM      3  C   UNL     1       1.469   4.744   3.288  0.00  0.00    +0.034 C 
ATOM      4  C   UNL     1       2.887   4.559   3.831  0.00  0.00    +0.147 C 
ATOM      5  C   UNL     1       3.201   5.678   4.827  0.00  0.00    +0.147 C 
ATOM      6  C   UNL     1       3.097   7.032   4.122  0.00  0.00    +0.038 C 
ATOM      7  O   UNL     1       2.266   5.630   5.907  0.00  0.00    -0.372 OA
ATOM      8  C   UNL     1       2.836   5.932   7.182  0.00  0.00    +0.188 C 
ATOM      9  C   UNL     1       2.224   5.015   8.244  0.00  0.00    +0.188 C 
ATOM     10  O   UNL     1       3.256   4.526   9.102  0.00  0.00    -0.375 OA
ATOM     11  C   UNL     1       2.870   3.397   9.890  0.00  0.00    +0.188 C 
ATOM     12  C   UNL     1       3.900   3.175  11.000  0.00  0.00    +0.188 C 
ATOM     13  O   UNL     1       4.798   2.132  10.614  0.00  0.00    -0.372 OA
ATOM     14  C   UNL     1       4.361   0.823  10.984  0.00  0.00    +0.147 C 
ATOM     15  C   UNL     1       4.801   0.524  12.418  0.00  0.00    +0.038 C 
ATOM     16  C   UNL     1       4.770  -0.987  12.657  0.00  0.00    -0.003 C 
ATOM     17  C   UNL     1       5.891  -1.653  11.857  0.00  0.00    +0.007 C 
ATOM     18  C   UNL     1       6.255  -0.774  10.659  0.00  0.00    +0.034 C 
ATOM     19  C   UNL     1       4.978  -0.207  10.036  0.00  0.00    +0.147 C 
ATOM     20  O   UNL     1       5.293   0.420   8.791  0.00  0.00    -0.372 OA
ATOM     21  C   UNL     1       4.945  -0.357   7.644  0.00  0.00    +0.188 C 
ATOM     22  C   UNL     1       5.538   0.290   6.391  0.00  0.00    +0.188 C 
ATOM     23  O   UNL     1       4.498   0.928   5.646  0.00  0.00    -0.375 OA
ATOM     24  C   UNL     1       4.964   1.929   4.738  0.00  0.00    +0.188 C 
ATOM     25  C   UNL     1       3.820   2.351   3.814  0.00  0.00    +0.188 C 
ATOM     26  O   UNL     1       2.986   3.295   4.489  0.00  0.00    -0.372 OA
ENDROOT
BRANCH   1  28
ATOM     27  C   UNL     1       1.229   7.961   5.920  0.00  0.00    +0.011 C 
ATOM     28  C   UNL     1       0.678   7.167   4.734  0.00  0.00    -0.035 C 
ATOM     29  C   UNL     1       0.456   5.712   5.154  0.00  0.00    +0.011 C 
ATOM     30  C   UNL     1      -0.651   7.777   4.285  0.00  0.00    +0.011 C 
ENDBRANCH   1  28
BRANCH  16  31
ATOM     31  C   UNL     1       3.420  -1.547  12.206  0.00  0.00    -0.035 C 
ATOM     32  C   UNL     1       3.509  -1.976  10.740  0.00  0.00    +0.011 C 
ATOM     33  C   UNL     1       3.054  -2.755  13.070  0.00  0.00    +0.011 C 
ATOM     34  C   UNL     1       2.345  -0.469  12.357  0.00  0.00    +0.011 C 
ENDBRANCH  16  31
TORSDOF 2
