REMARK  Name = ZINC08530603
REMARK  13 active torsions:
REMARK  status: ('A' for Active; 'I' for Inactive)
REMARK    1  A    between atoms: C_1  and  C_2
REMARK    2  A    between atoms: C_2  and  C_4
REMARK    3  A    between atoms: C_2  and  N_54
REMARK    4  A    between atoms: N_9  and  C_10
REMARK    5  A    between atoms: C_10  and  C_11
REMARK    6  A    between atoms: C_10  and  C_12
REMARK    7  A    between atoms: C_10  and  C_13
REMARK    8  A    between atoms: C_14  and  N_54
REMARK    9  A    between atoms: C_15  and  C_16
REMARK   10  A    between atoms: C_15  and  N_54
REMARK   11  A    between atoms: N_18  and  C_19
REMARK   12  A    between atoms: C_24  and  S_25
REMARK   13  A    between atoms: S_25  and  C_26
REMARK                            x       y       z     vdW  Elec       q    Type
REMARK                         _______ _______ _______ _____ _____    ______ ____
ROOT
ATOM      1  C   UNL     1      -0.788   1.988  -1.106  0.00  0.00    -0.094 C 
ATOM      2  N   UNL     1      -0.027   1.473   0.051  0.00  0.00    +0.391 N 
ATOM      3  H   UNL     1      -0.489   1.776   0.917  0.00  0.00    -0.080 HD
ENDROOT
BRANCH   2   5
ATOM      4  C   UNL     1       2.005   1.748  -1.330  0.00  0.00    -0.004 C 
ATOM      5  C   UNL     1       1.351   2.009   0.029  0.00  0.00    +0.017 C 
BRANCH   5   6
ATOM      6  C   UNL     1       1.299   3.493   0.285  0.00  0.00    +0.207 C 
ATOM      7  O   UNL     1       0.231   4.043   0.451  0.00  0.00    -0.277 OA
ATOM      8  N   UNL     1       2.440   4.209   0.331  0.00  0.00    -0.242 N 
ATOM      9  C   UNL     1       2.394   5.536   0.561  0.00  0.00    +0.306 C 
ATOM     10  O   UNL     1       1.323   6.087   0.727  0.00  0.00    -0.252 OA
ATOM     11  N   UNL     1       3.535   6.252   0.607  0.00  0.00    -0.294 N 
ATOM     12  H   UNL     1       3.294   3.769   0.199  0.00  0.00    +0.159 HD
ATOM     13  H   UNL     1       4.389   5.812   0.474  0.00  0.00    +0.151 HD
BRANCH  11  14
ATOM     14  C   UNL     1       3.485   7.695   0.856  0.00  0.00    +0.028 C 
ATOM     15  C   UNL     1       2.830   7.955   2.215  0.00  0.00    +0.031 C 
ATOM     16  C   UNL     1       4.906   8.262   0.858  0.00  0.00    +0.031 C 
ATOM     17  C   UNL     1       2.666   8.374  -0.243  0.00  0.00    +0.031 C 
ENDBRANCH  11  14
ENDBRANCH   5   6
ENDBRANCH   2   5
BRANCH   2  18
ATOM     18  C   UNL     1       0.005  -0.004   0.017  0.00  0.00    +0.020 C 
BRANCH  18  19
ATOM     19  C   UNL     1      -1.387  -0.527   0.263  0.00  0.00    +0.201 C 
ATOM     20  O   UNL     1      -2.305   0.248   0.430  0.00  0.00    -0.278 OA
ATOM     21  N   UNL     1      -1.612  -1.855   0.297  0.00  0.00    -0.286 N 
ATOM     22  H   UNL     1      -0.896  -2.474   0.085  0.00  0.00    +0.155 HD
BRANCH  21  23
ATOM     23  C   UNL     1      -2.881  -2.342   0.639  0.00  0.00    +0.047 A 
ATOM     24  C   UNL     1      -3.734  -1.574   1.416  0.00  0.00    +0.024 A 
ATOM     25  C   UNL     1      -4.987  -2.054   1.748  0.00  0.00    +0.002 A 
ATOM     26  C   UNL     1      -5.390  -3.305   1.317  0.00  0.00    +0.001 A 
ATOM     27  C   UNL     1      -4.544  -4.080   0.547  0.00  0.00    +0.016 A 
ATOM     28  C   UNL     1      -3.286  -3.604   0.205  0.00  0.00    +0.029 A 
BRANCH  28  29
ATOM     29  S   UNL     1      -2.205  -4.591  -0.776  0.00  0.00    -0.127 S 
ATOM     30  C   UNL     1      -3.153  -6.106  -1.086  0.00  0.00    +0.090 C 
ENDBRANCH  28  29
ENDBRANCH  21  23
ENDBRANCH  18  19
ENDBRANCH   2  18
TORSDOF 7
