REMARK  Name = ZINC09849712
REMARK  3 active torsions:
REMARK  status: ('A' for Active; 'I' for Inactive)
REMARK    1  A    between atoms: C_6  and  N_7
REMARK    2  A    between atoms: C_10  and  N_14
REMARK    3  A    between atoms: C_20  and  C_22
REMARK                            x       y       z     vdW  Elec       q    Type
REMARK                         _______ _______ _______ _____ _____    ______ ____
ROOT
ATOM      1  N   UNL     1       2.937  -2.656  -4.294  0.00  0.00    -0.194 N 
ATOM      2  C   UNL     1       3.647  -1.703  -3.614  0.00  0.00    +0.188 A 
ATOM      3  C   UNL     1       2.700  -0.781  -3.135  0.00  0.00    +0.172 A 
ATOM      4  C   UNL     1       3.167   0.320  -2.389  0.00  0.00    +0.154 A 
ATOM      5  N   UNL     1       4.474   0.434  -2.180  0.00  0.00    -0.218 NA
ATOM      6  C   UNL     1       5.324  -0.463  -2.647  0.00  0.00    +0.225 A 
ATOM      7  N   UNL     1       4.935  -1.506  -3.348  0.00  0.00    -0.214 NA
ATOM      8  N   UNL     1       1.484  -1.196  -3.530  0.00  0.00    -0.124 NA
ATOM      9  N   UNL     1       1.586  -2.286  -4.208  0.00  0.00    -0.058 NA
ENDROOT
BRANCH   4  10
ATOM     10  N   UNL     1       2.287   1.261  -1.891  0.00  0.00    -0.310 N 
ATOM     11  C   UNL     1       1.465   1.833  -2.965  0.00  0.00    +0.125 C 
ATOM     12  C   UNL     1       0.385   2.733  -2.354  0.00  0.00    +0.127 C 
ATOM     13  N   UNL     1       1.038   3.718  -1.479  0.00  0.00    -0.295 N 
ATOM     14  C   UNL     1       1.984   3.229  -0.464  0.00  0.00    +0.127 C 
ATOM     15  C   UNL     1       3.001   2.310  -1.150  0.00  0.00    +0.125 C 
ATOM     16  C   UNL     1       0.776   5.034  -1.603  0.00  0.00    +0.248 C 
ATOM     17  O   UNL     1       1.263   5.827  -0.820  0.00  0.00    -0.270 OA
BRANCH  16  18
ATOM     18  C   UNL     1      -0.102   5.514  -2.690  0.00  0.00    +0.057 A 
ATOM     19  C   UNL     1      -1.378   4.971  -2.851  0.00  0.00    +0.034 A 
ATOM     20  C   UNL     1      -2.195   5.426  -3.866  0.00  0.00    +0.042 A 
ATOM     21  C   UNL     1      -1.749   6.413  -4.729  0.00  0.00    +0.021 A 
ATOM     22  C   UNL     1      -0.485   6.952  -4.578  0.00  0.00    +0.022 A 
ATOM     23  C   UNL     1       0.342   6.509  -3.564  0.00  0.00    +0.053 A 
ATOM     24 CL   UNL     1       1.929   7.187  -3.375  0.00  0.00    -0.083 Cl
ATOM     25 CL   UNL     1      -3.784   4.756  -4.064  0.00  0.00    -0.084 Cl
ENDBRANCH  16  18
ENDBRANCH   4  10
BRANCH   1  31
ATOM     26  C   UNL     1       4.686  -3.706  -5.590  0.00  0.00    +0.029 A 
ATOM     27  C   UNL     1       5.199  -4.818  -6.229  0.00  0.00    +0.022 A 
ATOM     28  C   UNL     1       4.485  -6.003  -6.239  0.00  0.00    +0.041 A 
ATOM     29  C   UNL     1       3.257  -6.079  -5.604  0.00  0.00    +0.022 A 
ATOM     30  C   UNL     1       2.742  -4.972  -4.959  0.00  0.00    +0.029 A 
ATOM     31  C   UNL     1       3.457  -3.781  -4.948  0.00  0.00    +0.069 A 
ATOM     32 CL   UNL     1       5.129  -7.397  -7.049  0.00  0.00    -0.084 Cl
ENDBRANCH   1  31
TORSDOF 3
