REMARK  Name = ZINC09634670
REMARK  9 active torsions:
REMARK  status: ('A' for Active; 'I' for Inactive)
REMARK    1  A    between atoms: C_5  and  C_7
REMARK    2  A    between atoms: C_7  and  C_8
REMARK    3  A    between atoms: C_11  and  S_14
REMARK    4  A    between atoms: N_12  and  N_13
REMARK    5  A    between atoms: S_14  and  C_15
REMARK    6  A    between atoms: C_15  and  C_16
REMARK    7  A    between atoms: N_18  and  C_19
REMARK    8  A    between atoms: C_22  and  S_25
REMARK    9  A    between atoms: S_25  and  N_28
REMARK                            x       y       z     vdW  Elec       q    Type
REMARK                         _______ _______ _______ _____ _____    ______ ____
ROOT
ATOM      1  S   UNL     1       3.551   5.296   4.434  0.00  0.00    -0.075 S 
ENDROOT
BRANCH   1   5
ATOM      2  C   UNL     1       1.400   4.114   1.402  0.00  0.00    +0.155 A 
ATOM      3  N   UNL     1       0.497   4.364   2.307  0.00  0.00    -0.132 NA
ATOM      4  N   UNL     1       1.059   4.766   3.391  0.00  0.00    -0.121 NA
ATOM      5  C   UNL     1       2.362   4.804   3.231  0.00  0.00    +0.209 A 
ATOM      6  N   UNL     1       2.620   4.389   1.956  0.00  0.00    -0.228 N 
BRANCH   6   7
ATOM      7  N   UNL     1       3.842   4.272   1.358  0.00  0.00    -0.295 N 
ATOM      8  H   UNL     1       4.103   5.131   0.898  0.00  0.00    +0.163 HD
ATOM      9  H   UNL     1       4.546   3.992   2.025  0.00  0.00    +0.163 HD
ENDBRANCH   6   7
BRANCH   2  10
ATOM     10  C   UNL     1       1.147   3.620   0.001  0.00  0.00    +0.116 C 
BRANCH  10  15
ATOM     11  C   UNL     1      -0.025   0.032  -0.017  0.00  0.00    +0.000 A 
ATOM     12  C   UNL     1       1.176  -0.653  -0.032  0.00  0.00    +0.003 A 
ATOM     13  C   UNL     1       2.369   0.045  -0.036  0.00  0.00    +0.038 A 
ATOM     14  C   UNL     1       2.361   1.430  -0.025  0.00  0.00    +0.127 A 
ATOM     15  C   UNL     1       1.157   2.114  -0.010  0.00  0.00    -0.005 A 
ATOM     16  C   UNL     1      -0.035   1.414  -0.007  0.00  0.00    +0.007 A 
ATOM     17  F   UNL     1       3.526   2.112  -0.029  0.00  0.00    -0.205 F 
ENDBRANCH  10  15
ENDBRANCH   2  10
ENDBRANCH   1   5
BRANCH   1  18
ATOM     18  C   UNL     1       2.454   5.689   5.819  0.00  0.00    +0.173 C 
BRANCH  18  19
ATOM     19  C   UNL     1       3.276   6.147   6.996  0.00  0.00    +0.227 C 
ATOM     20  O   UNL     1       4.484   6.202   6.908  0.00  0.00    -0.275 OA
ATOM     21  N   UNL     1       2.668   6.495   8.147  0.00  0.00    -0.285 N 
ATOM     22  H   UNL     1       1.699   6.516   8.197  0.00  0.00    +0.155 HD
BRANCH  21  23
ATOM     23  C   UNL     1       3.434   6.827   9.271  0.00  0.00    +0.034 A 
ATOM     24  C   UNL     1       2.985   6.494  10.542  0.00  0.00    +0.025 A 
ATOM     25  C   UNL     1       3.747   6.817  11.648  0.00  0.00    +0.030 A 
ATOM     26  C   UNL     1       4.948   7.483  11.491  0.00  0.00    +0.105 A 
ATOM     27  C   UNL     1       5.395   7.821  10.227  0.00  0.00    +0.030 A 
ATOM     28  C   UNL     1       4.641   7.495   9.117  0.00  0.00    +0.025 A 
BRANCH  26  29
ATOM     29  S   UNL     1       5.913   7.900  12.905  0.00  0.00    +0.056 S 
ATOM     30  O   UNL     1       5.541   6.992  13.933  0.00  0.00    -0.153 OA
ATOM     31  O   UNL     1       7.255   8.035  12.456  0.00  0.00    -0.153 OA
BRANCH  29  32
ATOM     32  N   UNL     1       5.427   9.403  13.403  0.00  0.00    -0.204 NA
ATOM     33  H   UNL     1       4.727   9.871  12.921  0.00  0.00    +0.144 HD
ATOM     34  H   UNL     1       5.843   9.816  14.177  0.00  0.00    +0.144 HD
ENDBRANCH  29  32
ENDBRANCH  26  29
ENDBRANCH  21  23
ENDBRANCH  18  19
ENDBRANCH   1  18
TORSDOF 9
