REMARK  Name = ZINC04716129
REMARK  6 active torsions:
REMARK  status: ('A' for Active; 'I' for Inactive)
REMARK    1  A    between atoms: C_1  and  C_2
REMARK    2  A    between atoms: C_5  and  N_9
REMARK    3  A    between atoms: C_6  and  C_8
REMARK    4  A    between atoms: C_10  and  C_12
REMARK    5  A    between atoms: C_13  and  C_29
REMARK    6  A    between atoms: C_20  and  C_22
REMARK                            x       y       z     vdW  Elec       q    Type
REMARK                         _______ _______ _______ _____ _____    ______ ____
ROOT
ATOM      1  C   UNL     1       0.150  -6.247  -1.001  0.00  0.00    +0.060 C 
ATOM      2  C   UNL     1       0.222  -6.960  -2.135  0.00  0.00    +0.018 C 
ATOM      3  N   UNL     1       0.261  -8.333  -2.135  0.00  0.00    -0.287 N 
ATOM      4  C   UNL     1      -0.039  -8.980  -0.944  0.00  0.00    +0.218 A 
ATOM      5  N   UNL     1      -0.290 -10.239  -0.710  0.00  0.00    -0.201 NA
ATOM      6  C   UNL     1      -0.534 -10.412   0.593  0.00  0.00    +0.247 A 
ATOM      7  N   UNL     1      -0.438  -9.258   1.206  0.00  0.00    -0.156 NA
ATOM      8  N   UNL     1      -0.115  -8.313   0.234  0.00  0.00    -0.221 N 
ATOM      9  C   UNL     1       0.124  -6.877   0.366  0.00  0.00    +0.177 C 
ATOM     10  C   UNL     1       0.261  -6.230  -3.453  0.00  0.00    +0.061 C 
ATOM     11  H   UNL     1       0.489  -8.831  -2.935  0.00  0.00    +0.155 HD
ENDROOT
BRANCH   9  12
ATOM     12  C   UNL     1       1.445  -6.644   1.052  0.00  0.00    -0.018 A 
ATOM     13  C   UNL     1       2.612  -7.117   0.483  0.00  0.00    +0.007 A 
ATOM     14  C   UNL     1       3.824  -6.904   1.112  0.00  0.00    +0.020 A 
ATOM     15  C   UNL     1       3.869  -6.215   2.311  0.00  0.00    +0.041 A 
ATOM     16  C   UNL     1       2.701  -5.741   2.880  0.00  0.00    +0.020 A 
ATOM     17  C   UNL     1       1.490  -5.950   2.248  0.00  0.00    +0.007 A 
ATOM     18 CL   UNL     1       5.391  -5.947   3.102  0.00  0.00    -0.084 Cl
ENDBRANCH   9  12
BRANCH   1  20
ATOM     19  N   UNL     1       1.200  -4.147  -1.462  0.00  0.00    -0.281 N 
ATOM     20  C   UNL     1       0.102  -4.836  -1.094  0.00  0.00    +0.248 C 
ATOM     21  O   UNL     1      -0.932  -4.244  -0.842  0.00  0.00    -0.270 OA
ATOM     22  H   UNL     1       2.007  -4.622  -1.717  0.00  0.00    +0.155 HD
BRANCH  19  27
ATOM     23  C   UNL     1       1.105   1.524  -1.516  0.00  0.00    +0.044 C 
ATOM     24  C   UNL     1       1.131   0.017  -1.502  0.00  0.00    -0.050 A 
ATOM     25  C   UNL     1      -0.007  -0.695  -1.833  0.00  0.00    +0.005 A 
ATOM     26  C   UNL     1       0.012  -2.076  -1.821  0.00  0.00    +0.024 A 
ATOM     27  C   UNL     1       1.177  -2.749  -1.476  0.00  0.00    +0.037 A 
ATOM     28  C   UNL     1       2.318  -2.031  -1.143  0.00  0.00    -0.029 A 
ATOM     29  C   UNL     1       2.293  -0.650  -1.163  0.00  0.00    +0.008 A 
ATOM     30  C   UNL     1       3.584  -2.757  -0.768  0.00  0.00    +0.045 C 
ENDBRANCH  19  27
ENDBRANCH   1  20
TORSDOF 3
