REMARK  Name = ZINC22204424
REMARK  6 active torsions:
REMARK  status: ('A' for Active; 'I' for Inactive)
REMARK    1  A    between atoms: C_3  and  S_23
REMARK    2  A    between atoms: C_6  and  N_7
REMARK    3  A    between atoms: N_7  and  C_8
REMARK    4  A    between atoms: C_8  and  N_10
REMARK    5  A    between atoms: C_11  and  C_13
REMARK    6  A    between atoms: S_23  and  N_26
REMARK                            x       y       z     vdW  Elec       q    Type
REMARK                         _______ _______ _______ _____ _____    ______ ____
ROOT
ATOM      1  N   UNL     1      -3.076   3.043   4.820  0.00  0.00    -0.297 N 
ATOM      2  H   UNL     1      -3.872   2.392   5.212  0.00  0.00    +0.154 HD
ENDROOT
BRANCH   1   8
ATOM      3  C   UNL     1      -0.972   2.847   3.651  0.00  0.00    +0.025 A 
ATOM      4  C   UNL     1      -0.255   2.462   2.536  0.00  0.00    +0.031 A 
ATOM      5  C   UNL     1      -0.903   1.884   1.460  0.00  0.00    +0.113 A 
ATOM      6  C   UNL     1      -2.273   1.694   1.495  0.00  0.00    +0.031 A 
ATOM      7  C   UNL     1      -2.995   2.073   2.610  0.00  0.00    +0.025 A 
ATOM      8  C   UNL     1      -2.347   2.654   3.692  0.00  0.00    +0.033 A 
BRANCH   5   9
ATOM      9  S   UNL     1       0.016   1.394   0.039  0.00  0.00    +0.103 S 
ATOM     10  O   UNL     1       1.199   2.180   0.029  0.00  0.00    -0.146 OA
ATOM     11  O   UNL     1      -0.897   1.378  -1.050  0.00  0.00    -0.146 OA
BRANCH   9  12
ATOM     12  N   UNL     1       0.492  -0.174   0.280  0.00  0.00    -0.072 NA
ATOM     13  C   UNL     1      -0.430  -1.154   0.359  0.00  0.00    +0.349 C 
ATOM     14  O   UNL     1      -1.612  -0.887   0.253  0.00  0.00    -0.247 OA
ATOM     15  N   UNL     1      -0.043  -2.430   0.555  0.00  0.00    -0.309 N 
ATOM     16  H   UNL     1      -0.795  -3.229   0.620  0.00  0.00    +0.147 HD
ATOM     17  H   UNL     1       1.026  -2.671   0.651  0.00  0.00    +0.147 HD
ENDBRANCH   9  12
ENDBRANCH   5   9
ENDBRANCH   1   8
BRANCH   1  18
ATOM     18  C   UNL     1      -2.805   4.215   5.426  0.00  0.00    +0.141 C 
ATOM     19  S   UNL     1      -1.667   5.293   4.737  0.00  0.00    -0.018 S 
BRANCH  18  20
ATOM     20  N   UNL     1      -3.429   4.539   6.576  0.00  0.00    -0.267 N 
ATOM     21  C   UNL     1      -3.158   5.712   7.183  0.00  0.00    +0.225 C 
ATOM     22  O   UNL     1      -2.352   6.475   6.694  0.00  0.00    -0.275 OA
ATOM     23  H   UNL     1      -4.160   3.847   7.019  0.00  0.00    +0.157 HD
BRANCH  21  24
ATOM     24  C   UNL     1      -3.856   6.074   8.469  0.00  0.00    +0.048 C 
ATOM     25  C   UNL     1      -5.367   6.121   8.233  0.00  0.00    +0.019 C 
ATOM     26  C   UNL     1      -6.075   6.489   9.538  0.00  0.00    -0.009 C 
ATOM     27  C   UNL     1      -5.590   7.860  10.012  0.00  0.00    +0.007 C 
ATOM     28  C   UNL     1      -4.079   7.814  10.248  0.00  0.00    -0.009 C 
ATOM     29  C   UNL     1      -3.371   7.446   8.943  0.00  0.00    +0.019 C 
ATOM     30  C   UNL     1      -3.762   6.763  11.315  0.00  0.00    +0.007 C 
ATOM     31  C   UNL     1      -4.247   5.392  10.840  0.00  0.00    -0.009 C 
ATOM     32  C   UNL     1      -5.758   5.439  10.604  0.00  0.00    +0.007 C 
ATOM     33  C   UNL     1      -3.538   5.024   9.535  0.00  0.00    +0.019 C 
ENDBRANCH  21  24
ENDBRANCH  18  20
ENDBRANCH   1  18
TORSDOF 6
