REMARK  Name = ZINC28467679
REMARK  3 active torsions:
REMARK  status: ('A' for Active; 'I' for Inactive)
REMARK    1  A    between atoms: C_8  and  C_11
REMARK    2  A    between atoms: C_12  and  C_13
REMARK    3  A    between atoms: C_12  and  C_15
REMARK                            x       y       z     vdW  Elec       q    Type
REMARK                         _______ _______ _______ _____ _____    ______ ____
ROOT
ATOM      1  C   UNL     1       3.450   6.088   0.335  0.00  0.00    +0.029 C 
ATOM      2  C   UNL     1       3.344   7.446   0.582  0.00  0.00    +0.094 C 
ENDROOT
BRANCH   1  10
ATOM      3  C   UNL     1      -1.989   3.915  -1.373  0.00  0.00    +0.001 A 
ATOM      4  C   UNL     1      -2.143   3.070  -0.286  0.00  0.00    +0.004 A 
ATOM      5  C   UNL     1      -1.196   3.035   0.721  0.00  0.00    +0.046 A 
ATOM      6  C   UNL     1      -0.087   3.859   0.652  0.00  0.00    +0.128 A 
ATOM      7  C   UNL     1       0.069   4.723  -0.448  0.00  0.00    +0.017 A 
ATOM      8  C   UNL     1      -0.891   4.745  -1.460  0.00  0.00    +0.011 A 
ATOM      9  C   UNL     1       1.256   5.588  -0.497  0.00  0.00    +0.018 C 
ATOM     10  C   UNL     1       2.299   5.284   0.328  0.00  0.00    -0.008 C 
ATOM     11  C   UNL     1       2.209   4.081   1.230  0.00  0.00    +0.264 C 
ATOM     12  O   UNL     1       0.856   3.854   1.626  0.00  0.00    -0.487 OA
ENDBRANCH   1  10
BRANCH   2  13
ATOM     13  C   UNL     1       4.530   8.310   0.465  0.00  0.00    +0.150 A 
ATOM     14  N   UNL     1       4.545   9.663   0.684  0.00  0.00    -0.337 N 
ATOM     15  H   UNL     1       3.620  10.184   0.973  0.00  0.00    +0.167 HD
ATOM     16  C   UNL     1       5.840  10.096   0.472  0.00  0.00    +0.066 A 
ATOM     17  C   UNL     1       6.465  11.334   0.540  0.00  0.00    +0.028 A 
ATOM     18  C   UNL     1       7.812  11.436   0.262  0.00  0.00    +0.002 A 
ATOM     19  C   UNL     1       8.546  10.311  -0.084  0.00  0.00    +0.002 A 
ATOM     20  C   UNL     1       7.950   9.084  -0.156  0.00  0.00    +0.030 A 
ATOM     21  C   UNL     1       6.585   8.956   0.122  0.00  0.00    +0.089 A 
ATOM     22  N   UNL     1       5.735   7.901   0.140  0.00  0.00    -0.227 NA
ENDBRANCH   2  13
BRANCH   2  23
ATOM     23  C   UNL     1       2.080   8.009   0.951  0.00  0.00    +0.103 C 
ATOM     24  N   UNL     1       1.078   8.457   1.244  0.00  0.00    -0.191 NA
ENDBRANCH   2  23
TORSDOF 3
