REMARK  Name = ZINC09331723
REMARK  10 active torsions:
REMARK  status: ('A' for Active; 'I' for Inactive)
REMARK    1  A    between atoms: C_1  and  C_2
REMARK    2  A    between atoms: C_2  and  N_54
REMARK    3  A    between atoms: C_3  and  C_4
REMARK    4  A    between atoms: C_3  and  N_54
REMARK    5  A    between atoms: C_5  and  C_6
REMARK    6  A    between atoms: C_5  and  N_54
REMARK    7  A    between atoms: C_6  and  N_7
REMARK    8  A    between atoms: C_8  and  C_24
REMARK    9  A    between atoms: C_11  and  C_12
REMARK   10  A    between atoms: C_11  and  O_19
REMARK                            x       y       z     vdW  Elec       q    Type
REMARK                         _______ _______ _______ _____ _____    ______ ____
ROOT
ATOM      1  N   UNL     1       1.044   2.058  -0.404  0.00  0.00    -0.285 N 
ATOM      2  C   UNL     1       0.597   3.414  -0.075  0.00  0.00    +0.144 C 
ATOM      3  C   UNL     1      -0.895   3.447  -0.308  0.00  0.00    +0.071 C 
ATOM      4  C   UNL     1      -1.740   4.524  -0.126  0.00  0.00    +0.133 C 
ATOM      5  C   UNL     1      -1.250   2.163  -0.751  0.00  0.00    +0.249 C 
ATOM      6  O   UNL     1      -2.372   1.794  -1.048  0.00  0.00    -0.282 OA
ATOM      7  C   UNL     1      -0.018   1.330  -0.792  0.00  0.00    +0.288 C 
ATOM      8  O   UNL     1       0.024   0.165  -1.130  0.00  0.00    -0.266 OA
ENDROOT
BRANCH   4   9
ATOM      9  C   UNL     1      -3.196   4.349  -0.261  0.00  0.00    +0.017 A 
ATOM     10  C   UNL     1      -3.924   5.165  -1.134  0.00  0.00    +0.013 A 
ATOM     11  C   UNL     1      -5.285   4.993  -1.258  0.00  0.00    +0.021 A 
ATOM     12  C   UNL     1      -5.935   4.021  -0.514  0.00  0.00    +0.041 A 
ATOM     13  C   UNL     1      -5.221   3.213   0.357  0.00  0.00    +0.021 A 
ATOM     14  C   UNL     1      -3.858   3.371   0.488  0.00  0.00    +0.013 A 
ATOM     15 CL   UNL     1      -7.652   3.816  -0.673  0.00  0.00    -0.084 Cl
ENDBRANCH   4   9
BRANCH   2  16
ATOM     16  C   UNL     1       1.282   4.414  -0.971  0.00  0.00    -0.022 A 
ATOM     17  C   UNL     1       1.478   4.124  -2.308  0.00  0.00    +0.007 A 
ATOM     18  C   UNL     1       2.102   5.042  -3.131  0.00  0.00    +0.015 A 
ATOM     19  C   UNL     1       2.540   6.248  -2.614  0.00  0.00    +0.018 A 
ATOM     20  C   UNL     1       2.349   6.536  -1.275  0.00  0.00    +0.015 A 
ATOM     21  C   UNL     1       1.720   5.619  -0.454  0.00  0.00    +0.007 A 
ATOM     22 BR   UNL     1       3.400   7.503  -3.738  0.00  0.00    -0.050 Br
ENDBRANCH   2  16
BRANCH   4  23
ATOM     23  O   UNL     1      -1.230   5.737   0.176  0.00  0.00    -0.506 OA
ATOM     24  H   UNL     1      -1.976   6.397   0.272  0.00  0.00    +0.292 HD
ENDBRANCH   4  23
BRANCH   1  25
ATOM     25  C   UNL     1       2.424   1.573  -0.323  0.00  0.00    +0.090 C 
BRANCH  25  26
ATOM     26  C   UNL     1       3.127   1.808  -1.661  0.00  0.00    -0.060 C 
BRANCH  26  27
ATOM     27  N   UNL     1       4.523   1.333  -1.556  0.00  0.00    +0.380 N 
ATOM     28  H   UNL     1       4.956   1.754  -0.726  0.00  0.00    -0.082 HD
BRANCH  27  30
ATOM     29  C   UNL     1       3.950  -0.804  -2.659  0.00  0.00    -0.017 C 
ATOM     30  C   UNL     1       4.547  -0.138  -1.417  0.00  0.00    -0.082 C 
ENDBRANCH  27  30
BRANCH  27  31
ATOM     31  C   UNL     1       5.286   1.740  -2.755  0.00  0.00    -0.082 C 
ATOM     32  C   UNL     1       6.779   1.561  -2.471  0.00  0.00    -0.017 C 
ENDBRANCH  27  31
ENDBRANCH  26  27
ENDBRANCH  25  26
ENDBRANCH   1  25
TORSDOF 8
