REMARK  Name = ZINC39537612
REMARK  9 active torsions:
REMARK  status: ('A' for Active; 'I' for Inactive)
REMARK    1  A    between atoms: C_1  and  C_2
REMARK    2  A    between atoms: N_6  and  C_14
REMARK    3  A    between atoms: C_14  and  C_15
REMARK    4  A    between atoms: N_17  and  C_18
REMARK    5  A    between atoms: C_18  and  C_19
REMARK    6  A    between atoms: C_19  and  C_21
REMARK    7  A    between atoms: C_19  and  N_29
REMARK    8  A    between atoms: C_26  and  O_27
REMARK    9  A    between atoms: O_27  and  C_28
REMARK                            x       y       z     vdW  Elec       q    Type
REMARK                         _______ _______ _______ _____ _____    ______ ____
ROOT
ATOM      1  C   UNL     1       4.436   1.420  -2.845  0.00  0.00    +0.231 C 
ATOM      2  O   UNL     1       3.263   1.166  -2.665  0.00  0.00    -0.274 OA
ATOM      3  N   UNL     1       4.963   1.328  -4.082  0.00  0.00    -0.315 N 
ATOM      4  H   UNL     1       5.900   1.532  -4.226  0.00  0.00    +0.149 HD
ENDROOT
BRANCH   1   5
ATOM      5  C   UNL     1       5.303   1.838  -1.686  0.00  0.00    +0.209 C 
BRANCH   5  10
ATOM      6  C   UNL     1       2.106   0.394   1.186  0.00  0.00    +0.062 C 
ATOM      7  C   UNL     1       3.538   0.790   1.551  0.00  0.00    +0.256 C 
ATOM      8  C   UNL     1       4.398   0.758   0.313  0.00  0.00    +0.261 C 
ATOM      9  O   UNL     1       4.995  -0.254   0.012  0.00  0.00    -0.271 OA
ATOM     10  N   UNL     1       4.501   1.861  -0.460  0.00  0.00    -0.256 N 
ATOM     11  C   UNL     1       3.830   3.029  -0.070  0.00  0.00    +0.079 A 
ATOM     12  C   UNL     1       3.640   4.068  -0.965  0.00  0.00    +0.027 A 
ATOM     13  C   UNL     1       2.976   5.212  -0.560  0.00  0.00    +0.002 A 
ATOM     14  C   UNL     1       2.503   5.320   0.735  0.00  0.00    +0.004 A 
ATOM     15  C   UNL     1       2.689   4.285   1.634  0.00  0.00    +0.047 A 
ATOM     16  C   UNL     1       3.352   3.137   1.235  0.00  0.00    +0.143 A 
ATOM     17  O   UNL     1       3.541   2.108   2.104  0.00  0.00    -0.478 OA
ENDBRANCH   5  10
ENDBRANCH   1   5
BRANCH   3  18
ATOM     18  C   UNL     1       4.119   0.922  -5.209  0.00  0.00    +0.093 C 
BRANCH  18  19
ATOM     19  C   UNL     1       4.982   0.773  -6.464  0.00  0.00    -0.017 C 
BRANCH  19  20
ATOM     20  C   UNL     1       5.544   2.118  -6.849  0.00  0.00    -0.018 A 
ATOM     21  C   UNL     1       6.846   2.443  -6.519  0.00  0.00    +0.005 A 
ATOM     22  C   UNL     1       7.362   3.676  -6.871  0.00  0.00    +0.000 A 
ATOM     23  C   UNL     1       6.578   4.587  -7.555  0.00  0.00    +0.004 A 
ATOM     24  C   UNL     1       5.276   4.266  -7.888  0.00  0.00    +0.046 A 
ATOM     25  C   UNL     1       4.757   3.027  -7.540  0.00  0.00    +0.122 A 
BRANCH  25  26
ATOM     26  O   UNL     1       3.479   2.707  -7.871  0.00  0.00    -0.495 OA
ATOM     27  C   UNL     1       2.727   3.692  -8.582  0.00  0.00    +0.277 C 
ENDBRANCH  25  26
ENDBRANCH  19  20
BRANCH  19  28
ATOM     28  N   UNL     1       6.084  -0.159  -6.193  0.00  0.00    +0.385 N 
ATOM     29  C   UNL     1       5.547  -1.481  -5.779  0.00  0.00    -0.078 C 
ATOM     30  C   UNL     1       6.718  -2.449  -6.082  0.00  0.00    -0.020 C 
ATOM     31  C   UNL     1       7.309  -1.879  -7.391  0.00  0.00    -0.020 C 
ATOM     32  C   UNL     1       6.858  -0.407  -7.428  0.00  0.00    -0.078 C 
ATOM     33  H   UNL     1       6.687   0.213  -5.474  0.00  0.00    -0.081 HD
ENDBRANCH  19  28
ENDBRANCH  18  19
ENDBRANCH   3  18
TORSDOF 7
