REMARK  Name = ZINC09975191
REMARK  10 active torsions:
REMARK  status: ('A' for Active; 'I' for Inactive)
REMARK    1  A    between atoms: C_1  and  C_2
REMARK    2  A    between atoms: C_2  and  C_3
REMARK    3  A    between atoms: C_3  and  C_29
REMARK    4  A    between atoms: N_4  and  N_5
REMARK    5  A    between atoms: N_14  and  C1*_15
REMARK    6  A    between atoms: C2*_17  and  O2*_27
REMARK    7  A    between atoms: C3*_19  and  O3*_26
REMARK    8  A    between atoms: C4*_21  and  C5*_24
REMARK    9  A    between atoms: C5*_24  and  O5*_25
REMARK   10  A    between atoms: C_29  and  C_30
REMARK                            x       y       z     vdW  Elec       q    Type
REMARK                         _______ _______ _______ _____ _____    ______ ____
ROOT
ATOM      1  N   UNL     1       3.139   3.176  -1.016  0.00  0.00    -0.206 N 
ATOM      2  C   UNL     1       3.601   3.895  -2.100  0.00  0.00    +0.220 A 
ATOM      3  N   UNL     1       2.900   4.181  -3.169  0.00  0.00    -0.208 NA
ATOM      4  C   UNL     1       3.664   4.897  -4.030  0.00  0.00    +0.149 A 
ATOM      5  C   UNL     1       3.453   5.464  -5.298  0.00  0.00    +0.147 A 
ATOM      6  N   UNL     1       4.454   6.121  -5.874  0.00  0.00    -0.219 NA
ATOM      7  C   UNL     1       5.625   6.244  -5.276  0.00  0.00    +0.225 A 
ATOM      8  N   UNL     1       5.868   5.730  -4.088  0.00  0.00    -0.216 NA
ATOM      9  C   UNL     1       4.927   5.056  -3.436  0.00  0.00    +0.169 A 
ATOM     10  N   UNL     1       4.859   4.420  -2.218  0.00  0.00    -0.266 N 
ATOM     11  N   UNL     1       2.228   5.340  -5.934  0.00  0.00    -0.341 N 
ATOM     12  H   UNL     1       3.724   3.007  -0.261  0.00  0.00    +0.177 HD
ATOM     13  H   UNL     1       2.020   4.372  -6.072  0.00  0.00    +0.144 HD
ATOM     14  H   UNL     1       2.094   5.736  -6.810  0.00  0.00    +0.144 HD
ENDROOT
BRANCH  10  15
ATOM     15  C1* UNL     1       5.936   4.321  -1.230  0.00  0.00    +0.255 C 
ATOM     16  C2* UNL     1       6.477   2.871  -1.156  0.00  0.00    +0.195 C 
ATOM     17  C3* UNL     1       7.071   2.819   0.273  0.00  0.00    +0.178 C 
ATOM     18  C4* UNL     1       6.363   3.967   1.018  0.00  0.00    +0.177 C 
ATOM     19  O4* UNL     1       5.429   4.560   0.101  0.00  0.00    -0.346 OA
BRANCH  17  20
ATOM     20  O3* UNL     1       6.780   1.565   0.893  0.00  0.00    -0.386 OA
ATOM     21  H3* UNL     1       7.080   1.501   1.810  0.00  0.00    +0.210 HD
ENDBRANCH  17  20
BRANCH  16  22
ATOM     22  O2* UNL     1       7.492   2.654  -2.138  0.00  0.00    -0.385 OA
ATOM     23  H2* UNL     1       7.862   1.760  -2.131  0.00  0.00    +0.210 HD
ENDBRANCH  16  22
BRANCH  18  24
ATOM     24  C5* UNL     1       5.617   3.415   2.235  0.00  0.00    +0.190 C 
BRANCH  24  25
ATOM     25  O5* UNL     1       5.048   4.497   2.975  0.00  0.00    -0.392 OA
ATOM     26  H5* UNL     1       4.559   4.221   3.762  0.00  0.00    +0.210 HD
ENDBRANCH  24  25
ENDBRANCH  18  24
ENDBRANCH  10  15
BRANCH   1  28
ATOM     27  C   UNL     1       1.395   2.024  -0.000  0.00  0.00    +0.041 C 
ATOM     28  N   UNL     1       1.824   2.691  -1.006  0.00  0.00    -0.189 NA
BRANCH  27  30
ATOM     29  C   UNL     1       3.150   0.517   0.894  0.00  0.00    +0.010 C 
ATOM     30  C   UNL     1       2.304   1.761   1.172  0.00  0.00    +0.049 C 
ENDBRANCH  27  30
BRANCH  27  31
ATOM     31  C   UNL     1      -0.018   1.503   0.010  0.00  0.00    +0.087 C 
BRANCH  31  32
ATOM     32  C   UNL     1       0.002  -0.004   0.002  0.00  0.00    -0.042 A 
ATOM     33  C   UNL     1      -0.006  -0.689  -1.199  0.00  0.00    +0.004 A 
ATOM     34  C   UNL     1       0.018  -2.071  -1.206  0.00  0.00    +0.000 A 
ATOM     35  C   UNL     1       0.039  -2.768  -0.013  0.00  0.00    +0.000 A 
ATOM     36  C   UNL     1       0.042  -2.084   1.188  0.00  0.00    +0.000 A 
ATOM     37  C   UNL     1       0.023  -0.702   1.195  0.00  0.00    +0.004 A 
ENDBRANCH  31  32
ENDBRANCH  27  31
ENDBRANCH   1  28
TORSDOF 9
