REMARK  Name = ZINC16084751
REMARK  8 active torsions:
REMARK  status: ('A' for Active; 'I' for Inactive)
REMARK    1  A    between atoms: C_1  and  O_2
REMARK    2  A    between atoms: O_2  and  C_3
REMARK    3  A    between atoms: C_6  and  C_9
REMARK    4  A    between atoms: C_9  and  C_11
REMARK    5  A    between atoms: C_9  and  N_52
REMARK    6  A    between atoms: C_11  and  N_12
REMARK    7  A    between atoms: N_12  and  S_13
REMARK    8  A    between atoms: S_13  and  C_16
REMARK                            x       y       z     vdW  Elec       q    Type
REMARK                         _______ _______ _______ _____ _____    ______ ____
ROOT
ATOM      1  C   UNL     1       0.244   1.192   2.409  0.00  0.00    -0.022 C 
ENDROOT
BRANCH   1   7
ATOM      2  C   UNL     1      -1.580   1.598   0.870  0.00  0.00    -0.078 C 
ATOM      3  C   UNL     1      -1.915   1.977  -0.574  0.00  0.00    -0.019 C 
ATOM      4  C   UNL     1      -1.427   0.871  -1.514  0.00  0.00    -0.004 C 
ATOM      5  C   UNL     1       0.079   0.674  -1.317  0.00  0.00    -0.019 C 
ATOM      6  C   UNL     1       0.356   0.332   0.149  0.00  0.00    -0.078 C 
ATOM      7  N   UNL     1      -0.115   1.446   0.999  0.00  0.00    +0.385 N 
ATOM      8  H   UNL     1       0.338   2.315   0.691  0.00  0.00    -0.081 HD
ENDBRANCH   1   7
BRANCH   1  12
ATOM      9  C   UNL     1       0.275  -3.006   3.208  0.00  0.00    +0.120 A 
ATOM     10  C   UNL     1       1.367  -2.225   3.555  0.00  0.00    +0.046 A 
ATOM     11  C   UNL     1       1.355  -0.868   3.295  0.00  0.00    +0.005 A 
ATOM     12  C   UNL     1       0.255  -0.289   2.691  0.00  0.00    -0.059 A 
ATOM     13  C   UNL     1      -0.838  -1.064   2.349  0.00  0.00    +0.005 A 
ATOM     14  C   UNL     1      -0.828  -2.422   2.601  0.00  0.00    +0.046 A 
BRANCH   9  16
ATOM     15  C   UNL     1      -0.875  -5.083   3.079  0.00  0.00    +0.277 C 
ATOM     16  O   UNL     1       0.284  -4.341   3.463  0.00  0.00    -0.495 OA
ENDBRANCH   9  16
ENDBRANCH   1  12
BRANCH   1  17
ATOM     17  C   UNL     1      -0.771   1.878   3.325  0.00  0.00    +0.095 C 
BRANCH  17  18
ATOM     18  N   UNL     1      -0.781   3.317   3.052  0.00  0.00    -0.191 NA
ATOM     19  H   UNL     1      -0.061   3.719   2.540  0.00  0.00    +0.148 HD
BRANCH  18  20
ATOM     20  S   UNL     1      -2.021   4.259   3.617  0.00  0.00    +0.059 S 
ATOM     21  O   UNL     1      -1.708   5.598   3.259  0.00  0.00    -0.153 OA
ATOM     22  O   UNL     1      -3.227   3.625   3.215  0.00  0.00    -0.153 OA
BRANCH  20  23
ATOM     23  C   UNL     1      -1.972   4.183   5.376  0.00  0.00    +0.119 A 
ATOM     24  C   UNL     1      -3.028   3.625   6.073  0.00  0.00    +0.029 A 
ATOM     25  C   UNL     1      -2.989   3.562   7.453  0.00  0.00    +0.002 A 
ATOM     26  C   UNL     1      -1.898   4.064   8.138  0.00  0.00    +0.001 A 
ATOM     27  C   UNL     1      -0.844   4.626   7.442  0.00  0.00    +0.017 A 
ATOM     28  C   UNL     1      -0.881   4.685   6.061  0.00  0.00    +0.044 A 
ATOM     29 BR   UNL     1       0.560   5.455   5.109  0.00  0.00    -0.048 Br
ENDBRANCH  20  23
ENDBRANCH  18  20
ENDBRANCH  17  18
ENDBRANCH   1  17
TORSDOF 7
