REMARK  Name = ZINC09255669
REMARK  7 active torsions:
REMARK  status: ('A' for Active; 'I' for Inactive)
REMARK    1  A    between atoms: C_1  and  C_2
REMARK    2  A    between atoms: C_9  and  N_13
REMARK    3  A    between atoms: C_10  and  C_11
REMARK    4  A    between atoms: C_14  and  C_16
REMARK    5  A    between atoms: C_16  and  N_17
REMARK    6  A    between atoms: C_20  and  C_24
REMARK    7  A    between atoms: C_20  and  C_25
REMARK                            x       y       z     vdW  Elec       q    Type
REMARK                         _______ _______ _______ _____ _____    ______ ____
ROOT
ATOM      1  N   UNL     1      -2.215   8.068  -1.454  0.00  0.00    -0.215 N 
ATOM      2  C   UNL     1      -2.933   7.280  -0.629  0.00  0.00    +0.251 C 
ATOM      3  O   UNL     1      -3.328   7.552   0.484  0.00  0.00    -0.272 OA
ATOM      4  C   UNL     1      -3.144   5.982  -1.383  0.00  0.00    +0.135 C 
ATOM      5  N   UNL     1      -2.456   6.211  -2.666  0.00  0.00    -0.281 N 
ATOM      6  C   UNL     1      -1.946   7.454  -2.612  0.00  0.00    +0.310 C 
ATOM      7  O   UNL     1      -1.312   7.964  -3.515  0.00  0.00    -0.252 OA
ATOM      8  C   UNL     1      -4.635   5.724  -1.611  0.00  0.00    +0.047 C 
ATOM      9  H   UNL     1      -2.385   5.586  -3.405  0.00  0.00    +0.152 HD
ENDROOT
BRANCH   4  10
ATOM     10  C   UNL     1      -2.516   4.830  -0.643  0.00  0.00    -0.012 A 
ATOM     11  C   UNL     1      -2.505   4.822   0.740  0.00  0.00    +0.010 A 
ATOM     12  C   UNL     1      -1.929   3.768   1.424  0.00  0.00    +0.050 A 
ATOM     13  C   UNL     1      -1.361   2.715   0.724  0.00  0.00    +0.166 A 
ATOM     14  C   UNL     1      -1.373   2.723  -0.668  0.00  0.00    +0.167 A 
ATOM     15  C   UNL     1      -1.951   3.783  -1.347  0.00  0.00    +0.055 A 
ATOM     16  O   UNL     1      -0.760   1.588  -1.116  0.00  0.00    -0.453 OA
ATOM     17  C   UNL     1      -0.013   1.086   0.008  0.00  0.00    +0.466 C 
ATOM     18  O   UNL     1      -0.738   1.576   1.151  0.00  0.00    -0.453 OA
ENDBRANCH   4  10
BRANCH   1  19
ATOM     19  C   UNL     1      -1.783   9.428  -1.123  0.00  0.00    +0.214 C 
BRANCH  19  21
ATOM     20  N   UNL     1      -2.656  11.730  -1.359  0.00  0.00    -0.278 N 
ATOM     21  C   UNL     1      -2.838  10.411  -1.562  0.00  0.00    +0.236 C 
ATOM     22  O   UNL     1      -3.850  10.014  -2.099  0.00  0.00    -0.274 OA
ATOM     23  H   UNL     1      -1.846  12.048  -0.930  0.00  0.00    +0.155 HD
BRANCH  20  31
ATOM     24  C   UNL     1      -8.321  16.506  -3.867  0.00  0.00    +0.008 C 
ATOM     25  C   UNL     1      -6.933  15.948  -3.547  0.00  0.00    -0.009 C 
ATOM     26  C   UNL     1      -6.389  16.620  -2.283  0.00  0.00    +0.008 C 
ATOM     27  C   UNL     1      -4.915  16.257  -2.094  0.00  0.00    +0.037 C 
ATOM     28  C   UNL     1      -4.772  14.741  -2.153  0.00  0.00    -0.018 A 
ATOM     29  C   UNL     1      -5.740  13.972  -2.699  0.00  0.00    -0.004 A 
ATOM     30  S   UNL     1      -5.141  12.313  -2.543  0.00  0.00    -0.077 S 
ATOM     31  C   UNL     1      -3.627  12.636  -1.764  0.00  0.00    +0.090 A 
ATOM     32  C   UNL     1      -3.624  14.017  -1.638  0.00  0.00    +0.084 A 
ATOM     33  C   UNL     1      -7.031  14.436  -3.300  0.00  0.00    +0.046 C 
BRANCH  32  34
ATOM     34  C   UNL     1      -2.526  14.704  -1.026  0.00  0.00    +0.102 C 
ATOM     35  N   UNL     1      -1.655  15.248  -0.541  0.00  0.00    -0.191 NA
ENDBRANCH  32  34
ENDBRANCH  20  31
ENDBRANCH  19  21
ENDBRANCH   1  19
TORSDOF 5
