REMARK  Name = ZINC45869449
REMARK  10 active torsions:
REMARK  status: ('A' for Active; 'I' for Inactive)
REMARK    1  A    between atoms: C_1  and  C_2
REMARK    2  A    between atoms: C_2  and  C_3
REMARK    3  A    between atoms: C_2  and  C_4
REMARK    4  A    between atoms: C_4  and  C_6
REMARK    5  A    between atoms: C_4  and  N_20
REMARK    6  A    between atoms: N_8  and  C_9
REMARK    7  A    between atoms: C_13  and  N_15
REMARK    8  A    between atoms: C_16  and  C_18
REMARK    9  A    between atoms: N_20  and  C_21
REMARK   10  A    between atoms: C_24  and  C_28
REMARK                            x       y       z     vdW  Elec       q    Type
REMARK                         _______ _______ _______ _____ _____    ______ ____
ROOT
ATOM      1  C   UNL     1      -1.961   0.716   0.336  0.00  0.00    +0.160 C 
ENDROOT
BRANCH   1   2
ATOM      2  C   UNL     1      -2.798   0.801   1.586  0.00  0.00    +0.238 C 
ATOM      3  O   UNL     1      -3.570   1.725   1.738  0.00  0.00    -0.273 OA
ATOM      4  N   UNL     1      -2.689  -0.149   2.536  0.00  0.00    -0.284 N 
ATOM      5  H   UNL     1      -2.009  -0.836   2.459  0.00  0.00    +0.155 HD
BRANCH   4   6
ATOM      6  C   UNL     1      -3.558  -0.144   3.634  0.00  0.00    +0.035 A 
ATOM      7  C   UNL     1      -4.881   0.244   3.471  0.00  0.00    +0.026 A 
ATOM      8  C   UNL     1      -5.739   0.250   4.554  0.00  0.00    +0.042 A 
ATOM      9  C   UNL     1      -5.284  -0.131   5.803  0.00  0.00    +0.145 A 
ATOM     10  C   UNL     1      -3.959  -0.520   5.972  0.00  0.00    +0.071 A 
ATOM     11  C   UNL     1      -3.098  -0.533   4.884  0.00  0.00    +0.049 A 
ATOM     12  F   UNL     1      -6.125  -0.124   6.860  0.00  0.00    -0.204 F 
BRANCH  10  13
ATOM     13  N   UNL     1      -3.497  -0.906   7.236  0.00  0.00    -0.283 N 
ATOM     14  C   UNL     1      -2.179  -0.865   7.513  0.00  0.00    +0.214 C 
ATOM     15  O   UNL     1      -1.404  -0.396   6.707  0.00  0.00    -0.276 OA
ATOM     16  C   UNL     1      -1.667  -1.404   8.824  0.00  0.00    +0.109 C 
ATOM     17  H   UNL     1      -4.126  -1.201   7.913  0.00  0.00    +0.155 HD
ENDBRANCH  10  13
ENDBRANCH   4   6
ENDBRANCH   1   2
BRANCH   1  19
ATOM     18  C   UNL     1       0.362   0.880  -0.569  0.00  0.00    +0.009 C 
ATOM     19  C   UNL     1      -0.521   1.119   0.658  0.00  0.00    +0.012 C 
ATOM     20  C   UNL     1      -0.478   2.601   1.035  0.00  0.00    +0.009 C 
ENDBRANCH   1  19
BRANCH   1  21
ATOM     21  N   UNL     1      -2.506   1.622  -0.679  0.00  0.00    -0.332 N 
ATOM     22  H   UNL     1      -2.847   2.492  -0.420  0.00  0.00    +0.147 HD
BRANCH  21  23
ATOM     23  C   UNL     1      -2.535   1.232  -2.021  0.00  0.00    +0.046 A 
ATOM     24  C   UNL     1      -2.081  -0.028  -2.389  0.00  0.00    +0.025 A 
ATOM     25  C   UNL     1      -2.111  -0.411  -3.716  0.00  0.00    +0.014 A 
ATOM     26  C   UNL     1      -2.592   0.458  -4.677  0.00  0.00    +0.056 A 
ATOM     27  C   UNL     1      -3.045   1.713  -4.315  0.00  0.00    +0.034 A 
ATOM     28  C   UNL     1      -3.023   2.101  -2.989  0.00  0.00    +0.062 A 
ATOM     29 CL   UNL     1      -3.599   3.674  -2.533  0.00  0.00    -0.082 Cl
BRANCH  26  30
ATOM     30  C   UNL     1      -2.622   0.037  -6.124  0.00  0.00    +0.417 C 
ATOM     31  F   UNL     1      -3.846  -0.581  -6.404  0.00  0.00    -0.166 F 
ATOM     32  F   UNL     1      -2.470   1.162  -6.941  0.00  0.00    -0.166 F 
ATOM     33  F   UNL     1      -1.579  -0.862  -6.370  0.00  0.00    -0.166 F 
ENDBRANCH  26  30
ENDBRANCH  21  23
ENDBRANCH   1  21
TORSDOF 7
