REMARK  Name = ZINC40846649
REMARK  5 active torsions:
REMARK  status: ('A' for Active; 'I' for Inactive)
REMARK    1  A    between atoms: C_1  and  C_2
REMARK    2  A    between atoms: C_7  and  C_8
REMARK    3  A    between atoms: N_10  and  N_11
REMARK    4  A    between atoms: C_15  and  C_16
REMARK    5  A    between atoms: C_20  and  N_22
REMARK                            x       y       z     vdW  Elec       q    Type
REMARK                         _______ _______ _______ _____ _____    ______ ____
ROOT
ATOM      1  N   UNL     1       0.565  -0.605   5.259  0.00  0.00    -0.169 N 
ATOM      2  C   UNL     1       1.763  -0.282   5.715  0.00  0.00    +0.275 C 
ATOM      3  O   UNL     1       2.776  -0.792   5.273  0.00  0.00    -0.267 OA
ATOM      4  C   UNL     1       1.810   0.732   6.790  0.00  0.00    +0.079 C 
ATOM      5  C   UNL     1       2.880   1.254   7.441  0.00  0.00    +0.028 C 
ATOM      6  S   UNL     1       0.069   1.084   6.994  0.00  0.00    -0.059 S 
ATOM      7  C   UNL     1      -0.554  -0.033   5.748  0.00  0.00    +0.138 C 
ATOM      8  S   UNL     1      -2.179  -0.311   5.287  0.00  0.00    -0.026 S 
ENDROOT
BRANCH   5   9
ATOM      9  C   UNL     1       4.241   0.943   6.984  0.00  0.00    -0.022 A 
ATOM     10  C   UNL     1       4.515   0.830   5.615  0.00  0.00    +0.009 A 
ATOM     11  C   UNL     1       5.794   0.539   5.194  0.00  0.00    +0.023 A 
ATOM     12  C   UNL     1       6.808   0.358   6.120  0.00  0.00    +0.071 A 
ATOM     13  C   UNL     1       6.545   0.469   7.476  0.00  0.00    +0.145 A 
ATOM     14  C   UNL     1       5.272   0.766   7.913  0.00  0.00    +0.042 A 
ATOM     15 CL   UNL     1       8.416  -0.009   5.580  0.00  0.00    -0.081 Cl
BRANCH  13  16
ATOM     16  N   UNL     1       7.636   0.274   8.458  0.00  0.00    +0.058 N 
ATOM     17  O   UNL     1       7.408   0.370   9.641  0.00  0.00    -0.126 OA
ATOM     18  O   UNL     1       8.754   0.019   8.076  0.00  0.00    -0.126 OA
ENDBRANCH  13  16
ENDBRANCH   5   9
BRANCH   1  21
ATOM     19  C   UNL     1       0.182  -1.173   2.979  0.00  0.00    +0.261 C 
ATOM     20  O   UNL     1       0.029   0.006   2.725  0.00  0.00    -0.269 OA
ATOM     21  N   UNL     1       0.456  -1.561   4.240  0.00  0.00    -0.222 N 
ATOM     22  H   UNL     1       0.578  -2.502   4.443  0.00  0.00    +0.174 HD
BRANCH  19  29
ATOM     23  C   UNL     1      -0.693  -0.361   0.344  0.00  0.00    +0.044 C 
ATOM     24  C   UNL     1      -0.354  -1.801   0.629  0.00  0.00    -0.038 A 
ATOM     25  C   UNL     1      -0.453  -2.746  -0.372  0.00  0.00    +0.004 A 
ATOM     26  C   UNL     1      -0.143  -4.069  -0.112  0.00  0.00    +0.000 A 
ATOM     27  C   UNL     1       0.269  -4.453   1.152  0.00  0.00    +0.001 A 
ATOM     28  C   UNL     1       0.372  -3.519   2.162  0.00  0.00    +0.013 A 
ATOM     29  C   UNL     1       0.067  -2.181   1.904  0.00  0.00    +0.041 A 
ENDBRANCH  19  29
ENDBRANCH   1  21
TORSDOF 4
