REMARK  Name = ZINC12752563
REMARK  9 active torsions:
REMARK  status: ('A' for Active; 'I' for Inactive)
REMARK    1  A    between atoms: C_1  and  C_2
REMARK    2  A    between atoms: C_2  and  C_4
REMARK    3  A    between atoms: C_2  and  S_14
REMARK    4  A    between atoms: N_9  and  C_10
REMARK    5  A    between atoms: C_10  and  C_11
REMARK    6  A    between atoms: C_11  and  C_12
REMARK    7  A    between atoms: C_11  and  C_13
REMARK    8  A    between atoms: S_14  and  C_15
REMARK    9  A    between atoms: C_23  and  C_25
REMARK                            x       y       z     vdW  Elec       q    Type
REMARK                         _______ _______ _______ _____ _____    ______ ____
ROOT
ATOM      1  S   UNL     1      -1.700  -0.632   0.015  0.00  0.00    -0.093 S 
ENDROOT
BRANCH   1   2
ATOM      2  C   UNL     1      -2.335  -0.110   1.573  0.00  0.00    +0.109 A 
ATOM      3  C   UNL     1      -3.703  -0.430   1.978  0.00  0.00    +0.032 A 
ATOM      4  C   UNL     1      -4.570  -1.159   1.161  0.00  0.00    +0.012 A 
ATOM      5  C   UNL     1      -5.836  -1.427   1.596  0.00  0.00    +0.001 A 
ATOM      6  C   UNL     1      -6.274  -0.983   2.840  0.00  0.00    +0.002 A 
ATOM      7  C   UNL     1      -5.451  -0.269   3.661  0.00  0.00    +0.028 A 
ATOM      8  C   UNL     1      -4.144   0.024   3.246  0.00  0.00    +0.076 A 
ATOM      9  N   UNL     1      -3.295   0.720   4.012  0.00  0.00    -0.225 NA
ATOM     10  C   UNL     1      -2.067   0.983   3.600  0.00  0.00    +0.197 A 
ATOM     11  N   UNL     1      -1.587   0.582   2.422  0.00  0.00    -0.218 NA
BRANCH  10  12
ATOM     12  C   UNL     1      -1.180   1.754   4.490  0.00  0.00    +0.172 A 
ATOM     13  C   UNL     1       0.104   2.116   4.222  0.00  0.00    +0.053 A 
ATOM     14  C   UNL     1       0.565   2.835   5.340  0.00  0.00    +0.042 A 
ATOM     15  C   UNL     1      -0.449   2.878   6.229  0.00  0.00    +0.196 A 
ATOM     16  O   UNL     1      -1.503   2.230   5.710  0.00  0.00    -0.460 OA
ENDBRANCH  10  12
ENDBRANCH   1   2
BRANCH   1  18
ATOM     17  C   UNL     1      -0.019   1.526   0.010  0.00  0.00    +0.029 C 
ATOM     18  C   UNL     1       0.002  -0.004   0.002  0.00  0.00    +0.136 C 
BRANCH  18  19
ATOM     19  C   UNL     1       0.707  -0.490  -1.238  0.00  0.00    +0.233 C 
ATOM     20  O   UNL     1       0.067  -0.782  -2.225  0.00  0.00    -0.274 OA
ATOM     21  N   UNL     1       2.051  -0.601  -1.250  0.00  0.00    -0.239 N 
ATOM     22  C   UNL     1       2.682  -1.035  -2.358  0.00  0.00    +0.306 C 
ATOM     23  O   UNL     1       2.039  -1.327  -3.348  0.00  0.00    -0.252 OA
ATOM     24  N   UNL     1       4.025  -1.146  -2.370  0.00  0.00    -0.299 N 
ATOM     25  H   UNL     1       2.563  -0.367  -0.460  0.00  0.00    +0.159 HD
ATOM     26  H   UNL     1       4.537  -0.912  -1.580  0.00  0.00    +0.150 HD
BRANCH  24  27
ATOM     27  C   UNL     1       4.710  -1.618  -3.575  0.00  0.00    +0.108 C 
BRANCH  27  28
ATOM     28  C   UNL     1       6.219  -1.651  -3.324  0.00  0.00    -0.000 C 
ATOM     29  C   UNL     1       6.535  -2.689  -2.246  0.00  0.00    +0.009 C 
ATOM     30  C   UNL     1       6.944  -2.024  -4.619  0.00  0.00    +0.009 C 
ENDBRANCH  27  28
ENDBRANCH  24  27
ENDBRANCH  18  19
ENDBRANCH   1  18
TORSDOF 6
