REMARK  Name = ZINC09100942
REMARK  11 active torsions:
REMARK  status: ('A' for Active; 'I' for Inactive)
REMARK    1  A    between atoms: C_1  and  C_2
REMARK    2  A    between atoms: C_2  and  C_4
REMARK    3  A    between atoms: C_2  and  N_53
REMARK    4  A    between atoms: C_7  and  S_16
REMARK    5  A    between atoms: N_8  and  C_9
REMARK    6  A    between atoms: S_16  and  C_17
REMARK    7  A    between atoms: C_17  and  C_19
REMARK    8  A    between atoms: C_17  and  C_20
REMARK    9  A    between atoms: N_22  and  C_23
REMARK   10  A    between atoms: C_31  and  N_53
REMARK   11  A    between atoms: C_32  and  N_53
REMARK                            x       y       z     vdW  Elec       q    Type
REMARK                         _______ _______ _______ _____ _____    ______ ____
ROOT
ATOM      1  C   UNL     1      -6.797  -4.522  -1.482  0.00  0.00    +0.125 A 
ATOM      2  N   UNL     1      -7.168  -3.379  -0.979  0.00  0.00    -0.135 NA
ATOM      3  N   UNL     1      -6.139  -2.652  -0.726  0.00  0.00    -0.122 NA
ATOM      4  C   UNL     1      -5.045  -3.292  -1.064  0.00  0.00    +0.197 A 
ATOM      5  N   UNL     1      -5.429  -4.510  -1.556  0.00  0.00    -0.275 N 
ENDROOT
BRANCH   5   6
ATOM      6  C   UNL     1      -4.597  -5.532  -2.034  0.00  0.00    +0.050 A 
ATOM      7  C   UNL     1      -4.654  -5.907  -3.369  0.00  0.00    +0.028 A 
ATOM      8  C   UNL     1      -3.830  -6.911  -3.839  0.00  0.00    +0.022 A 
ATOM      9  C   UNL     1      -2.955  -7.550  -2.978  0.00  0.00    +0.041 A 
ATOM     10  C   UNL     1      -2.900  -7.181  -1.645  0.00  0.00    +0.022 A 
ATOM     11  C   UNL     1      -3.719  -6.175  -1.172  0.00  0.00    +0.028 A 
ATOM     12 CL   UNL     1      -1.925  -8.816  -3.570  0.00  0.00    -0.084 Cl
ENDBRANCH   5   6
BRANCH   1  14
ATOM     13  C   UNL     1      -8.235  -6.369  -0.666  0.00  0.00    -0.005 C 
ATOM     14  C   UNL     1      -7.704  -5.648  -1.906  0.00  0.00    -0.003 C 
BRANCH  14  17
ATOM     15  C   UNL     1      -8.355  -4.326  -3.827  0.00  0.00    -0.096 C 
ATOM     16  C   UNL     1      -9.738  -6.178  -3.108  0.00  0.00    -0.096 C 
ATOM     17  N   UNL     1      -8.845  -5.088  -2.660  0.00  0.00    +0.382 N 
ATOM     18  H   UNL     1      -9.373  -4.456  -2.046  0.00  0.00    -0.082 HD
ENDBRANCH  14  17
ENDBRANCH   1  14
BRANCH   4  19
ATOM     19  S   UNL     1      -3.393  -2.699  -0.909  0.00  0.00    -0.073 S 
BRANCH  19  20
ATOM     20  C   UNL     1      -3.711  -1.064  -0.202  0.00  0.00    +0.137 C 
ATOM     21  C   UNL     1      -4.331  -1.221   1.188  0.00  0.00    +0.029 C 
BRANCH  20  22
ATOM     22  C   UNL     1      -2.414  -0.304  -0.090  0.00  0.00    +0.230 C 
ATOM     23  O   UNL     1      -1.359  -0.901  -0.099  0.00  0.00    -0.274 OA
ATOM     24  N   UNL     1      -2.428   1.039   0.019  0.00  0.00    -0.283 N 
ATOM     25  H   UNL     1      -3.272   1.510   0.107  0.00  0.00    +0.155 HD
BRANCH  24  26
ATOM     26  C   UNL     1      -1.225   1.755   0.006  0.00  0.00    +0.052 A 
ATOM     27  C   UNL     1      -0.102   1.218  -0.610  0.00  0.00    +0.026 A 
ATOM     28  C   UNL     1       1.082   1.928  -0.626  0.00  0.00    +0.022 A 
ATOM     29  C   UNL     1       1.153   3.172  -0.025  0.00  0.00    +0.042 A 
ATOM     30  C   UNL     1       0.038   3.708   0.596  0.00  0.00    +0.041 A 
ATOM     31  C   UNL     1      -1.149   3.002   0.616  0.00  0.00    +0.064 A 
ATOM     32 CL   UNL     1      -2.548   3.674   1.394  0.00  0.00    -0.082 Cl
ATOM     33 CL   UNL     1       2.643   4.062  -0.048  0.00  0.00    -0.083 Cl
ENDBRANCH  24  26
ENDBRANCH  20  22
ENDBRANCH  19  20
ENDBRANCH   4  19
TORSDOF 7
