REMARK  Name = ZINC43633100
REMARK  6 active torsions:
REMARK  status: ('A' for Active; 'I' for Inactive)
REMARK    1  A    between atoms: C_1  and  O_2
REMARK    2  A    between atoms: O_2  and  C_3
REMARK    3  A    between atoms: C_8  and  C_9
REMARK    4  A    between atoms: C_9  and  N_10
REMARK    5  A    between atoms: C_15  and  C_24
REMARK    6  A    between atoms: C_29  and  C_30
REMARK                            x       y       z     vdW  Elec       q    Type
REMARK                         _______ _______ _______ _____ _____    ______ ____
ROOT
ATOM      1  N   UNL     1       0.013  -1.833   0.832  0.00  0.00    -0.298 N 
ATOM      2  C   UNL     1       0.917  -0.833   1.410  0.00  0.00    +0.110 C 
ATOM      3  C   UNL     1       1.161  -1.265   2.868  0.00  0.00    +0.003 C 
ATOM      4  C   UNL     1       0.081  -0.636   3.782  0.00  0.00    -0.007 C 
ATOM      5  C   UNL     1      -0.136  -1.760   4.828  0.00  0.00    -0.032 C 
ATOM      6  N   UNL     1      -0.031  -3.020   4.062  0.00  0.00    +0.394 N 
ATOM      7  C   UNL     1       0.777  -2.764   2.836  0.00  0.00    +0.018 C 
ATOM      8  C   UNL     1      -0.051  -2.937   1.597  0.00  0.00    +0.206 C 
ATOM      9  O   UNL     1      -0.687  -3.933   1.323  0.00  0.00    -0.277 OA
ATOM     10  C   UNL     1       2.021  -3.656   2.855  0.00  0.00    -0.004 C 
ATOM     11  C   UNL     1       1.620  -4.792   3.836  0.00  0.00    -0.019 C 
ATOM     12  C   UNL     1       0.707  -4.019   4.868  0.00  0.00    -0.077 C 
ATOM     13  H   UNL     1      -0.949  -3.367   3.828  0.00  0.00    -0.079 HD
ENDROOT
BRANCH   5  14
ATOM     14  C   UNL     1      -1.500  -1.637   5.455  0.00  0.00    -0.016 A 
ATOM     15  C   UNL     1      -2.620  -2.277   5.053  0.00  0.00    +0.107 A 
ATOM     16  N   UNL     1      -3.630  -1.901   5.868  0.00  0.00    -0.284 N 
ATOM     17  H   UNL     1      -4.549  -2.205   5.813  0.00  0.00    +0.188 HD
ATOM     18  N   UNL     1      -3.118  -0.996   6.807  0.00  0.00    -0.174 NA
ATOM     19  C   UNL     1      -1.834  -0.838   6.566  0.00  0.00    +0.094 A 
BRANCH  19  20
ATOM     20  C   UNL     1      -0.903   0.031   7.328  0.00  0.00    +0.005 A 
ATOM     21  C   UNL     1      -1.299   1.309   7.717  0.00  0.00    +0.010 A 
ATOM     22  C   UNL     1      -0.431   2.114   8.425  0.00  0.00    +0.003 A 
ATOM     23  C   UNL     1       0.833   1.655   8.750  0.00  0.00    +0.038 A 
ATOM     24  C   UNL     1       1.234   0.385   8.366  0.00  0.00    +0.124 A 
ATOM     25  C   UNL     1       0.368  -0.431   7.661  0.00  0.00    +0.048 A 
ATOM     26  F   UNL     1       2.469  -0.058   8.686  0.00  0.00    -0.205 F 
ENDBRANCH  19  20
ENDBRANCH   5  14
BRANCH   1  27
ATOM     27  C   UNL     1      -0.731  -1.650  -0.417  0.00  0.00    +0.146 C 
BRANCH  27  33
ATOM     28  C   UNL     1      -2.159   0.346   0.095  0.00  0.00    +0.125 A 
ATOM     29  C   UNL     1      -3.392   0.923   0.365  0.00  0.00    +0.046 A 
ATOM     30  C   UNL     1      -4.524   0.134   0.424  0.00  0.00    +0.004 A 
ATOM     31  C   UNL     1      -4.429  -1.230   0.216  0.00  0.00    +0.001 A 
ATOM     32  C   UNL     1      -3.202  -1.807  -0.052  0.00  0.00    +0.009 A 
ATOM     33  C   UNL     1      -2.067  -1.021  -0.119  0.00  0.00    +0.011 A 
BRANCH  28  35
ATOM     34  C   UNL     1      -1.213   2.521   0.267  0.00  0.00    +0.277 C 
ATOM     35  O   UNL     1      -1.044   1.121   0.036  0.00  0.00    -0.495 OA
ENDBRANCH  28  35
ENDBRANCH  27  33
ENDBRANCH   1  27
TORSDOF 5
