REMARK  Name = ZINC44256170
REMARK  7 active torsions:
REMARK  status: ('A' for Active; 'I' for Inactive)
REMARK    1  A    between atoms: C_4  and  O_15
REMARK    2  A    between atoms: C_5  and  O_14
REMARK    3  A    between atoms: C_6  and  C_7
REMARK    4  A    between atoms: C_7  and  C_9
REMARK    5  A    between atoms: C_7  and  N_13
REMARK    6  A    between atoms: C_9  and  C_10
REMARK    7  A    between atoms: O_15  and  C_16
REMARK                            x       y       z     vdW  Elec       q    Type
REMARK                         _______ _______ _______ _____ _____    ______ ____
ROOT
ATOM      1  C   UNL     1      -0.017   1.378   0.010  0.00  0.00    +0.021 A 
ATOM      2  C   UNL     1       1.170   2.089   0.002  0.00  0.00    +0.022 A 
ATOM      3  C   UNL     1       2.380   1.419  -0.013  0.00  0.00    +0.065 A 
ATOM      4  C   UNL     1       2.405   0.034  -0.021  0.00  0.00    +0.172 A 
ATOM      5  C   UNL     1       1.211  -0.681  -0.013  0.00  0.00    +0.160 A 
ATOM      6  C   UNL     1       0.002  -0.004   0.002  0.00  0.00    -0.015 A 
ATOM      7 BR   UNL     1       1.138   3.980   0.013  0.00  0.00    -0.050 Br
ENDROOT
BRANCH   5   8
ATOM      8  O   UNL     1       1.231  -2.041  -0.021  0.00  0.00    -0.503 OA
ATOM      9  H   UNL     1       1.246  -2.439   0.860  0.00  0.00    +0.292 HD
ENDBRANCH   5   8
BRANCH   6  10
ATOM     10  C   UNL     1      -1.293  -0.775   0.010  0.00  0.00    -0.032 C 
BRANCH  10  11
ATOM     11  N   UNL     1      -2.361   0.056  -0.560  0.00  0.00    +0.383 N 
ATOM     12  H   UNL     1      -2.466   0.895  -0.009  0.00  0.00    -0.089 HD
ATOM     13  H   UNL     1      -2.124   0.304  -1.509  0.00  0.00    -0.089 HD
ATOM     14  H   UNL     1      -3.228  -0.460  -0.555  0.00  0.00    -0.089 HD
ENDBRANCH  10  11
BRANCH  10  15
ATOM     15  C   UNL     1      -1.653  -1.152   1.449  0.00  0.00    +0.084 C 
BRANCH  15  16
ATOM     16  C   UNL     1      -2.880  -2.026   1.447  0.00  0.00    +0.209 C 
ATOM     17  O   UNL     1      -3.414  -2.320   0.398  0.00  0.00    -0.276 OA
ATOM     18  N   UNL     1      -3.384  -2.483   2.611  0.00  0.00    -0.329 N 
ATOM     19  H   UNL     1      -2.957  -2.248   3.449  0.00  0.00    +0.145 HD
ATOM     20  H   UNL     1      -4.174  -3.046   2.609  0.00  0.00    +0.145 HD
ENDBRANCH  15  16
ENDBRANCH  10  15
ENDBRANCH   6  10
BRANCH   4  21
ATOM     21  O   UNL     1       3.594  -0.626  -0.037  0.00  0.00    -0.402 OA
BRANCH  21  22
ATOM     22  C   UNL     1       4.779   0.172  -0.045  0.00  0.00    +0.575 C 
ATOM     23  F   UNL     1       4.809   0.974   1.101  0.00  0.00    -0.133 F 
ATOM     24  F   UNL     1       5.903  -0.661  -0.061  0.00  0.00    -0.133 F 
ATOM     25  F   UNL     1       4.786   0.986  -1.183  0.00  0.00    -0.133 F 
ENDBRANCH  21  22
ENDBRANCH   4  21
TORSDOF 7
