REMARK  Name = ZINC28901111
REMARK  6 active torsions:
REMARK  status: ('A' for Active; 'I' for Inactive)
REMARK    1  A    between atoms: C_1  and  C_2
REMARK    2  A    between atoms: C_2  and  C_4
REMARK    3  A    between atoms: C_2  and  N_20
REMARK    4  A    between atoms: N_6  and  C_7
REMARK    5  A    between atoms: C_7  and  C_8
REMARK    6  A    between atoms: N_10  and  C_11
REMARK                            x       y       z     vdW  Elec       q    Type
REMARK                         _______ _______ _______ _____ _____    ______ ____
ROOT
ATOM      1  C   UNL     1       0.721  -0.472   1.240  0.00  0.00    +0.200 C 
ATOM      2  O   UNL     1       0.147  -1.177   2.042  0.00  0.00    -0.278 OA
ATOM      3  N   UNL     1       2.012  -0.139   1.438  0.00  0.00    -0.308 N 
ATOM      4  H   UNL     1       2.471   0.425   0.796  0.00  0.00    +0.149 HD
ENDROOT
BRANCH   1   6
ATOM      5  C   UNL     1      -0.019   1.563   0.031  0.00  0.00    -0.004 C 
ATOM      6  C   UNL     1      -0.009   0.033   0.022  0.00  0.00    +0.017 C 
BRANCH   6   7
ATOM      7  N   UNL     1      -1.391  -0.466   0.038  0.00  0.00    +0.390 N 
ATOM      8  C   UNL     1      -1.384  -1.936   0.018  0.00  0.00    -0.073 C 
ATOM      9  C   UNL     1      -2.793  -2.435   0.343  0.00  0.00    +0.017 C 
ATOM     10  C   UNL     1      -3.796  -1.743  -0.544  0.00  0.00    -0.048 A 
ATOM     11  C   UNL     1      -5.067  -2.285  -0.659  0.00  0.00    +0.004 A 
ATOM     12  C   UNL     1      -6.013  -1.677  -1.460  0.00  0.00    +0.000 A 
ATOM     13  C   UNL     1      -5.691  -0.522  -2.149  0.00  0.00    +0.000 A 
ATOM     14  C   UNL     1      -4.426   0.017  -2.036  0.00  0.00    +0.002 A 
ATOM     15  C   UNL     1      -3.473  -0.594  -1.233  0.00  0.00    -0.061 A 
ATOM     16  C   UNL     1      -2.103   0.024  -1.146  0.00  0.00    -0.042 C 
ATOM     17  H   UNL     1      -1.858  -0.140   0.872  0.00  0.00    -0.080 HD
ENDBRANCH   6   7
ENDBRANCH   1   6
BRANCH   3  18
ATOM     18  C   UNL     1       2.722  -0.630   2.622  0.00  0.00    +0.200 C 
BRANCH  18  19
ATOM     19  C   UNL     1       4.139  -0.119   2.605  0.00  0.00    +0.234 C 
ATOM     20  O   UNL     1       4.519   0.586   1.694  0.00  0.00    -0.274 OA
ATOM     21  N   UNL     1       4.985  -0.445   3.603  0.00  0.00    -0.282 N 
ATOM     22  H   UNL     1       4.664  -0.954   4.364  0.00  0.00    +0.155 HD
BRANCH  21  23
ATOM     23  C   UNL     1       6.328  -0.048   3.541  0.00  0.00    +0.072 A 
ATOM     24  C   UNL     1       6.667   1.168   2.964  0.00  0.00    +0.029 A 
ATOM     25  C   UNL     1       7.991   1.558   2.903  0.00  0.00    +0.043 A 
ATOM     26  C   UNL     1       8.981   0.739   3.418  0.00  0.00    +0.161 A 
ATOM     27  C   UNL     1       8.647  -0.476   3.996  0.00  0.00    +0.195 A 
ATOM     28  C   UNL     1       7.320  -0.868   4.064  0.00  0.00    +0.182 A 
ATOM     29  F   UNL     1       6.992  -2.049   4.632  0.00  0.00    -0.200 F 
ATOM     30  F   UNL     1       9.614  -1.274   4.497  0.00  0.00    -0.199 F 
ATOM     31  F   UNL     1      10.274   1.124   3.357  0.00  0.00    -0.202 F 
ENDBRANCH  21  23
ENDBRANCH  18  19
ENDBRANCH   3  18
TORSDOF 5
