REMARK  Name = ZINC37496994
REMARK  3 active torsions:
REMARK  status: ('A' for Active; 'I' for Inactive)
REMARK    1  A    between atoms: C_1  and  N_2
REMARK    2  A    between atoms: C_6  and  C_7
REMARK    3  A    between atoms: N_9  and  C_10
REMARK                            x       y       z     vdW  Elec       q    Type
REMARK                         _______ _______ _______ _____ _____    ______ ____
ROOT
ATOM      1  C   UNL     1      -0.441  -0.390   2.511  0.00  0.00    +0.265 C 
ATOM      2  O   UNL     1      -0.540  -1.196   3.417  0.00  0.00    -0.268 OA
ATOM      3  N   UNL     1      -0.391   0.929   2.785  0.00  0.00    -0.279 N 
ATOM      4  H   UNL     1      -0.352   1.574   2.061  0.00  0.00    +0.155 HD
ENDROOT
BRANCH   3   5
ATOM      5  C   UNL     1      -0.396   1.369   4.115  0.00  0.00    +0.056 A 
ATOM      6  C   UNL     1      -0.289   0.451   5.150  0.00  0.00    +0.074 A 
ATOM      7  C   UNL     1      -0.292   0.886   6.466  0.00  0.00    +0.164 A 
ATOM      8  C   UNL     1      -0.401   2.243   6.747  0.00  0.00    +0.164 A 
ATOM      9  C   UNL     1      -0.509   3.158   5.711  0.00  0.00    +0.071 A 
ATOM     10  C   UNL     1      -0.501   2.725   4.398  0.00  0.00    +0.066 A 
ATOM     11 CL   UNL     1      -0.629   3.874   3.104  0.00  0.00    -0.081 Cl
ATOM     12  O   UNL     1      -0.398   2.689   8.034  0.00  0.00    -0.485 OA
ATOM     13  C   UNL     1      -0.663   1.719   9.053  0.00  0.00    +0.270 C 
ATOM     14  C   UNL     1       0.181   0.472   8.760  0.00  0.00    +0.270 C 
ATOM     15  O   UNL     1      -0.191  -0.028   7.471  0.00  0.00    -0.485 OA
ENDBRANCH   3   5
BRANCH   1  21
ATOM     16  C   UNL     1      -0.738  -3.318   1.547  0.00  0.00    +0.149 C 
ATOM     17  N   UNL     1      -0.507  -2.153   0.690  0.00  0.00    -0.345 N 
ATOM     18  C   UNL     1      -0.394  -2.175  -0.661  0.00  0.00    +0.101 A 
ATOM     19  C   UNL     1      -0.186  -0.912  -1.105  0.00  0.00    +0.036 A 
ATOM     20  C   UNL     1      -0.168  -0.065   0.008  0.00  0.00    +0.047 A 
ATOM     21  C   UNL     1      -0.376  -0.853   1.121  0.00  0.00    +0.106 A 
ATOM     22 BR   UNL     1       0.041  -0.387  -2.907  0.00  0.00    -0.049 Br
ENDBRANCH   1  21
TORSDOF 2
