REMARK  Name = ZINC38903812
REMARK  12 active torsions:
REMARK  status: ('A' for Active; 'I' for Inactive)
REMARK    1  A    between atoms: C_1  and  C_2
REMARK    2  A    between atoms: C_8  and  N_15
REMARK    3  A    between atoms: C_11  and  C_13
REMARK    4  A    between atoms: C_11  and  C_14
REMARK    5  A    between atoms: C_16  and  C_18
REMARK    6  A    between atoms: N_23  and  C_25
REMARK    7  A    between atoms: C_25  and  C_26
REMARK    8  A    between atoms: C_28  and  C_31
REMARK    9  A    between atoms: C_34  and  C_37
REMARK   10  A    between atoms: C_37  and  C_38
REMARK   11  A    between atoms: C_37  and  C_39
REMARK   12  A    between atoms: C_37  and  C_40
REMARK                            x       y       z     vdW  Elec       q    Type
REMARK                         _______ _______ _______ _____ _____    ______ ____
ROOT
ATOM      1  C   UNL     1      -1.418  -0.434   5.125  0.00  0.00    +0.058 C 
ATOM      2  C   UNL     1      -1.871  -1.446   6.182  0.00  0.00    +0.009 C 
ATOM      3  C   UNL     1      -2.779  -0.740   7.193  0.00  0.00    -0.018 C 
ATOM      4  C   UNL     1      -2.026   0.442   7.808  0.00  0.00    -0.078 C 
ATOM      5  N   UNL     1      -1.643   1.385   6.750  0.00  0.00    +0.386 N 
ATOM      6  C   UNL     1      -0.716   0.737   5.815  0.00  0.00    -0.065 C 
ATOM      7  H   UNL     1      -2.468   1.683   6.252  0.00  0.00    -0.081 HD
ENDROOT
BRANCH   1   9
ATOM      8  N   UNL     1      -0.865  -2.164   3.446  0.00  0.00    -0.308 N 
ATOM      9  C   UNL     1      -0.463  -1.100   4.168  0.00  0.00    +0.215 C 
ATOM     10  O   UNL     1       0.668  -0.678   4.048  0.00  0.00    -0.276 OA
ATOM     11  H   UNL     1      -1.770  -2.502   3.542  0.00  0.00    +0.149 HD
BRANCH   8  19
ATOM     12  C   UNL     1      -0.018   1.503   0.010  0.00  0.00    +0.044 C 
ATOM     13  C   UNL     1       0.002  -0.004   0.002  0.00  0.00    -0.050 A 
ATOM     14  C   UNL     1       0.006  -0.689  -1.199  0.00  0.00    +0.007 A 
ATOM     15  C   UNL     1       0.022  -2.069  -1.206  0.00  0.00    +0.046 A 
ATOM     16  C   UNL     1       0.037  -2.774  -0.006  0.00  0.00    +0.126 A 
ATOM     17  C   UNL     1       0.037  -2.086   1.194  0.00  0.00    +0.015 A 
ATOM     18  C   UNL     1       0.023  -0.701   1.194  0.00  0.00    +0.012 A 
ATOM     19  C   UNL     1       0.063  -2.812   2.515  0.00  0.00    +0.110 C 
ATOM     20  C   UNL     1      -0.355  -4.270   2.312  0.00  0.00    +0.074 C 
ATOM     21  C   UNL     1       0.436  -4.837   1.126  0.00  0.00    +0.107 C 
ATOM     22  O   UNL     1       0.048  -4.132  -0.053  0.00  0.00    -0.486 OA
ATOM     23  C   UNL     1       1.935  -4.648   1.369  0.00  0.00    +0.055 C 
ATOM     24  C   UNL     1       0.123  -6.326   0.963  0.00  0.00    +0.055 C 
ENDBRANCH   8  19
ENDBRANCH   1   9
BRANCH   5  25
ATOM     25  C   UNL     1      -0.990   2.555   7.353  0.00  0.00    +0.022 C 
BRANCH  25  26
ATOM     26  C   UNL     1      -1.982   3.298   8.211  0.00  0.00    +0.211 A 
ATOM     27  N   UNL     1      -2.198   3.090   9.479  0.00  0.00    -0.193 NA
ATOM     28  C   UNL     1      -3.148   3.929   9.928  0.00  0.00    +0.202 A 
ATOM     29  N   UNL     1      -3.544   4.684   8.933  0.00  0.00    -0.056 NA
ATOM     30  O   UNL     1      -2.786   4.287   7.800  0.00  0.00    -0.340 OA
BRANCH  28  31
ATOM     31  C   UNL     1      -3.662   3.990  11.319  0.00  0.00    +0.022 A 
ATOM     32  C   UNL     1      -3.152   3.132  12.291  0.00  0.00    +0.012 A 
ATOM     33  C   UNL     1      -3.634   3.193  13.583  0.00  0.00    +0.005 A 
ATOM     34  C   UNL     1      -4.622   4.103  13.913  0.00  0.00    -0.042 A 
ATOM     35  C   UNL     1      -5.132   4.957  12.952  0.00  0.00    +0.005 A 
ATOM     36  C   UNL     1      -4.653   4.909  11.658  0.00  0.00    +0.012 A 
BRANCH  34  37
ATOM     37  C   UNL     1      -5.144   4.164  15.325  0.00  0.00    -0.013 C 
ATOM     38  C   UNL     1      -3.997   4.499  16.280  0.00  0.00    +0.015 C 
ATOM     39  C   UNL     1      -6.222   5.246  15.424  0.00  0.00    +0.015 C 
ATOM     40  C   UNL     1      -5.746   2.810  15.705  0.00  0.00    +0.015 C 
ENDBRANCH  34  37
ENDBRANCH  28  31
ENDBRANCH  25  26
ENDBRANCH   5  25
TORSDOF 6
