REMARK  Name = ZINC06531167
REMARK  7 active torsions:
REMARK  status: ('A' for Active; 'I' for Inactive)
REMARK    1  A    between atoms: C_1  and  C_2
REMARK    2  A    between atoms: N_4  and  C_5
REMARK    3  A    between atoms: C_8  and  N_11
REMARK    4  A    between atoms: C_12  and  C_14
REMARK    5  A    between atoms: C_14  and  N_15
REMARK    6  A    between atoms: C_18  and  C_22
REMARK    7  A    between atoms: C_18  and  C_23
REMARK                            x       y       z     vdW  Elec       q    Type
REMARK                         _______ _______ _______ _____ _____    ______ ____
ROOT
ATOM      1  N   UNL     1      -5.465   3.285   0.254  0.00  0.00    -0.215 N 
ATOM      2  C   UNL     1      -6.150   2.758  -0.780  0.00  0.00    +0.251 C 
ATOM      3  O   UNL     1      -5.847   2.793  -1.953  0.00  0.00    -0.272 OA
ATOM      4  C   UNL     1      -7.378   2.110  -0.170  0.00  0.00    +0.135 C 
ATOM      5  N   UNL     1      -7.232   2.379   1.271  0.00  0.00    -0.281 N 
ATOM      6  C   UNL     1      -6.086   3.069   1.419  0.00  0.00    +0.310 C 
ATOM      7  O   UNL     1      -5.663   3.453   2.492  0.00  0.00    -0.252 OA
ATOM      8  C   UNL     1      -7.386   0.604  -0.439  0.00  0.00    +0.047 C 
ATOM      9  H   UNL     1      -7.842   2.110   1.975  0.00  0.00    +0.152 HD
ENDROOT
BRANCH   4  10
ATOM     10  C   UNL     1      -8.634   2.749  -0.704  0.00  0.00    -0.015 A 
ATOM     11  C   UNL     1      -8.679   3.201  -2.010  0.00  0.00    +0.006 A 
ATOM     12  C   UNL     1      -9.831   3.787  -2.497  0.00  0.00    +0.004 A 
ATOM     13  C   UNL     1     -10.942   3.922  -1.682  0.00  0.00    -0.044 A 
ATOM     14  C   UNL     1     -10.897   3.470  -0.377  0.00  0.00    -0.044 A 
ATOM     15  C   UNL     1      -9.743   2.878   0.109  0.00  0.00    +0.010 A 
ATOM     16  C   UNL     1     -12.225   3.731   0.301  0.00  0.00    +0.036 C 
ATOM     17  C   UNL     1     -12.933   4.777  -0.585  0.00  0.00    +0.009 C 
ATOM     18  C   UNL     1     -12.303   4.518  -1.970  0.00  0.00    +0.036 C 
ENDBRANCH   4  10
BRANCH   1  19
ATOM     19  C   UNL     1      -4.199   4.010   0.119  0.00  0.00    +0.214 C 
BRANCH  19  21
ATOM     20  N   UNL     1      -1.782   3.486   0.131  0.00  0.00    -0.284 N 
ATOM     21  C   UNL     1      -3.051   3.041   0.227  0.00  0.00    +0.235 C 
ATOM     22  O   UNL     1      -3.268   1.860   0.400  0.00  0.00    -0.274 OA
ATOM     23  H   UNL     1      -1.605   4.438   0.070  0.00  0.00    +0.155 HD
BRANCH  20  27
ATOM     24  C   UNL     1       1.383   0.771   0.097  0.00  0.00    +0.033 A 
ATOM     25  C   UNL     1       1.535   2.007   0.710  0.00  0.00    +0.025 A 
ATOM     26  C   UNL     1       0.486   2.904   0.726  0.00  0.00    +0.025 A 
ATOM     27  C   UNL     1      -0.719   2.574   0.119  0.00  0.00    +0.034 A 
ATOM     28  C   UNL     1      -0.872   1.337  -0.494  0.00  0.00    +0.025 A 
ATOM     29  C   UNL     1       0.176   0.439  -0.505  0.00  0.00    +0.025 A 
BRANCH  24  33
ATOM     30  C   UNL     1       4.863  -0.665   0.096  0.00  0.00    +0.109 C 
ATOM     31  C   UNL     1       3.714   0.304  -0.012  0.00  0.00    +0.214 C 
ATOM     32  O   UNL     1       3.931   1.485  -0.185  0.00  0.00    -0.276 OA
ATOM     33  N   UNL     1       2.446  -0.141   0.084  0.00  0.00    -0.286 N 
ATOM     34  H   UNL     1       2.269  -1.093   0.145  0.00  0.00    +0.155 HD
ENDBRANCH  24  33
ENDBRANCH  20  27
ENDBRANCH  19  21
ENDBRANCH   1  19
TORSDOF 5
