REMARK  Name = ZINC35379176
REMARK  6 active torsions:
REMARK  status: ('A' for Active; 'I' for Inactive)
REMARK    1  A    between atoms: C_1  and  C_2
REMARK    2  A    between atoms: C_7  and  S_8
REMARK    3  A    between atoms: S_8  and  N_11
REMARK    4  A    between atoms: C_15  and  C_18
REMARK    5  A    between atoms: N_20  and  C_21
REMARK    6  A    between atoms: C_30  and  C_35
REMARK                            x       y       z     vdW  Elec       q    Type
REMARK                         _______ _______ _______ _____ _____    ______ ____
ROOT
ATOM      1  N   UNL     1       1.632   1.137   2.621  0.00  0.00    -0.176 NA
ATOM      2  C   UNL     1       2.959   0.606   2.962  0.00  0.00    +0.109 C 
ATOM      3  C   UNL     1       3.909   0.863   1.787  0.00  0.00    +0.018 C 
ATOM      4  C   UNL     1       3.897   2.355   1.445  0.00  0.00    +0.015 C 
ATOM      5  C   UNL     1       2.486   2.772   1.025  0.00  0.00    +0.091 C 
ATOM      6  C   UNL     1       1.521   2.535   2.185  0.00  0.00    +0.122 C 
ENDROOT
BRANCH   5   7
ATOM      7  C   UNL     1       2.483   4.234   0.656  0.00  0.00    +0.222 C 
ATOM      8  O   UNL     1       1.776   5.011   1.262  0.00  0.00    -0.275 OA
ATOM      9  N   UNL     1       3.265   4.677  -0.348  0.00  0.00    -0.285 N 
ATOM     10  H   UNL     1       3.876   4.068  -0.792  0.00  0.00    +0.155 HD
BRANCH   9  11
ATOM     11  C   UNL     1       3.197   6.016  -0.750  0.00  0.00    +0.035 A 
ATOM     12  C   UNL     1       3.349   6.349  -2.090  0.00  0.00    +0.026 A 
ATOM     13  C   UNL     1       3.280   7.670  -2.485  0.00  0.00    +0.041 A 
ATOM     14  C   UNL     1       3.060   8.664  -1.547  0.00  0.00    +0.142 A 
ATOM     15  C   UNL     1       2.908   8.335  -0.209  0.00  0.00    +0.078 A 
ATOM     16  C   UNL     1       2.970   7.013   0.189  0.00  0.00    +0.046 A 
ATOM     17 CL   UNL     1       2.632   9.584   0.965  0.00  0.00    -0.081 Cl
ATOM     18  F   UNL     1       2.995   9.957  -1.935  0.00  0.00    -0.204 F 
ENDBRANCH   9  11
ENDBRANCH   5   7
BRANCH   1  19
ATOM     19  S   UNL     1       0.288   0.175   2.722  0.00  0.00    +0.061 S 
ATOM     20  O   UNL     1      -0.831   1.047   2.802  0.00  0.00    -0.153 OA
ATOM     21  O   UNL     1       0.563  -0.805   3.714  0.00  0.00    -0.153 OA
BRANCH  19  28
ATOM     22  C   UNL     1      -0.420   1.494   0.100  0.00  0.00    +0.046 C 
ATOM     23  C   UNL     1      -0.182   0.007   0.040  0.00  0.00    -0.022 A 
ATOM     24  C   UNL     1      -0.289  -0.660  -1.167  0.00  0.00    +0.032 A 
ATOM     25  C   UNL     1      -0.071  -2.026  -1.220  0.00  0.00    +0.076 A 
ATOM     26  C   UNL     1       0.255  -2.726  -0.059  0.00  0.00    +0.145 A 
ATOM     27  C   UNL     1       0.361  -2.051   1.145  0.00  0.00    +0.076 A 
ATOM     28  C   UNL     1       0.147  -0.685   1.190  0.00  0.00    +0.112 A 
ATOM     29  O   UNL     1       0.465  -4.068  -0.122  0.00  0.00    -0.478 OA
ATOM     30  C   UNL     1      -0.302  -4.793  -1.087  0.00  0.00    +0.256 C 
ATOM     31  C   UNL     1      -0.268  -4.069  -2.409  0.00  0.00    +0.258 C 
ATOM     32  O   UNL     1      -0.327  -4.694  -3.447  0.00  0.00    -0.271 OA
ATOM     33  N   UNL     1      -0.173  -2.722  -2.433  0.00  0.00    -0.280 N 
ATOM     34  C   UNL     1       0.289  -6.194  -1.259  0.00  0.00    +0.062 C 
ATOM     35  H   UNL     1      -0.175  -2.243  -3.277  0.00  0.00    +0.155 HD
ENDBRANCH  19  28
ENDBRANCH   1  19
TORSDOF 4
