REMARK  Name = ZINC39563932
REMARK  10 active torsions:
REMARK  status: ('A' for Active; 'I' for Inactive)
REMARK    1  A    between atoms: C_1  and  C_2
REMARK    2  A    between atoms: C_2  and  C_3
REMARK    3  A    between atoms: C_2  and  N_4
REMARK    4  A    between atoms: N_4  and  C_5
REMARK    5  A    between atoms: N_4  and  C_6
REMARK    6  A    between atoms: C_6  and  C_7
REMARK    7  A    between atoms: C_13  and  C_15
REMARK    8  A    between atoms: C_18  and  N_21
REMARK    9  A    between atoms: N_21  and  S_22
REMARK   10  A    between atoms: S_22  and  C_25
REMARK                            x       y       z     vdW  Elec       q    Type
REMARK                         _______ _______ _______ _____ _____    ______ ____
ROOT
ATOM      1  C   UNL     1       1.842   1.156   8.238  0.00  0.00    +0.037 A 
ATOM      2  C   UNL     1       0.902   0.226   8.691  0.00  0.00    +0.015 A 
ATOM      3  C   UNL     1       0.108   0.524   9.775  0.00  0.00    +0.027 A 
ATOM      4  C   UNL     1       0.241   1.750  10.420  0.00  0.00    +0.074 A 
ATOM      5  C   UNL     1       1.175   2.679   9.971  0.00  0.00    +0.027 A 
ATOM      6  C   UNL     1       1.976   2.385   8.891  0.00  0.00    +0.015 A 
ENDROOT
BRANCH   1  13
ATOM      7  C   UNL     1       0.894   0.547   3.395  0.00  0.00    -0.025 C 
ATOM      8  C   UNL     1       2.366   0.933   3.562  0.00  0.00    +0.021 C 
ATOM      9  C   UNL     1       2.962   0.157   4.741  0.00  0.00    +0.108 C 
ATOM     10  N   UNL     1       2.137   0.397   5.932  0.00  0.00    -0.298 N 
ATOM     11  C   UNL     1       0.691   0.144   5.852  0.00  0.00    +0.108 C 
ATOM     12  C   UNL     1       0.120   0.920   4.661  0.00  0.00    +0.021 C 
ATOM     13  C   UNL     1       2.694   0.840   7.076  0.00  0.00    +0.247 C 
ATOM     14  O   UNL     1       3.900   0.979   7.151  0.00  0.00    -0.270 OA
BRANCH   7  15
ATOM     15  C   UNL     1       0.304   1.294   2.198  0.00  0.00    -0.075 C 
BRANCH  15  16
ATOM     16  N   UNL     1       0.967   0.846   0.966  0.00  0.00    +0.380 N 
ATOM     17  C   UNL     1       0.658  -0.571   0.731  0.00  0.00    -0.096 C 
ATOM     18  H   UNL     1       1.965   0.961   1.060  0.00  0.00    -0.082 HD
BRANCH  16  20
ATOM     19  C   UNL     1       0.809   3.123   0.077  0.00  0.00    -0.014 C 
ATOM     20  C   UNL     1       0.487   1.647  -0.168  0.00  0.00    -0.075 C 
ATOM     21  C   UNL     1       1.178   1.181  -1.451  0.00  0.00    -0.014 C 
ENDBRANCH  16  20
ENDBRANCH  15  16
ENDBRANCH   7  15
ENDBRANCH   1  13
BRANCH   4  22
ATOM     22  N   UNL     1      -0.563   2.049  11.515  0.00  0.00    -0.098 NA
BRANCH  22  23
ATOM     23  S   UNL     1      -0.407   3.507  12.284  0.00  0.00    +0.092 S 
ATOM     24  O   UNL     1       0.883   3.516  12.880  0.00  0.00    -0.148 OA
ATOM     25  O   UNL     1      -0.825   4.501  11.358  0.00  0.00    -0.148 OA
BRANCH  23  26
ATOM     26  C   UNL     1      -1.573   3.527  13.605  0.00  0.00    +0.111 A 
ATOM     27  C   UNL     1      -2.852   4.003  13.390  0.00  0.00    +0.031 A 
ATOM     28  C   UNL     1      -3.768   4.019  14.425  0.00  0.00    +0.040 A 
ATOM     29  C   UNL     1      -3.402   3.557  15.678  0.00  0.00    +0.124 A 
ATOM     30  C   UNL     1      -2.120   3.081  15.893  0.00  0.00    +0.040 A 
ATOM     31  C   UNL     1      -1.208   3.061  14.855  0.00  0.00    +0.031 A 
ATOM     32  F   UNL     1      -4.296   3.572  16.692  0.00  0.00    -0.205 F 
ENDBRANCH  23  26
ENDBRANCH  22  23
ENDBRANCH   4  22
TORSDOF 7
