REMARK  Name = ZINC33635898
REMARK  5 active torsions:
REMARK  status: ('A' for Active; 'I' for Inactive)
REMARK    1  A    between atoms: C_1  and  C_2
REMARK    2  A    between atoms: C_2  and  C_4
REMARK    3  A    between atoms: C_2  and  N_11
REMARK    4  A    between atoms: C_12  and  C_14
REMARK    5  A    between atoms: C_17  and  C_19
REMARK                            x       y       z     vdW  Elec       q    Type
REMARK                         _______ _______ _______ _____ _____    ______ ____
ROOT
ATOM      1  N   UNL     1      -1.238   3.271   0.913  0.00  0.00    -0.303 N 
ATOM      2  C   UNL     1      -2.351   3.776   1.481  0.00  0.00    +0.266 C 
ATOM      3  O   UNL     1      -3.433   3.272   1.252  0.00  0.00    -0.268 OA
ATOM      4  H   UNL     1      -0.258   3.727   1.121  0.00  0.00    +0.150 HD
ENDROOT
BRANCH   2   5
ATOM      5  C   UNL     1      -2.256   4.941   2.381  0.00  0.00    +0.163 A 
ATOM      6  C   UNL     1      -3.289   5.558   3.016  0.00  0.00    +0.230 A 
ATOM      7  O   UNL     1      -2.763   6.565   3.731  0.00  0.00    -0.449 OA
ATOM      8  C   UNL     1      -1.437   6.571   3.534  0.00  0.00    +0.182 A 
ATOM      9  N   UNL     1      -1.119   5.604   2.727  0.00  0.00    -0.210 NA
BRANCH   8  10
ATOM     10  C   UNL     1      -0.468   7.547   4.150  0.00  0.00    +0.016 C 
ATOM     11  C   UNL     1      -0.629   8.947   3.506  0.00  0.00    -0.008 C 
ATOM     12  C   UNL     1      -0.080   9.871   4.624  0.00  0.00    -0.020 C 
ATOM     13  C   UNL     1      -0.541   9.166   5.917  0.00  0.00    -0.082 C 
ATOM     14  N   UNL     1      -0.782   7.751   5.580  0.00  0.00    +0.387 N 
ATOM     15  H   UNL     1      -1.836   7.496   5.764  0.00  0.00    -0.085 HD
ATOM     16  H   UNL     1      -0.137   7.105   6.193  0.00  0.00    -0.085 HD
ENDBRANCH   8  10
ENDBRANCH   2   5
BRANCH   1  18
ATOM     17  C   UNL     1      -1.662   2.589  -1.397  0.00  0.00    +0.033 C 
ATOM     18  C   UNL     1      -1.332   2.114   0.020  0.00  0.00    +0.100 C 
BRANCH  18  19
ATOM     19  C   UNL     1      -0.017   1.378   0.010  0.00  0.00    -0.027 A 
ATOM     20  C   UNL     1       1.171   2.086   0.002  0.00  0.00    +0.006 A 
ATOM     21  C   UNL     1       2.377   1.412  -0.013  0.00  0.00    +0.015 A 
ATOM     22  C   UNL     1       2.397   0.029  -0.021  0.00  0.00    +0.018 A 
ATOM     23  C   UNL     1       1.208  -0.679  -0.013  0.00  0.00    +0.015 A 
ATOM     24  C   UNL     1       0.002  -0.004   0.002  0.00  0.00    +0.006 A 
ATOM     25 BR   UNL     1       4.047  -0.894  -0.041  0.00  0.00    -0.050 Br
ENDBRANCH  18  19
ENDBRANCH   1  18
TORSDOF 4
