REMARK  Name = ZINC66470739
REMARK  9 active torsions:
REMARK  status: ('A' for Active; 'I' for Inactive)
REMARK    1  A    between atoms: C_1  and  C_2
REMARK    2  A    between atoms: C_4  and  N_14
REMARK    3  A    between atoms: C_7  and  C_8
REMARK    4  A    between atoms: N_10  and  C_11
REMARK    5  A    between atoms: C_11  and  C_12
REMARK    6  A    between atoms: C_11  and  C_13
REMARK    7  A    between atoms: N_14  and  C_15
REMARK    8  A    between atoms: C_15  and  C_16
REMARK    9  A    between atoms: C_19  and  C_21
REMARK                            x       y       z     vdW  Elec       q    Type
REMARK                         _______ _______ _______ _____ _____    ______ ____
ROOT
ATOM      1  N   UNL     1      -0.182  -2.766  -2.402  0.00  0.00    -0.335 N 
ATOM      2  H   UNL     1      -0.427  -2.291  -3.211  0.00  0.00    +0.147 HD
ENDROOT
BRANCH   1   6
ATOM      3  C   UNL     1      -0.502   1.454   0.081  0.00  0.00    +0.044 C 
ATOM      4  C   UNL     1      -0.230  -0.027   0.036  0.00  0.00    -0.037 A 
ATOM      5  C   UNL     1      -0.330  -0.710  -1.155  0.00  0.00    +0.027 A 
ATOM      6  C   UNL     1      -0.080  -2.079  -1.197  0.00  0.00    +0.028 A 
ATOM      7  C   UNL     1       0.272  -2.761  -0.036  0.00  0.00    +0.024 A 
ATOM      8  C   UNL     1       0.373  -2.085   1.158  0.00  0.00    +0.015 A 
ATOM      9  C   UNL     1       0.129  -0.709   1.203  0.00  0.00    +0.040 A 
BRANCH   9  10
ATOM     10  C   UNL     1       0.242   0.021   2.479  0.00  0.00    +0.245 C 
ATOM     11  O   UNL     1       0.141   1.233   2.498  0.00  0.00    -0.270 OA
ATOM     12  N   UNL     1       0.459  -0.655   3.625  0.00  0.00    -0.309 N 
ATOM     13  H   UNL     1       0.540  -1.621   3.610  0.00  0.00    +0.149 HD
BRANCH  12  14
ATOM     14  C   UNL     1       0.571   0.070   4.893  0.00  0.00    +0.067 C 
ATOM     15  C   UNL     1      -0.825   0.309   5.470  0.00  0.00    +0.027 C 
ATOM     16  C   UNL     1       1.397  -0.757   5.881  0.00  0.00    +0.027 C 
ENDBRANCH  12  14
ENDBRANCH   9  10
ENDBRANCH   1   6
BRANCH   1  17
ATOM     17  C   UNL     1       0.081  -4.206  -2.448  0.00  0.00    +0.197 C 
BRANCH  17  18
ATOM     18  C   UNL     1      -0.097  -4.704  -3.859  0.00  0.00    +0.213 A 
ATOM     19  N   UNL     1       0.841  -4.766  -4.763  0.00  0.00    -0.220 NA
ATOM     20  C   UNL     1       0.319  -5.259  -5.897  0.00  0.00    +0.161 A 
ATOM     21  C   UNL     1      -0.996  -5.507  -5.668  0.00  0.00    +0.155 A 
ATOM     22  O   UNL     1      -1.242  -5.160  -4.385  0.00  0.00    -0.438 OA
BRANCH  21  23
ATOM     23  C   UNL     1      -1.970  -6.056  -6.634  0.00  0.00    +0.020 A 
ATOM     24  C   UNL     1      -1.565  -6.380  -7.930  0.00  0.00    +0.012 A 
ATOM     25  C   UNL     1      -2.479  -6.893  -8.828  0.00  0.00    +0.002 A 
ATOM     26  C   UNL     1      -3.795  -7.086  -8.446  0.00  0.00    +0.020 A 
ATOM     27  C   UNL     1      -4.204  -6.766  -7.162  0.00  0.00    +0.042 A 
ATOM     28  C   UNL     1      -3.297  -6.258  -6.253  0.00  0.00    +0.031 A 
ATOM     29 CL   UNL     1      -5.857  -7.012  -6.693  0.00  0.00    -0.084 Cl
ENDBRANCH  21  23
ENDBRANCH  17  18
ENDBRANCH   1  17
TORSDOF 6
