REMARK  Name = ZINC08600878
REMARK  6 active torsions:
REMARK  status: ('A' for Active; 'I' for Inactive)
REMARK    1  A    between atoms: C_3  and  C_25
REMARK    2  A    between atoms: C_5  and  N_7
REMARK    3  A    between atoms: C_13  and  C_15
REMARK    4  A    between atoms: C_15  and  N_16
REMARK    5  A    between atoms: N_16  and  S_17
REMARK    6  A    between atoms: S_17  and  C_20
REMARK                            x       y       z     vdW  Elec       q    Type
REMARK                         _______ _______ _______ _____ _____    ______ ____
ROOT
ATOM      1  N   UNL     1       1.238  -2.077  -0.021  0.00  0.00    -0.327 N 
ATOM      2  C   UNL     1       2.510  -2.804  -0.141  0.00  0.00    +0.124 C 
ATOM      3  C   UNL     1       2.635  -3.771   1.042  0.00  0.00    +0.126 C 
ATOM      4  N   UNL     1       1.388  -4.540   1.155  0.00  0.00    -0.297 N 
ATOM      5  C   UNL     1       0.117  -3.813   1.276  0.00  0.00    +0.126 C 
ATOM      6  C   UNL     1      -0.009  -2.846   0.098  0.00  0.00    +0.124 C 
ATOM      7  C   UNL     1       1.410  -5.888   1.148  0.00  0.00    +0.231 C 
ATOM      8  O   UNL     1       2.465  -6.476   1.047  0.00  0.00    -0.274 OA
ENDROOT
BRANCH   1  13
ATOM      9  C   UNL     1       2.380   1.415   0.004  0.00  0.00    +0.002 A 
ATOM     10  C   UNL     1       1.171   2.086   0.002  0.00  0.00    +0.012 A 
ATOM     11  C   UNL     1      -0.016   1.377  -0.007  0.00  0.00    +0.057 A 
ATOM     12  C   UNL     1       0.002  -0.004  -0.015  0.00  0.00    +0.035 A 
ATOM     13  C   UNL     1       1.215  -0.681  -0.013  0.00  0.00    +0.030 A 
ATOM     14  C   UNL     1       2.406   0.035  -0.004  0.00  0.00    +0.023 A 
BRANCH  11  15
ATOM     15  C   UNL     1      -1.332   2.112  -0.008  0.00  0.00    +0.417 C 
ATOM     16  F   UNL     1      -1.096   3.491   0.001  0.00  0.00    -0.166 F 
ATOM     17  F   UNL     1      -2.056   1.770  -1.155  0.00  0.00    -0.166 F 
ATOM     18  F   UNL     1      -2.065   1.757   1.129  0.00  0.00    -0.166 F 
ENDBRANCH  11  15
ENDBRANCH   1  13
BRANCH   7  19
ATOM     19  C   UNL     1       0.123  -6.663   1.264  0.00  0.00    +0.201 C 
BRANCH  19  20
ATOM     20  N   UNL     1       0.413  -8.098   1.232  0.00  0.00    -0.181 NA
ATOM     21  H   UNL     1       1.280  -8.411   0.931  0.00  0.00    +0.149 HD
BRANCH  20  22
ATOM     22  S   UNL     1      -0.741  -9.187   1.707  0.00  0.00    +0.065 S 
ATOM     23  O   UNL     1      -0.175 -10.479   1.538  0.00  0.00    -0.153 OA
ATOM     24  O   UNL     1      -1.238  -8.731   2.958  0.00  0.00    -0.153 OA
BRANCH  22  25
ATOM     25  C   UNL     1      -2.074  -9.067   0.562  0.00  0.00    +0.142 A 
ATOM     26  C   UNL     1      -2.273  -9.752  -0.591  0.00  0.00    +0.036 A 
ATOM     27  C   UNL     1      -3.406  -9.490  -1.339  0.00  0.00    +0.010 A 
ATOM     28  C   UNL     1      -4.284  -8.557  -0.898  0.00  0.00    +0.047 A 
ATOM     29  S   UNL     1      -3.518  -8.018   0.622  0.00  0.00    -0.077 S 
ENDBRANCH  22  25
ENDBRANCH  20  22
ENDBRANCH  19  20
ENDBRANCH   7  19
TORSDOF 6
