REMARK  Name = ZINC64074483
REMARK  4 active torsions:
REMARK  status: ('A' for Active; 'I' for Inactive)
REMARK    1  A    between atoms: C_1  and  O_2
REMARK    2  A    between atoms: O_2  and  C_3
REMARK    3  A    between atoms: C_8  and  C_9
REMARK    4  A    between atoms: C_24  and  C_26
REMARK                            x       y       z     vdW  Elec       q    Type
REMARK                         _______ _______ _______ _____ _____    ______ ____
ROOT
ATOM      1  C   UNL     1      -1.311  -2.622  -0.834  0.00  0.00    +0.136 C 
ATOM      2  C   UNL     1      -0.639  -1.713   0.201  0.00  0.00    +0.131 C 
ATOM      3  C   UNL     1      -0.606  -2.494   1.509  0.00  0.00    -0.035 C 
ATOM      4  C   UNL     1      -1.219  -1.738   2.412  0.00  0.00    -0.001 A 
ATOM      5  C   UNL     1      -1.439  -1.921   3.856  0.00  0.00    +0.010 A 
ATOM      6  C   UNL     1      -2.131  -0.935   4.487  0.00  0.00    +0.001 A 
ATOM      7  C   UNL     1      -2.620   0.200   3.833  0.00  0.00    +0.002 A 
ATOM      8  C   UNL     1      -2.461   0.452   2.510  0.00  0.00    +0.026 A 
ATOM      9  C   UNL     1      -1.745  -0.510   1.740  0.00  0.00    +0.043 A 
ATOM     10  N   UNL     1      -1.427  -0.506   0.458  0.00  0.00    -0.375 N 
ATOM     11  C   UNL     1      -0.031  -3.885   1.608  0.00  0.00    +0.052 C 
ATOM     12  C   UNL     1      -0.681  -4.714   0.486  0.00  0.00    +0.113 C 
ATOM     13  N   UNL     1      -0.666  -3.943  -0.762  0.00  0.00    -0.288 N 
ATOM     14  C   UNL     1      -0.056  -4.449  -1.852  0.00  0.00    +0.254 C 
ATOM     15  O   UNL     1       0.858  -3.840  -2.374  0.00  0.00    -0.270 OA
ATOM     16  H   UNL     1      -1.668   0.164  -0.201  0.00  0.00    +0.160 HD
ENDROOT
BRANCH  14  17
ATOM     17  C   UNL     1      -0.496  -5.738  -2.411  0.00  0.00    +0.122 A 
ATOM     18  C   UNL     1      -0.174  -6.110  -3.709  0.00  0.00    +0.031 A 
ATOM     19  C   UNL     1      -0.660  -7.353  -4.187  0.00  0.00    +0.018 A 
ATOM     20  C   UNL     1      -0.207  -7.873  -5.409  0.00  0.00    +0.011 A 
ATOM     21  C   UNL     1      -0.653  -9.091  -5.835  0.00  0.00    +0.001 A 
ATOM     22  C   UNL     1      -1.559  -9.817  -5.074  0.00  0.00    +0.004 A 
ATOM     23  C   UNL     1      -2.034  -9.316  -3.880  0.00  0.00    +0.047 A 
ATOM     24  C   UNL     1      -1.599  -8.077  -3.429  0.00  0.00    +0.139 A 
ATOM     25  O   UNL     1      -2.091  -7.556  -2.279  0.00  0.00    -0.422 OA
ATOM     26  C   UNL     1      -1.292  -6.688  -1.612  0.00  0.00    +0.350 A 
ATOM     27  O   UNL     1      -1.235  -6.689  -0.396  0.00  0.00    -0.244 OA
ENDBRANCH  14  17
BRANCH   1  33
ATOM     28  C   UNL     1      -1.647  -2.707  -3.317  0.00  0.00    +0.125 A 
ATOM     29  C   UNL     1      -1.486  -2.168  -4.586  0.00  0.00    +0.046 A 
ATOM     30  C   UNL     1      -0.809  -0.975  -4.747  0.00  0.00    +0.004 A 
ATOM     31  C   UNL     1      -0.293  -0.317  -3.646  0.00  0.00    +0.001 A 
ATOM     32  C   UNL     1      -0.452  -0.852  -2.381  0.00  0.00    +0.009 A 
ATOM     33  C   UNL     1      -1.132  -2.043  -2.214  0.00  0.00    +0.017 A 
BRANCH  28  35
ATOM     34  C   UNL     1      -2.815  -4.510  -4.337  0.00  0.00    +0.277 C 
ATOM     35  O   UNL     1      -2.312  -3.881  -3.156  0.00  0.00    -0.495 OA
ENDBRANCH  28  35
ENDBRANCH   1  33
TORSDOF 3
