REMARK  Name = ZINC19103445
REMARK  3 active torsions:
REMARK  status: ('A' for Active; 'I' for Inactive)
REMARK    1  A    between atoms: C_5  and  S_7
REMARK    2  A    between atoms: S_7  and  N_10
REMARK    3  A    between atoms: C_16  and  C_18
REMARK                            x       y       z     vdW  Elec       q    Type
REMARK                         _______ _______ _______ _____ _____    ______ ____
ROOT
ATOM      1  N   UNL     1       1.688   4.247   1.461  0.00  0.00    -0.174 NA
ATOM      2  C   UNL     1       0.850   4.429   2.654  0.00  0.00    +0.128 C 
ATOM      3  C   UNL     1       1.473   3.631   3.812  0.00  0.00    +0.125 C 
ATOM      4  N   UNL     1       2.903   3.963   3.893  0.00  0.00    -0.298 N 
ATOM      5  C   UNL     1       3.740   3.786   2.698  0.00  0.00    +0.125 C 
ATOM      6  C   UNL     1       3.118   4.579   1.542  0.00  0.00    +0.128 C 
ATOM      7  C   UNL     1       3.436   4.421   5.043  0.00  0.00    +0.222 C 
ATOM      8  O   UNL     1       4.633   4.600   5.127  0.00  0.00    -0.275 OA
ENDROOT
BRANCH   7   9
ATOM      9  C   UNL     1       2.546   4.710   6.224  0.00  0.00    +0.048 C 
ATOM     10  C   UNL     1       1.479   5.730   5.820  0.00  0.00    +0.019 C 
ATOM     11  C   UNL     1       0.575   6.024   7.019  0.00  0.00    -0.009 C 
ATOM     12  C   UNL     1       1.416   6.592   8.164  0.00  0.00    +0.007 C 
ATOM     13  C   UNL     1       2.483   5.573   8.568  0.00  0.00    -0.009 C 
ATOM     14  C   UNL     1       3.387   5.279   7.369  0.00  0.00    +0.019 C 
ATOM     15  C   UNL     1       1.806   4.279   9.025  0.00  0.00    +0.007 C 
ATOM     16  C   UNL     1       0.966   3.711   7.880  0.00  0.00    -0.009 C 
ATOM     17  C   UNL     1      -0.102   4.730   7.477  0.00  0.00    +0.007 C 
ATOM     18  C   UNL     1       1.869   3.417   6.681  0.00  0.00    +0.019 C 
ENDBRANCH   7   9
BRANCH   1  19
ATOM     19  S   UNL     1       1.032   3.684   0.048  0.00  0.00    +0.063 S 
ATOM     20  O   UNL     1       1.876   4.140  -1.001  0.00  0.00    -0.153 OA
ATOM     21  O   UNL     1      -0.355   3.987   0.096  0.00  0.00    -0.153 OA
BRANCH  19  26
ATOM     22  C   UNL     1       0.116  -0.229   0.130  0.00  0.00    +0.004 A 
ATOM     23  C   UNL     1       1.304  -0.881   0.118  0.00  0.00    +0.031 A 
ATOM     24  C   UNL     1       2.517  -0.145   0.084  0.00  0.00    +0.102 A 
ATOM     25  C   UNL     1       2.445   1.313   0.061  0.00  0.00    +0.126 A 
ATOM     26  C   UNL     1       1.166   1.927   0.075  0.00  0.00    +0.133 A 
ATOM     27  C   UNL     1       0.048   1.164   0.108  0.00  0.00    +0.031 A 
ATOM     28  N   UNL     1       3.653   1.872   0.029  0.00  0.00    -0.189 NA
ATOM     29  S   UNL     1       4.683   0.691   0.029  0.00  0.00    +0.117 S 
ATOM     30  N   UNL     1       3.773  -0.585   0.067  0.00  0.00    -0.191 NA
ENDBRANCH  19  26
ENDBRANCH   1  19
TORSDOF 3
