REMARK  Name = ZINC39469671
REMARK  7 active torsions:
REMARK  status: ('A' for Active; 'I' for Inactive)
REMARK    1  A    between atoms: C_1  and  S_2
REMARK    2  A    between atoms: S_2  and  C_3
REMARK    3  A    between atoms: P_12  and  S_28
REMARK    4  A    between atoms: C_20  and  C_21
REMARK    5  A    between atoms: C_26  and  O_27
REMARK    6  A    between atoms: S_28  and  O_31
REMARK    7  A    between atoms: O_31  and  C_32
REMARK                            x       y       z     vdW  Elec       q    Type
REMARK                         _______ _______ _______ _____ _____    ______ ____
ROOT
ATOM      1  C   UNL     1       0.877  -0.427   1.472  0.00  0.00    +0.012 C 
ATOM      2  C   UNL     1       1.334   0.532   2.286  0.00  0.00    -0.008 C 
ATOM      3  C   UNL     1       2.089   0.150   3.530  0.00  0.00    +0.017 C 
ATOM      4  C   UNL     1       2.977   1.299   3.992  0.00  0.00    -0.003 C 
ATOM      5  C   UNL     1       4.073   1.587   2.958  0.00  0.00    -0.020 C 
ATOM      6  C   UNL     1       4.930   2.731   3.518  0.00  0.00    +0.158 C 
ATOM      7  O   UNL     1       5.950   3.079   2.565  0.00  0.00    -0.301 OA
ATOM      8  P   UNL     1       6.858   1.873   1.957  0.00  0.00    +0.431 P 
ATOM      9  O   UNL     1       7.924   1.500   2.914  0.00  0.00    -0.246 OA
ATOM     10  N   UNL     1       5.815   0.612   1.743  0.00  0.00    -0.271 NA
ATOM     11  N   UNL     1       4.875   0.384   2.726  0.00  0.00    +0.398 N 
ATOM     12  C   UNL     1       4.027  -0.709   2.227  0.00  0.00    -0.046 C 
ATOM     13  C   UNL     1       2.969  -1.070   3.245  0.00  0.00    +0.005 C 
ATOM     14  C   UNL     1       2.111  -2.166   2.660  0.00  0.00    -0.015 C 
ATOM     15  C   UNL     1       1.108  -1.848   1.824  0.00  0.00    -0.005 C 
ATOM     16  H   UNL     1       5.863   0.050   0.953  0.00  0.00    +0.113 HD
ATOM     17  H   UNL     1       5.334   0.111   3.582  0.00  0.00    -0.055 HD
ENDROOT
BRANCH  15  18
ATOM     18  C   UNL     1       0.244  -2.909   1.253  0.00  0.00    +0.024 A 
ATOM     19  C   UNL     1      -0.732  -3.516   2.042  0.00  0.00    +0.012 A 
ATOM     20  C   UNL     1      -1.534  -4.503   1.506  0.00  0.00    +0.001 A 
ATOM     21  C   UNL     1      -1.373  -4.893   0.188  0.00  0.00    +0.004 A 
ATOM     22  C   UNL     1      -0.408  -4.298  -0.603  0.00  0.00    +0.046 A 
ATOM     23  C   UNL     1       0.400  -3.300  -0.080  0.00  0.00    +0.125 A 
BRANCH  23  24
ATOM     24  O   UNL     1       1.344  -2.710  -0.858  0.00  0.00    -0.506 OA
ATOM     25  H   UNL     1       2.204  -3.151  -0.835  0.00  0.00    +0.292 HD
ENDBRANCH  23  24
ENDBRANCH  15  18
BRANCH   8  26
ATOM     26  S   UNL     1       7.706   2.454   0.103  0.00  0.00    +0.209 S 
ATOM     27  O   UNL     1       8.590   1.411  -0.284  0.00  0.00    -0.126 OA
ATOM     28  O   UNL     1       6.630   2.885  -0.719  0.00  0.00    -0.126 OA
BRANCH  26  29
ATOM     29  O   UNL     1       8.569   3.680   0.367  0.00  0.00    -0.339 OA
BRANCH  29  30
ATOM     30  C   UNL     1       9.748   3.403   0.984  0.00  0.00    +0.157 A 
ATOM     31  C   UNL     1       9.822   3.396   2.370  0.00  0.00    +0.048 A 
ATOM     32  C   UNL     1      11.022   3.114   2.994  0.00  0.00    +0.004 A 
ATOM     33  C   UNL     1      12.147   2.840   2.240  0.00  0.00    +0.000 A 
ATOM     34  C   UNL     1      12.076   2.847   0.859  0.00  0.00    +0.004 A 
ATOM     35  C   UNL     1      10.877   3.122   0.230  0.00  0.00    +0.048 A 
ENDBRANCH  29  30
ENDBRANCH  26  29
ENDBRANCH   8  26
BRANCH   1  37
ATOM     36  C   UNL     1      -0.022   1.810   0.012  0.00  0.00    +0.090 C 
ATOM     37  S   UNL     1       0.002  -0.004   0.002  0.00  0.00    -0.128 S 
ENDBRANCH   1  37
TORSDOF 6
