REMARK  Name = ZINC63374959
REMARK  9 active torsions:
REMARK  status: ('A' for Active; 'I' for Inactive)
REMARK    1  A    between atoms: C_1  and  C_2
REMARK    2  A    between atoms: C_2  and  C_3
REMARK    3  A    between atoms: C_6  and  C_9
REMARK    4  A    between atoms: N_16  and  C_31
REMARK    5  A    between atoms: C_19  and  C_30
REMARK    6  A    between atoms: C_31  and  C_32
REMARK    7  A    between atoms: C_32  and  C_33
REMARK    8  A    between atoms: C_36  and  O_39
REMARK    9  A    between atoms: O_39  and  C_40
REMARK                            x       y       z     vdW  Elec       q    Type
REMARK                         _______ _______ _______ _____ _____    ______ ____
ROOT
ATOM      1  C   UNL     1       2.707  -1.868  -4.752  0.00  0.00    +0.065 C 
ATOM      2  C   UNL     1       3.799  -0.866  -5.165  0.00  0.00    +0.121 C 
ATOM      3  N   UNL     1       4.693  -1.498  -6.154  0.00  0.00    -0.283 N 
ATOM      4  C   UNL     1       4.812  -0.921  -7.355  0.00  0.00    +0.234 C 
ATOM      5  O   UNL     1       4.156   0.076  -7.566  0.00  0.00    -0.274 OA
ATOM      6  C   UNL     1       5.694  -1.413  -8.454  0.00  0.00    +0.203 C 
ATOM      7  N   UNL     1       6.432  -2.606  -8.072  0.00  0.00    -0.291 N 
ATOM      8  C   UNL     1       6.313  -3.197  -6.885  0.00  0.00    +0.242 C 
ATOM      9  O   UNL     1       6.981  -4.187  -6.676  0.00  0.00    -0.273 OA
ATOM     10  C   UNL     1       5.412  -2.722  -5.794  0.00  0.00    +0.135 C 
ATOM     11  C   UNL     1       4.379  -3.804  -5.459  0.00  0.00    +0.139 C 
ATOM     12  C   UNL     1       3.402  -3.177  -4.470  0.00  0.00    -0.027 C 
ATOM     13  C   UNL     1       3.359  -3.989  -3.422  0.00  0.00    -0.000 A 
ATOM     14  C   UNL     1       2.532  -3.976  -2.204  0.00  0.00    +0.010 A 
ATOM     15  C   UNL     1       2.772  -4.968  -1.306  0.00  0.00    +0.001 A 
ATOM     16  C   UNL     1       3.739  -5.960  -1.495  0.00  0.00    +0.002 A 
ATOM     17  C   UNL     1       4.537  -6.054  -2.588  0.00  0.00    +0.026 A 
ATOM     18  C   UNL     1       4.372  -5.073  -3.609  0.00  0.00    +0.043 A 
ATOM     19  N   UNL     1       4.980  -4.949  -4.775  0.00  0.00    -0.375 N 
ATOM     20  C   UNL     1       6.249  -2.455  -4.542  0.00  0.00    +0.044 C 
ATOM     21  H   UNL     1       5.694  -5.506  -5.122  0.00  0.00    +0.160 HD
ENDROOT
BRANCH   1  25
ATOM     22  C   UNL     1       0.707  -0.490  -1.238  0.00  0.00    -0.048 A 
ATOM     23  C   UNL     1      -0.011  -0.719  -2.397  0.00  0.00    +0.004 A 
ATOM     24  C   UNL     1       0.636  -1.164  -3.534  0.00  0.00    +0.004 A 
ATOM     25  C   UNL     1       2.002  -1.381  -3.513  0.00  0.00    -0.039 A 
ATOM     26  C   UNL     1       2.720  -1.152  -2.354  0.00  0.00    +0.004 A 
ATOM     27  C   UNL     1       2.073  -0.702  -1.218  0.00  0.00    +0.004 A 
BRANCH  22  29
ATOM     28  C   UNL     1      -0.019   1.526   0.010  0.00  0.00    +0.009 C 
ATOM     29  C   UNL     1       0.002  -0.004   0.002  0.00  0.00    +0.032 C 
ENDBRANCH  22  29
ENDBRANCH   1  25
BRANCH   7  30
ATOM     30  C   UNL     1       7.357  -3.189  -9.047  0.00  0.00    +0.113 C 
BRANCH  30  31
ATOM     31  C   UNL     1       8.744  -2.568  -8.869  0.00  0.00    +0.054 C 
BRANCH  31  32
ATOM     32  C   UNL     1       9.696  -3.168  -9.872  0.00  0.00    -0.046 A 
ATOM     33  C   UNL     1      10.412  -4.305  -9.549  0.00  0.00    +0.007 A 
ATOM     34  C   UNL     1      11.285  -4.857 -10.466  0.00  0.00    +0.046 A 
ATOM     35  C   UNL     1      11.443  -4.269 -11.712  0.00  0.00    +0.120 A 
ATOM     36  C   UNL     1      10.723  -3.128 -12.034  0.00  0.00    +0.046 A 
ATOM     37  C   UNL     1       9.847  -2.583 -11.116  0.00  0.00    +0.007 A 
BRANCH  35  38
ATOM     38  O   UNL     1      12.302  -4.809 -12.616  0.00  0.00    -0.495 OA
ATOM     39  C   UNL     1      12.414  -4.151 -13.880  0.00  0.00    +0.277 C 
ENDBRANCH  35  38
ENDBRANCH  31  32
ENDBRANCH  30  31
ENDBRANCH   7  30
TORSDOF 6
