REMARK  Name = ZINC22229452
REMARK  15 active torsions:
REMARK  status: ('A' for Active; 'I' for Inactive)
REMARK    1  A    between atoms: C_1  and  C_2
REMARK    2  A    between atoms: C_2  and  O_3
REMARK    3  A    between atoms: O_3  and  C_4
REMARK    4  A    between atoms: C_7  and  C_10
REMARK    5  A    between atoms: C_11  and  C_12
REMARK    6  A    between atoms: C_11  and  N_24
REMARK    7  A    between atoms: N_14  and  C_15
REMARK    8  A    between atoms: C_15  and  C_17
REMARK    9  A    between atoms: C_15  and  C_21
REMARK   10  A    between atoms: C_17  and  C_18
REMARK   11  A    between atoms: C_18  and  C_19
REMARK   12  A    between atoms: C_18  and  C_20
REMARK   13  A    between atoms: C_25  and  C_27
REMARK   14  A    between atoms: C_30  and  O_33
REMARK   15  A    between atoms: O_33  and  C_34
REMARK                            x       y       z     vdW  Elec       q    Type
REMARK                         _______ _______ _______ _____ _____    ______ ____
ROOT
ATOM      1  C   UNK A   1       3.632  -3.291  -0.009  0.00  0.00    +0.036 C 
ATOM      2  C   UNK A   1       2.397  -2.771  -0.200  0.00  0.00    +0.097 C 
ENDROOT
BRANCH   1   6
ATOM      3  C   UNK A   1       4.067  -7.312   1.268  0.00  0.00    +0.121 A 
ATOM      4  C   UNK A   1       3.083  -6.982   0.345  0.00  0.00    +0.046 A 
ATOM      5  C   UNK A   1       2.938  -5.678  -0.073  0.00  0.00    +0.011 A 
ATOM      6  C   UNK A   1       3.783  -4.685   0.434  0.00  0.00    -0.023 A 
ATOM      7  C   UNK A   1       4.776  -5.024   1.359  0.00  0.00    +0.011 A 
ATOM      8  C   UNK A   1       4.910  -6.330   1.775  0.00  0.00    +0.046 A 
BRANCH   3   9
ATOM      9  O   UNK A   1       4.207  -8.600   1.677  0.00  0.00    -0.492 OA
BRANCH   9  11
ATOM     10  C   UNK A   1       5.090 -10.325   3.121  0.00  0.00    +0.048 C 
ATOM     11  C   UNK A   1       5.158  -8.852   2.713  0.00  0.00    +0.225 C 
ENDBRANCH   9  11
ENDBRANCH   3   9
ENDBRANCH   1   6
BRANCH   2  12
ATOM     12  C   UNK A   1       1.208  -3.540   0.192  0.00  0.00    +0.259 C 
ATOM     13  O   UNK A   1       0.578  -4.155  -0.648  0.00  0.00    -0.269 OA
ATOM     14  N   UNK A   1       0.816  -3.565   1.481  0.00  0.00    -0.297 N 
ATOM     15  H   UNK A   1       1.333  -2.942   2.225  0.00  0.00    +0.150 HD
BRANCH  14  16
ATOM     16  C   UNK A   1      -0.299  -4.423   1.891  0.00  0.00    +0.187 C 
BRANCH  16  17
ATOM     17  C   UNK A   1      -1.602  -3.723   1.604  0.00  0.00    +0.376 C 
ATOM     18  O   UNK A   1      -1.601  -2.621   1.108  0.00  0.00    -0.244 OA
ATOM     19  O   UNK A   1      -2.766  -4.324   1.900  0.00  0.00    -0.244 OA
ENDBRANCH  16  17
BRANCH  16  20
ATOM     20  C   UNK A   1      -0.195  -4.713   3.389  0.00  0.00    +0.037 C 
BRANCH  20  21
ATOM     21  C   UNK A   1       1.026  -5.597   3.654  0.00  0.00    -0.015 C 
ATOM     22  C   UNK A   1       1.232  -5.744   5.163  0.00  0.00    +0.007 C 
ATOM     23  C   UNK A   1       0.800  -6.977   3.033  0.00  0.00    +0.007 C 
ENDBRANCH  20  21
ENDBRANCH  16  20
ENDBRANCH  14  16
ENDBRANCH   2  12
BRANCH   2  24
ATOM     24  N   UNK A   1       2.252  -1.501  -0.769  0.00  0.00    -0.277 N 
ATOM     25  C   UNK A   0       1.024  -0.967  -0.922  0.00  0.00    +0.248 C 
ATOM     26  O   UNK A   0       0.037  -1.627  -0.660  0.00  0.00    -0.270 OA
ATOM     27  H   UNK A   1       3.141  -0.939  -1.091  0.00  0.00    +0.155 HD
BRANCH  25  28
ATOM     28  C   UNK A   0       0.878   0.418  -1.409  0.00  0.00    +0.037 A 
ATOM     29  C   UNK A   0      -0.395   0.973  -1.569  0.00  0.00    +0.016 A 
ATOM     30  C   UNK A   0      -0.527   2.267  -2.023  0.00  0.00    +0.046 A 
ATOM     31  C   UNK A   0       0.602   3.019  -2.322  0.00  0.00    +0.120 A 
ATOM     32  C   UNK A   0       1.870   2.471  -2.165  0.00  0.00    +0.046 A 
ATOM     33  C   UNK A   0       2.011   1.178  -1.711  0.00  0.00    +0.016 A 
BRANCH  31  34
ATOM     34  O   UNK A   0       0.468   4.293  -2.770  0.00  0.00    -0.495 OA
ATOM     35  C   UNK A   0       1.669   5.010  -3.059  0.00  0.00    +0.277 C 
ENDBRANCH  31  34
ENDBRANCH  25  28
ENDBRANCH   2  24
TORSDOF 11
