REMARK  Name = ZINC12476895
REMARK  13 active torsions:
REMARK  status: ('A' for Active; 'I' for Inactive)
REMARK    1  A    between atoms: C_1  and  C_2
REMARK    2  A    between atoms: C_5  and  C_8
REMARK    3  A    between atoms: C_8  and  C_10
REMARK    4  A    between atoms: C_8  and  N_17
REMARK    5  A    between atoms: N_12  and  C_13
REMARK    6  A    between atoms: C_13  and  C_14
REMARK    7  A    between atoms: C_13  and  C_15
REMARK    8  A    between atoms: C_13  and  C_16
REMARK    9  A    between atoms: N_17  and  C_18
REMARK   10  A    between atoms: C_18  and  C_19
REMARK   11  A    between atoms: C_25  and  C_27
REMARK   12  A    between atoms: C_28  and  N_35
REMARK   13  A    between atoms: C_29  and  C_32
REMARK                            x       y       z     vdW  Elec       q    Type
REMARK                         _______ _______ _______ _____ _____    ______ ____
ROOT
ATOM      1  N   UNL     1       3.420   1.338  -0.211  0.00  0.00    -0.277 N 
ATOM      2  C   UNL     1       2.076   1.375  -0.317  0.00  0.00    +0.258 C 
ATOM      3  O   UNL     1       1.504   0.604  -1.065  0.00  0.00    -0.269 OA
ENDROOT
BRANCH   2   4
ATOM      4  C   UNL     1       1.306   2.342   0.468  0.00  0.00    +0.115 A 
ATOM      5  C   UNL     1      -0.077   2.513   0.551  0.00  0.00    +0.076 A 
ATOM      6  C   UNL     1      -0.436   3.549   1.413  0.00  0.00    +0.155 A 
ATOM      7  N   UNL     1       0.505   4.227   2.031  0.00  0.00    -0.203 NA
ATOM      8  S   UNL     1       1.883   3.614   1.573  0.00  0.00    +0.019 S 
BRANCH   6   9
ATOM      9  C   UNL     1      -1.857   3.879   1.629  0.00  0.00    +0.262 C 
ATOM     10  O   UNL     1      -2.722   3.248   1.053  0.00  0.00    -0.269 OA
ATOM     11  N   UNL     1      -2.196   4.881   2.463  0.00  0.00    -0.324 N 
ATOM     12  H   UNL     1      -1.506   5.385   2.922  0.00  0.00    +0.145 HD
ATOM     13  H   UNL     1      -3.131   5.099   2.605  0.00  0.00    +0.145 HD
ENDBRANCH   6   9
BRANCH   5  14
ATOM     14  N   UNL     1      -0.993   1.738  -0.148  0.00  0.00    -0.355 N 
ATOM     15  H   UNL     1      -1.944   1.904  -0.050  0.00  0.00    +0.142 HD
ATOM     16  H   UNL     1      -0.682   1.031  -0.735  0.00  0.00    +0.142 HD
ENDBRANCH   5  14
ENDBRANCH   2   4
BRANCH   1  17
ATOM     17  C   UNL     1       4.194   0.398  -1.025  0.00  0.00    +0.193 C 
BRANCH  17  22
ATOM     18  C   UNL     1       4.773   2.509  -6.373  0.00  0.00    +0.044 C 
ATOM     19  C   UNL     1       4.622   1.959  -4.979  0.00  0.00    -0.050 A 
ATOM     20  C   UNL     1       4.267   0.636  -4.793  0.00  0.00    +0.004 A 
ATOM     21  C   UNL     1       4.129   0.131  -3.513  0.00  0.00    +0.006 A 
ATOM     22  C   UNL     1       4.345   0.949  -2.420  0.00  0.00    -0.018 A 
ATOM     23  C   UNL     1       4.694   2.273  -2.606  0.00  0.00    +0.006 A 
ATOM     24  C   UNL     1       4.837   2.777  -3.886  0.00  0.00    +0.004 A 
ENDBRANCH  17  22
BRANCH  17  25
ATOM     25  C   UNL     1       5.556   0.205  -0.411  0.00  0.00    +0.239 C 
ATOM     26  O   UNL     1       5.747   0.507   0.748  0.00  0.00    -0.273 OA
ATOM     27  N   UNL     1       6.562  -0.304  -1.150  0.00  0.00    -0.309 N 
ATOM     28  H   UNL     1       6.423  -0.498  -2.090  0.00  0.00    +0.149 HD
BRANCH  27  29
ATOM     29  C   UNL     1       7.865  -0.565  -0.533  0.00  0.00    +0.026 C 
ATOM     30  C   UNL     1       7.695  -1.559   0.618  0.00  0.00    +0.031 C 
ATOM     31  C   UNL     1       8.816  -1.151  -1.577  0.00  0.00    +0.031 C 
ATOM     32  C   UNL     1       8.444   0.745   0.007  0.00  0.00    +0.031 C 
ENDBRANCH  27  29
ENDBRANCH  17  25
ENDBRANCH   1  17
BRANCH   1  33
ATOM     33  C   UNL     1       4.106   2.239   0.719  0.00  0.00    +0.144 C 
BRANCH  33  34
ATOM     34  C   UNL     1       3.963   1.714   2.125  0.00  0.00    -0.030 A 
ATOM     35  C   UNL     1       2.852   0.968   2.474  0.00  0.00    +0.005 A 
ATOM     36  C   UNL     1       2.723   0.482   3.762  0.00  0.00    +0.000 A 
ATOM     37  C   UNL     1       3.700   0.751   4.703  0.00  0.00    +0.000 A 
ATOM     38  C   UNL     1       4.808   1.501   4.355  0.00  0.00    +0.000 A 
ATOM     39  C   UNL     1       4.939   1.982   3.066  0.00  0.00    +0.005 A 
ENDBRANCH  33  34
ENDBRANCH   1  33
TORSDOF 9
