REMARK  Name = ZINC30201497
REMARK  4 active torsions:
REMARK  status: ('A' for Active; 'I' for Inactive)
REMARK    1  A    between atoms: C_1  and  C_2
REMARK    2  A    between atoms: C_2  and  C_4
REMARK    3  A    between atoms: C_2  and  N_15
REMARK    4  A    between atoms: N_6  and  C_7
REMARK                            x       y       z     vdW  Elec       q    Type
REMARK                         _______ _______ _______ _____ _____    ______ ____
ROOT
ATOM      1  C   UNL     1       2.834  -0.259  -0.844  0.00  0.00    -0.004 C 
ATOM      2  C   UNL     1       2.367   0.860   0.089  0.00  0.00    +0.017 C 
ENDROOT
BRANCH   2   3
ATOM      3  N   UNL     1       3.450   1.837   0.262  0.00  0.00    +0.389 N 
ATOM      4  C   UNL     1       3.585   2.690  -0.928  0.00  0.00    -0.059 C 
ATOM      5  C   UNL     1       4.667   3.743  -0.677  0.00  0.00    +0.088 C 
ATOM      6  N   UNL     1       5.937   3.072  -0.367  0.00  0.00    -0.319 N 
ATOM      7  C   UNL     1       5.802   2.220   0.823  0.00  0.00    +0.088 C 
ATOM      8  C   UNL     1       4.720   1.167   0.572  0.00  0.00    -0.059 C 
ATOM      9  C   UNL     1       6.962   3.997  -0.203  0.00  0.00    +0.121 A 
ATOM     10  C   UNL     1       7.251   4.894  -1.227  0.00  0.00    +0.045 A 
ATOM     11  C   UNL     1       8.269   5.813  -1.049  0.00  0.00    +0.020 A 
ATOM     12  C   UNL     1       8.976   5.796   0.147  0.00  0.00    +0.036 A 
ATOM     13  C   UNL     1       8.639   4.874   1.119  0.00  0.00    +0.128 A 
ATOM     14  N   UNL     1       7.658   4.013   0.923  0.00  0.00    -0.239 NA
ATOM     15 BR   UNL     1      10.383   7.024   0.443  0.00  0.00    -0.049 Br
ATOM     16  H   UNL     1       3.189   2.482   1.114  0.00  0.00    -0.081 HD
ENDBRANCH   2   3
BRANCH   2  17
ATOM     17  C   UNL     1       1.999   0.277   1.429  0.00  0.00    +0.203 C 
ATOM     18  O   UNL     1       2.730   0.438   2.383  0.00  0.00    -0.277 OA
ATOM     19  N   UNL     1       0.856  -0.424   1.567  0.00  0.00    -0.285 N 
ATOM     20  H   UNL     1       0.161  -0.516   0.720  0.00  0.00    +0.155 HD
BRANCH  19  21
ATOM     21  C   UNL     1       0.554  -1.037   2.790  0.00  0.00    +0.069 A 
ATOM     22  C   UNL     1       1.044  -0.504   3.975  0.00  0.00    +0.027 A 
ATOM     23  C   UNL     1       0.745  -1.110   5.179  0.00  0.00    +0.017 A 
ATOM     24  C   UNL     1      -0.044  -2.247   5.208  0.00  0.00    +0.021 A 
ATOM     25  C   UNL     1      -0.535  -2.781   4.030  0.00  0.00    +0.055 A 
ATOM     26  C   UNL     1      -0.243  -2.176   2.821  0.00  0.00    +0.146 A 
ATOM     27  F   UNL     1      -0.727  -2.694   1.671  0.00  0.00    -0.204 F 
ATOM     28 BR   UNL     1      -0.450  -3.072   6.860  0.00  0.00    -0.050 Br
ENDBRANCH  19  21
ENDBRANCH   2  17
TORSDOF 3
