REMARK  Name = ZINC40688758
REMARK  9 active torsions:
REMARK  status: ('A' for Active; 'I' for Inactive)
REMARK    1  A    between atoms: C_1  and  C_2
REMARK    2  A    between atoms: C_4  and  C_27
REMARK    3  A    between atoms: C_7  and  N_8
REMARK    4  A    between atoms: C_10  and  N_25
REMARK    5  A    between atoms: C_11  and  N_15
REMARK    6  A    between atoms: N_15  and  N_16
REMARK    7  A    between atoms: C_17  and  C_19
REMARK    8  A    between atoms: C_27  and  C_29
REMARK    9  A    between atoms: C_27  and  C_31
REMARK                            x       y       z     vdW  Elec       q    Type
REMARK                         _______ _______ _______ _____ _____    ______ ____
ROOT
ATOM      1  N   UNL     1       0.288  -1.244   3.111  0.00  0.00    -0.298 N 
ATOM      2  C   UNL     1       0.685  -2.083   4.146  0.00  0.00    +0.149 A 
ATOM      3  C   UNL     1       0.638  -1.646   5.471  0.00  0.00    +0.107 A 
ATOM      4  C   UNL     1       1.048  -2.529   6.472  0.00  0.00    +0.161 A 
ATOM      5  N   UNL     1       1.464  -3.745   6.127  0.00  0.00    -0.217 NA
ATOM      6  C   UNL     1       1.492  -4.119   4.864  0.00  0.00    +0.225 A 
ATOM      7  N   UNL     1       1.109  -3.318   3.889  0.00  0.00    -0.219 NA
ATOM      8  H   UNL     1      -0.106  -0.380   3.311  0.00  0.00    +0.154 HD
ENDROOT
BRANCH   1  15
ATOM      9  C   UNL     1      -1.511  -0.216   1.161  0.00  0.00    +0.045 C 
ATOM     10  C   UNL     1      -0.400  -1.167   0.798  0.00  0.00    -0.029 A 
ATOM     11  C   UNL     1      -0.227  -1.559  -0.515  0.00  0.00    +0.011 A 
ATOM     12  C   UNL     1       0.792  -2.431  -0.849  0.00  0.00    -0.008 A 
ATOM     13  C   UNL     1       1.643  -2.914   0.130  0.00  0.00    +0.047 A 
ATOM     14  C   UNL     1       1.476  -2.525   1.446  0.00  0.00    +0.043 A 
ATOM     15  C   UNL     1       0.456  -1.644   1.783  0.00  0.00    +0.037 A 
ATOM     16 CL   UNL     1       2.922  -4.009  -0.294  0.00  0.00    -0.083 Cl
BRANCH  12  17
ATOM     17  C   UNL     1       0.977  -2.858  -2.283  0.00  0.00    +0.153 C 
BRANCH  17  18
ATOM     18  C   UNL     1      -0.215  -3.669  -2.723  0.00  0.00    -0.026 A 
ATOM     19  C   UNL     1      -1.441  -3.055  -2.899  0.00  0.00    +0.006 A 
ATOM     20  C   UNL     1      -2.535  -3.799  -3.303  0.00  0.00    +0.020 A 
ATOM     21  C   UNL     1      -2.402  -5.157  -3.530  0.00  0.00    +0.041 A 
ATOM     22  C   UNL     1      -1.174  -5.770  -3.353  0.00  0.00    +0.020 A 
ATOM     23  C   UNL     1      -0.080  -5.025  -2.955  0.00  0.00    +0.006 A 
ATOM     24 CL   UNL     1      -3.775  -6.091  -4.036  0.00  0.00    -0.084 Cl
ENDBRANCH  17  18
BRANCH  17  25
ATOM     25  C   UNL     1       1.101  -1.666  -3.137  0.00  0.00    +0.075 C 
ATOM     26  N   UNL     1       1.198  -0.746  -3.797  0.00  0.00    -0.196 NA
ENDBRANCH  17  25
ENDBRANCH  12  17
ENDBRANCH   1  15
BRANCH   3  27
ATOM     27  N   UNL     1       0.193  -0.352   5.789  0.00  0.00    -0.353 N 
ATOM     28  H   UNL     1      -0.089   0.251   5.083  0.00  0.00    +0.143 HD
ATOM     29  H   UNL     1       0.166  -0.062   6.714  0.00  0.00    +0.143 HD
ENDBRANCH   3  27
BRANCH   4  30
ATOM     30  N   UNL     1       1.022  -2.144   7.807  0.00  0.00    -0.247 N 
ATOM     31  H   UNL     1       0.718  -1.255   8.050  0.00  0.00    +0.172 HD
BRANCH  30  32
ATOM     32  N   UNL     1       1.436  -3.039   8.802  0.00  0.00    -0.231 N 
ATOM     33  C   UNL     1       1.411  -2.666  10.097  0.00  0.00    +0.260 C 
ATOM     34  O   UNL     1       1.030  -1.553  10.401  0.00  0.00    -0.269 OA
ATOM     35  H   UNL     1       1.740  -3.928   8.559  0.00  0.00    +0.173 HD
BRANCH  33  36
ATOM     36  C   UNL     1       1.848  -3.612  11.149  0.00  0.00    +0.041 A 
ATOM     37  C   UNL     1       2.296  -4.896  10.820  0.00  0.00    +0.033 A 
ATOM     38  C   UNL     1       2.694  -5.746  11.834  0.00  0.00    +0.111 A 
ATOM     39  N   UNL     1       2.656  -5.362  13.094  0.00  0.00    -0.263 NA
ATOM     40  C   UNL     1       2.242  -4.161  13.447  0.00  0.00    +0.111 A 
ATOM     41  C   UNL     1       1.831  -3.245  12.498  0.00  0.00    +0.033 A 
ENDBRANCH  33  36
ENDBRANCH  30  32
ENDBRANCH   4  30
TORSDOF 8
