REMARK  Name = ZINC50846936
REMARK  2 active torsions:
REMARK  status: ('A' for Active; 'I' for Inactive)
REMARK    1  A    between atoms: C_5  and  C_7
REMARK    2  A    between atoms: C_11  and  N_13
REMARK                            x       y       z     vdW  Elec       q    Type
REMARK                         _______ _______ _______ _____ _____    ______ ____
ROOT
ATOM      1  C   UNL     1       1.246  -2.165  -0.021  0.00  0.00    +0.163 A 
ATOM      2  N   UNL     1       0.103  -2.832  -0.019  0.00  0.00    -0.232 NA
ATOM      3  C   UNL     1       0.080  -4.161  -0.029  0.00  0.00    +0.050 A 
ATOM      4  C   UNL     1       1.270  -4.848  -0.044  0.00  0.00    +0.013 A 
ATOM      5  C   UNL     1       2.466  -4.117  -0.043  0.00  0.00    +0.123 A 
ATOM      6  N   UNL     1       2.415  -2.791  -0.036  0.00  0.00    -0.213 NA
ATOM      7  C   UNL     1       1.345  -6.350  -0.071  0.00  0.00    +0.040 C 
ATOM      8  C   UNL     1       0.010  -6.959   0.357  0.00  0.00    +0.005 C 
ATOM      9  C   UNL     1      -1.107  -6.307  -0.466  0.00  0.00    +0.006 C 
ATOM     10  C   UNL     1      -1.256  -4.854  -0.018  0.00  0.00    +0.056 C 
ENDROOT
BRANCH   1  15
ATOM     11  C   UNL     1      -0.017   1.376   0.010  0.00  0.00    +0.001 A 
ATOM     12  C   UNL     1       1.170   2.087   0.002  0.00  0.00    +0.001 A 
ATOM     13  C   UNL     1       2.382   1.421  -0.013  0.00  0.00    +0.016 A 
ATOM     14  C   UNL     1       2.413   0.039  -0.021  0.00  0.00    +0.029 A 
ATOM     15  C   UNL     1       1.220  -0.682  -0.013  0.00  0.00    +0.033 A 
ATOM     16  C   UNL     1       0.002  -0.004   0.002  0.00  0.00    +0.013 A 
ATOM     17 BR   UNL     1       4.071  -0.871  -0.043  0.00  0.00    -0.050 Br
ENDBRANCH   1  15
BRANCH   5  18
ATOM     18  N   UNL     1       3.687  -4.771  -0.052  0.00  0.00    -0.343 N 
ATOM     19  H   UNL     1       3.718  -5.741  -0.060  0.00  0.00    +0.144 HD
ATOM     20  H   UNL     1       4.511  -4.260  -0.051  0.00  0.00    +0.144 HD
ENDBRANCH   5  18
TORSDOF 2
