REMARK  Name = ZINC08801637
REMARK  8 active torsions:
REMARK  status: ('A' for Active; 'I' for Inactive)
REMARK    1  A    between atoms: C_1  and  C_2
REMARK    2  A    between atoms: C_5  and  S_7
REMARK    3  A    between atoms: S_7  and  N_10
REMARK    4  A    between atoms: N_10  and  C_11
REMARK    5  A    between atoms: C_11  and  C_12
REMARK    6  A    between atoms: C_12  and  C_14
REMARK    7  A    between atoms: C_12  and  N_57
REMARK    8  A    between atoms: N_22  and  C_23
REMARK                            x       y       z     vdW  Elec       q    Type
REMARK                         _______ _______ _______ _____ _____    ______ ____
ROOT
ATOM      1  C   UNL     1      -3.345   6.156  -0.956  0.00  0.00    -0.022 C 
ENDROOT
BRANCH   1   2
ATOM      2  C   UNL     1      -2.566   5.019  -0.345  0.00  0.00    -0.059 A 
ATOM      3  C   UNL     1      -2.721   4.714   0.995  0.00  0.00    +0.004 A 
ATOM      4  C   UNL     1      -2.012   3.674   1.557  0.00  0.00    +0.023 A 
ATOM      5  C   UNL     1      -1.134   2.922   0.778  0.00  0.00    +0.033 A 
ATOM      6  C   UNL     1      -0.983   3.239  -0.566  0.00  0.00    -0.025 A 
ATOM      7  C   UNL     1      -1.695   4.279  -1.124  0.00  0.00    +0.007 A 
ATOM      8  C   UNL     1       0.026   2.277  -1.162  0.00  0.00    +0.056 C 
ATOM      9  C   UNL     1       0.711   1.680   0.088  0.00  0.00    +0.109 C 
ATOM     10  N   UNL     1      -0.325   1.832   1.133  0.00  0.00    -0.332 N 
ATOM     11  C   UNL     1       0.285   2.032   2.454  0.00  0.00    +0.129 C 
ENDBRANCH   1   2
BRANCH   1  17
ATOM     12  C   UNL     1      -1.843   7.393   0.485  0.00  0.00    -0.078 C 
ATOM     13  C   UNL     1      -1.647   8.726   1.209  0.00  0.00    -0.019 C 
ATOM     14  C   UNL     1      -2.732   8.886   2.277  0.00  0.00    -0.004 C 
ATOM     15  C   UNL     1      -4.109   8.803   1.611  0.00  0.00    -0.019 C 
ATOM     16  C   UNL     1      -4.234   7.467   0.875  0.00  0.00    -0.078 C 
ATOM     17  N   UNL     1      -3.176   7.386  -0.155  0.00  0.00    +0.385 N 
ATOM     18  H   UNL     1      -3.252   8.201  -0.775  0.00  0.00    -0.081 HD
ENDBRANCH   1  17
BRANCH   1  19
ATOM     19  C   UNL     1      -4.828   5.785  -1.013  0.00  0.00    +0.095 C 
BRANCH  19  20
ATOM     20  N   UNL     1      -5.595   6.918  -1.538  0.00  0.00    -0.191 NA
ATOM     21  H   UNL     1      -5.189   7.797  -1.586  0.00  0.00    +0.148 HD
BRANCH  20  22
ATOM     22  S   UNL     1      -7.155   6.697  -2.048  0.00  0.00    +0.065 S 
ATOM     23  O   UNL     1      -7.629   7.968  -2.469  0.00  0.00    -0.153 OA
ATOM     24  O   UNL     1      -7.145   5.565  -2.907  0.00  0.00    -0.153 OA
BRANCH  22  29
ATOM     25  C   UNL     1     -10.115   4.257   2.456  0.00  0.00    +0.051 C 
ATOM     26  C   UNL     1      -9.450   5.117   1.412  0.00  0.00    -0.011 A 
ATOM     27  C   UNL     1      -9.461   6.466   1.284  0.00  0.00    +0.013 A 
ATOM     28  C   UNL     1      -8.772   7.045   0.235  0.00  0.00    +0.036 A 
ATOM     29  C   UNL     1      -8.107   6.247  -0.635  0.00  0.00    +0.143 A 
ATOM     30  S   UNL     1      -8.450   4.622   0.019  0.00  0.00    -0.074 S 
ENDBRANCH  22  29
ENDBRANCH  20  22
ENDBRANCH  19  20
ENDBRANCH   1  19
TORSDOF 6
