REMARK  Name = ZINC30825439
REMARK  2 active torsions:
REMARK  status: ('A' for Active; 'I' for Inactive)
REMARK    1  A    between atoms: C_7  and  N_15
REMARK    2  A    between atoms: C_18  and  C_24
REMARK                            x       y       z     vdW  Elec       q    Type
REMARK                         _______ _______ _______ _____ _____    ______ ____
ROOT
ATOM      1  N   UNL     1       1.393   2.383   0.463  0.00  0.00    -0.301 N 
ATOM      2  C   UNL     1       0.000   1.927   0.447  0.00  0.00    +0.235 C 
ATOM      3  N   UNL     1      -0.096   0.520   0.820  0.00  0.00    -0.285 N 
ATOM      4  C   UNL     1      -1.193  -0.168   1.267  0.00  0.00    +0.166 A 
ATOM      5  N   UNL     1      -0.811  -1.411   1.466  0.00  0.00    -0.128 NA
ATOM      6  N   UNL     1       0.439  -1.541   1.178  0.00  0.00    -0.122 NA
ATOM      7  C   UNL     1       0.920  -0.394   0.783  0.00  0.00    +0.195 A 
ATOM      8  S   UNL     1       2.568  -0.012   0.278  0.00  0.00    -0.067 S 
ATOM      9  C   UNL     1       2.240   1.615  -0.463  0.00  0.00    +0.184 C 
ENDROOT
BRANCH   1  16
ATOM     10  C   UNL     1       0.132   3.986  -3.230  0.00  0.00    +0.001 A 
ATOM     11  C   UNL     1       0.232   5.358  -3.450  0.00  0.00    +0.002 A 
ATOM     12  C   UNL     1       0.731   6.188  -2.493  0.00  0.00    +0.026 A 
ATOM     13  C   UNL     1       1.154   5.658  -1.261  0.00  0.00    +0.048 A 
ATOM     14  C   UNL     1       1.049   4.264  -1.042  0.00  0.00    +0.020 A 
ATOM     15  C   UNL     1       0.532   3.438  -2.049  0.00  0.00    +0.012 A 
ATOM     16  C   UNL     1       1.474   3.742   0.200  0.00  0.00    +0.046 A 
ATOM     17  C   UNL     1       1.971   4.624   1.155  0.00  0.00    -0.007 A 
ATOM     18  C   UNL     1       2.053   5.974   0.865  0.00  0.00    +0.021 A 
ATOM     19  N   UNL     1       1.649   6.444  -0.304  0.00  0.00    -0.358 N 
ATOM     20  C   UNL     1       2.600   6.975   1.853  0.00  0.00    +0.053 C 
ATOM     21  C   UNL     1       2.606   6.390   3.263  0.00  0.00    +0.006 C 
ATOM     22  C   UNL     1       3.310   5.029   3.221  0.00  0.00    +0.005 C 
ATOM     23  C   UNL     1       2.410   4.046   2.475  0.00  0.00    +0.039 C 
ATOM     24  H   UNL     1       1.734   7.528  -0.471  0.00  0.00    +0.166 HD
ENDBRANCH   1  16
BRANCH   4  25
ATOM     25  C   UNL     1      -2.548   0.381   1.485  0.00  0.00    +0.019 A 
ATOM     26  C   UNL     1      -2.911   1.599   0.907  0.00  0.00    +0.013 A 
ATOM     27  C   UNL     1      -4.178   2.105   1.110  0.00  0.00    +0.021 A 
ATOM     28  C   UNL     1      -5.086   1.411   1.893  0.00  0.00    +0.041 A 
ATOM     29  C   UNL     1      -4.730   0.205   2.472  0.00  0.00    +0.021 A 
ATOM     30  C   UNL     1      -3.467  -0.313   2.273  0.00  0.00    +0.013 A 
ATOM     31 CL   UNL     1      -6.677   2.057   2.148  0.00  0.00    -0.084 Cl
ENDBRANCH   4  25
TORSDOF 2
