REMARK  Name = ZINC09487937
REMARK  3 active torsions:
REMARK  status: ('A' for Active; 'I' for Inactive)
REMARK    1  A    between atoms: C_6  and  N_7
REMARK    2  A    between atoms: N_19  and  C_20
REMARK    3  A    between atoms: C_20  and  C_22
REMARK                            x       y       z     vdW  Elec       q    Type
REMARK                         _______ _______ _______ _____ _____    ______ ____
ROOT
ATOM      1  N   UNL     1       1.158   3.491   0.010  0.00  0.00    -0.276 N 
ATOM      2  C   UNL     1       2.348   4.272   0.113  0.00  0.00    +0.116 C 
ATOM      3  C   UNL     1       3.756   3.722  -0.018  0.00  0.00    +0.190 C 
ATOM      4  S   UNL     1       4.715   5.298  -0.190  0.00  0.00    -0.028 S 
ATOM      5  O   UNL     1       5.422   5.279  -1.423  0.00  0.00    -0.174 OA
ATOM      6  O   UNL     1       5.420   5.547   1.018  0.00  0.00    -0.174 OA
ATOM      7  C   UNL     1       3.300   6.491  -0.322  0.00  0.00    +0.182 C 
ATOM      8  C   UNL     1       2.226   5.523  -0.835  0.00  0.00    +0.097 C 
ATOM      9  S   UNL     1       0.514   5.922  -0.336  0.00  0.00    -0.086 S 
ATOM     10  C   UNL     1      -0.022   4.224  -0.077  0.00  0.00    +0.154 C 
ATOM     11  N   UNL     1      -1.267   3.771   0.012  0.00  0.00    -0.159 NA
ENDROOT
BRANCH   1  17
ATOM     12  C   UNL     1       0.802   1.397  -1.141  0.00  0.00    +0.027 A 
ATOM     13  C   UNL     1       0.820   0.015  -1.150  0.00  0.00    +0.051 A 
ATOM     14  C   UNL     1       1.211  -0.682  -0.019  0.00  0.00    +0.166 A 
ATOM     15  C   UNL     1       1.586   0.011   1.130  0.00  0.00    +0.168 A 
ATOM     16  C   UNL     1       1.568   1.395   1.138  0.00  0.00    +0.073 A 
ATOM     17  C   UNL     1       1.177   2.090   0.002  0.00  0.00    +0.039 A 
ATOM     18  O   UNL     1       1.923  -0.895   2.094  0.00  0.00    -0.453 OA
ATOM     19  C   UNL     1       1.361  -2.147   1.660  0.00  0.00    +0.466 C 
ATOM     20  O   UNL     1       1.314  -2.022   0.226  0.00  0.00    -0.453 OA
ENDBRANCH   1  17
BRANCH  11  21
ATOM     21  C   UNL     1      -2.292   4.614  -0.094  0.00  0.00    +0.241 C 
ATOM     22  O   UNL     1      -2.087   5.799  -0.272  0.00  0.00    -0.273 OA
BRANCH  21  23
ATOM     23  C   UNL     1      -3.704   4.099   0.007  0.00  0.00    +0.077 C 
ATOM     24  C   UNL     1      -3.954   3.074  -1.101  0.00  0.00    +0.013 C 
ATOM     25  C   UNL     1      -5.389   2.551  -0.998  0.00  0.00    +0.001 C 
ATOM     26  C   UNL     1      -6.368   3.717  -1.152  0.00  0.00    +0.000 C 
ATOM     27  C   UNL     1      -6.118   4.742  -0.044  0.00  0.00    +0.001 C 
ATOM     28  C   UNL     1      -4.684   5.265  -0.147  0.00  0.00    +0.013 C 
ENDBRANCH  21  23
ENDBRANCH  11  21
TORSDOF 3
