REMARK  Name = ZINC39480328
REMARK  6 active torsions:
REMARK  status: ('A' for Active; 'I' for Inactive)
REMARK    1  A    between atoms: C_1  and  C_2
REMARK    2  A    between atoms: C_2  and  C_3
REMARK    3  A    between atoms: C_2  and  S_4
REMARK    4  A    between atoms: S_4  and  C_7
REMARK    5  A    between atoms: N_13  and  C_25
REMARK    6  A    between atoms: C_22  and  O_24
REMARK                            x       y       z     vdW  Elec       q    Type
REMARK                         _______ _______ _______ _____ _____    ______ ____
ROOT
ATOM      1  C   UNL     1      -1.946  -0.207  -1.368  0.00  0.00    +0.111 A 
ATOM      2  C   UNL     1      -2.246  -1.144  -2.349  0.00  0.00    +0.043 A 
ATOM      3  C   UNL     1      -2.674  -0.752  -3.607  0.00  0.00    +0.016 A 
ATOM      4  C   UNL     1      -2.949   0.590  -3.861  0.00  0.00    +0.020 A 
ATOM      5  C   UNL     1      -2.716   1.476  -2.874  0.00  0.00    -0.014 A 
ATOM      6  C   UNL     1      -2.061   1.122  -1.702  0.00  0.00    +0.064 A 
ATOM      7  N   UNL     1      -1.186   2.099  -1.251  0.00  0.00    -0.285 N 
ATOM      8  C   UNL     1      -0.746   2.396   0.009  0.00  0.00    +0.156 A 
ATOM      9  C   UNL     1      -1.327   3.742   0.199  0.00  0.00    +0.144 A 
ATOM     10  C   UNL     1      -1.109   4.361   1.382  0.00  0.00    +0.160 A 
ATOM     11  N   UNL     1      -0.377   3.736   2.308  0.00  0.00    -0.222 NA
ATOM     12  C   UNL     1       0.132   2.539   2.092  0.00  0.00    +0.225 A 
ATOM     13  N   UNL     1      -0.054   1.882   0.951  0.00  0.00    -0.218 NA
ATOM     14 CL   UNL     1      -1.767   5.938   1.689  0.00  0.00    -0.060 Cl
ATOM     15  N   UNL     1      -1.973   4.042  -0.959  0.00  0.00    -0.211 NA
ATOM     16  C   UNL     1      -2.891   3.215  -1.329  0.00  0.00    +0.192 C 
ATOM     17  C   UNL     1      -3.314   2.903  -2.759  0.00  0.00    +0.132 C 
ATOM     18  C   UNL     1      -0.639   2.959  -2.304  0.00  0.00    +0.137 C 
ATOM     19  I   UNL     1      -2.909  -2.176  -5.126  0.00  0.00    -0.044 I 
ENDROOT
BRANCH   1  20
ATOM     20  S   UNL     1      -1.443  -0.703   0.247  0.00  0.00    +0.001 S 
ATOM     21  O   UNL     1      -0.114  -0.218   0.378  0.00  0.00    -0.169 OA
ATOM     22  O   UNL     1      -1.714  -2.097   0.299  0.00  0.00    -0.169 OA
BRANCH  20  24
ATOM     23  C   UNL     1      -4.003  -0.106   1.004  0.00  0.00    +0.032 C 
ATOM     24  C   UNL     1      -2.549   0.191   1.374  0.00  0.00    +0.130 C 
ATOM     25  C   UNL     1      -2.285  -0.261   2.812  0.00  0.00    +0.032 C 
ENDBRANCH  20  24
ENDBRANCH   1  20
BRANCH  16  26
ATOM     26  O   UNL     1      -3.537   2.555  -0.345  0.00  0.00    -0.495 OA
ATOM     27  H   UNL     1      -3.234   2.781   0.545  0.00  0.00    +0.293 HD
ENDBRANCH  16  26
TORSDOF 3
