REMARK  Name = ZINC08883056
REMARK  4 active torsions:
REMARK  status: ('A' for Active; 'I' for Inactive)
REMARK    1  A    between atoms: C_8  and  C_12
REMARK    2  A    between atoms: N_14  and  C_15
REMARK    3  A    between atoms: C_18  and  S_21
REMARK    4  A    between atoms: S_21  and  N_24
REMARK                            x       y       z     vdW  Elec       q    Type
REMARK                         _______ _______ _______ _____ _____    ______ ____
ROOT
ATOM      1  C   UNL     1      -2.442  -2.797  -0.079  0.00  0.00    +0.034 A 
ATOM      2  C   UNL     1      -3.632  -2.084  -0.153  0.00  0.00    +0.025 A 
ATOM      3  C   UNL     1      -4.835  -2.757  -0.240  0.00  0.00    +0.030 A 
ATOM      4  C   UNL     1      -4.856  -4.140  -0.241  0.00  0.00    +0.106 A 
ATOM      5  C   UNL     1      -3.674  -4.853  -0.161  0.00  0.00    +0.030 A 
ATOM      6  C   UNL     1      -2.468  -4.186  -0.080  0.00  0.00    +0.025 A 
ENDROOT
BRANCH   1   9
ATOM      7  C   UNL     1      -0.127  -2.626  -0.596  0.00  0.00    +0.255 C 
ATOM      8  O   UNL     1      -0.179  -3.715  -1.135  0.00  0.00    -0.270 OA
ATOM      9  N   UNL     1      -1.223  -2.118   0.003  0.00  0.00    -0.281 N 
ATOM     10  H   UNL     1      -1.165  -1.282   0.491  0.00  0.00    +0.155 HD
BRANCH   7  18
ATOM     11  C   UNL     1       3.735   2.006   0.567  0.00  0.00    +0.001 A 
ATOM     12  C   UNL     1       4.841   1.448  -0.060  0.00  0.00    +0.004 A 
ATOM     13  C   UNL     1       4.757   0.212  -0.664  0.00  0.00    +0.047 A 
ATOM     14  C   UNL     1       3.556  -0.488  -0.649  0.00  0.00    +0.139 A 
ATOM     15  C   UNL     1       2.437   0.078  -0.013  0.00  0.00    +0.018 A 
ATOM     16  C   UNL     1       2.546   1.338   0.596  0.00  0.00    +0.011 A 
ATOM     17  C   UNL     1       1.204  -0.622   0.012  0.00  0.00    +0.031 A 
ATOM     18  C   UNL     1       1.132  -1.863  -0.597  0.00  0.00    +0.122 A 
ATOM     19  C   UNL     1       2.332  -2.403  -1.246  0.00  0.00    +0.350 A 
ATOM     20  O   UNL     1       2.293  -3.494  -1.783  0.00  0.00    -0.244 OA
ATOM     21  O   UNL     1       3.476  -1.699  -1.242  0.00  0.00    -0.422 OA
ENDBRANCH   7  18
ENDBRANCH   1   9
BRANCH   4  22
ATOM     22  S   UNL     1      -6.393  -4.995  -0.343  0.00  0.00    +0.061 S 
ATOM     23  O   UNL     1      -7.314  -4.104  -0.957  0.00  0.00    -0.153 OA
ATOM     24  O   UNL     1      -6.108  -6.281  -0.875  0.00  0.00    -0.153 OA
BRANCH  22  25
ATOM     25  N   UNL     1      -6.926  -5.232   1.207  0.00  0.00    -0.176 NA
ATOM     26  C   UNL     1      -6.562  -6.445   1.949  0.00  0.00    +0.114 C 
ATOM     27  C   UNL     1      -7.787  -7.082   2.588  0.00  0.00    +0.025 C 
ATOM     28  C   UNL     1      -8.639  -6.053   3.333  0.00  0.00    +0.017 C 
ATOM     29  C   UNL     1      -9.051  -4.962   2.342  0.00  0.00    +0.052 C 
ATOM     30  C   UNL     1      -7.781  -4.234   1.870  0.00  0.00    +0.119 C 
ATOM     31  C   UNL     1      -9.708  -5.573   1.127  0.00  0.00    +0.026 A 
ATOM     32  C   UNL     1     -10.570  -4.825   0.421  0.00  0.00    +0.022 A 
ATOM     33  C   UNL     1     -11.159  -5.314  -0.750  0.00  0.00    +0.007 A 
ATOM     34  C   UNL     1     -10.826  -6.565  -1.181  0.00  0.00    +0.070 A 
ATOM     35  C   UNL     1      -9.926  -7.329  -0.426  0.00  0.00    +0.251 A 
ATOM     36  O   UNL     1      -9.584  -8.430  -0.828  0.00  0.00    -0.268 OA
ATOM     37  N   UNL     1      -9.429  -6.860   0.745  0.00  0.00    -0.312 N 
ATOM     38  C   UNL     1      -8.629  -7.789   1.543  0.00  0.00    +0.130 C 
ENDBRANCH  22  25
ENDBRANCH   4  22
TORSDOF 4
