REMARK  Name = ZINC20852819
REMARK  4 active torsions:
REMARK  status: ('A' for Active; 'I' for Inactive)
REMARK    1  A    between atoms: C_1  and  C_2
REMARK    2  A    between atoms: N_11  and  C_15
REMARK    3  A    between atoms: C_15  and  C_16
REMARK    4  A    between atoms: C_21  and  C_24
REMARK                            x       y       z     vdW  Elec       q    Type
REMARK                         _______ _______ _______ _____ _____    ______ ____
ROOT
ATOM      1  C   UNL     1      -0.718   1.572   1.248  0.00  0.00    +0.237 C 
ATOM      2  O   UNL     1      -1.714   2.256   1.150  0.00  0.00    -0.274 OA
ATOM      3  N   UNL     1      -0.242   1.246   2.466  0.00  0.00    -0.263 N 
ATOM      4  C   UNL     1      -0.892   1.694   3.609  0.00  0.00    +0.165 A 
ATOM      5  N   UNL     1      -0.593   1.483   4.877  0.00  0.00    -0.225 NA
ATOM      6  C   UNL     1      -1.328   1.997   5.852  0.00  0.00    +0.082 A 
ATOM      7  C   UNL     1      -2.425   2.749   5.539  0.00  0.00    +0.077 A 
ATOM      8  S   UNL     1      -2.361   2.703   3.753  0.00  0.00    -0.060 S 
ATOM      9  H   UNL     1       0.662   0.625   2.555  0.00  0.00    +0.157 HD
ENDROOT
BRANCH   6  10
ATOM     10  C   UNL     1      -0.967   1.752   7.270  0.00  0.00    +0.019 A 
ATOM     11  C   UNL     1      -1.744   2.294   8.292  0.00  0.00    +0.013 A 
ATOM     12  C   UNL     1      -1.408   2.059   9.610  0.00  0.00    +0.021 A 
ATOM     13  C   UNL     1      -0.294   1.295   9.918  0.00  0.00    +0.042 A 
ATOM     14  C   UNL     1       0.484   0.759   8.907  0.00  0.00    +0.040 A 
ATOM     15  C   UNL     1       0.153   0.983   7.584  0.00  0.00    +0.052 A 
ATOM     16 CL   UNL     1       1.130   0.311   6.317  0.00  0.00    -0.083 Cl
ATOM     17 CL   UNL     1       0.127   1.010  11.577  0.00  0.00    -0.083 Cl
ENDBRANCH   6  10
BRANCH   1  18
ATOM     18  C   UNL     1      -0.013   1.086   0.008  0.00  0.00    +0.214 C 
BRANCH  18  28
ATOM     19  C   UNL     1      -3.111   3.921  -1.487  0.00  0.00    +0.010 C 
ATOM     20  C   UNL     1      -2.339   4.026  -2.804  0.00  0.00    +0.018 C 
ATOM     21  C   UNL     1      -3.328   4.068  -3.972  0.00  0.00    +0.006 C 
ATOM     22  C   UNL     1      -2.556   4.152  -5.290  0.00  0.00    +0.000 C 
ATOM     23  C   UNL     1      -1.660   2.921  -5.437  0.00  0.00    +0.003 C 
ATOM     24  C   UNL     1      -0.665   2.874  -4.275  0.00  0.00    +0.035 C 
ATOM     25  C   UNL     1      -1.423   2.817  -2.954  0.00  0.00    +0.115 C 
ATOM     26  C   UNL     1      -0.456   2.742  -1.794  0.00  0.00    +0.247 C 
ATOM     27  O   UNL     1       0.381   3.562  -1.483  0.00  0.00    -0.273 OA
ATOM     28  N   UNL     1      -0.721   1.571  -1.179  0.00  0.00    -0.215 N 
ATOM     29  C   UNL     1      -1.708   0.905  -1.791  0.00  0.00    +0.310 C 
ATOM     30  O   UNL     1      -2.122  -0.178  -1.424  0.00  0.00    -0.252 OA
ATOM     31  N   UNL     1      -2.194   1.571  -2.856  0.00  0.00    -0.285 N 
ATOM     32  H   UNL     1      -2.989   1.357  -3.586  0.00  0.00    +0.151 HD
ENDBRANCH  18  28
ENDBRANCH   1  18
TORSDOF 3
