REMARK  Name = ZINC37358560
REMARK  6 active torsions:
REMARK  status: ('A' for Active; 'I' for Inactive)
REMARK    1  A    between atoms: C_4  and  C_7
REMARK    2  A    between atoms: C_7  and  N_8
REMARK    3  A    between atoms: C_9  and  N_32
REMARK    4  A    between atoms: C_11  and  C_25
REMARK    5  A    between atoms: N_17  and  C_18
REMARK    6  A    between atoms: C_18  and  C_19
REMARK                            x       y       z     vdW  Elec       q    Type
REMARK                         _______ _______ _______ _____ _____    ______ ____
ROOT
ATOM      1  N   UNL     1       3.795  -0.782   1.654  0.00  0.00    -0.267 N 
ATOM      2  C   UNL     1       3.753  -2.014   2.189  0.00  0.00    +0.124 A 
ATOM      3  C   UNL     1       4.737  -2.078   3.169  0.00  0.00    +0.084 A 
ATOM      4  C   UNL     1       5.201  -3.058   4.075  0.00  0.00    +0.089 A 
ATOM      5  N   UNL     1       6.198  -2.738   4.890  0.00  0.00    -0.214 NA
ATOM      6  C   UNL     1       6.764  -1.535   4.877  0.00  0.00    +0.218 A 
ATOM      7  N   UNL     1       6.395  -0.565   4.067  0.00  0.00    -0.195 NA
ATOM      8  C   UNL     1       5.393  -0.758   3.187  0.00  0.00    +0.162 A 
ATOM      9  N   UNL     1       4.802  -0.029   2.267  0.00  0.00    -0.279 N 
ATOM     10  N   UNL     1       7.798  -1.290   5.763  0.00  0.00    -0.308 N 
ATOM     11  H   UNL     1       8.091  -1.986   6.372  0.00  0.00    +0.149 HD
ATOM     12  H   UNL     1       5.028   0.889   2.049  0.00  0.00    +0.189 HD
ENDROOT
BRANCH   4  13
ATOM     13  C   UNL     1       4.590  -4.406   4.115  0.00  0.00    +0.001 A 
ATOM     14  C   UNL     1       4.337  -5.095   2.928  0.00  0.00    +0.011 A 
ATOM     15  C   UNL     1       3.768  -6.351   2.971  0.00  0.00    +0.020 A 
ATOM     16  C   UNL     1       3.448  -6.927   4.189  0.00  0.00    +0.041 A 
ATOM     17  C   UNL     1       3.696  -6.248   5.369  0.00  0.00    +0.020 A 
ATOM     18  C   UNL     1       4.270  -4.994   5.339  0.00  0.00    +0.011 A 
ATOM     19 CL   UNL     1       2.731  -8.508   4.235  0.00  0.00    -0.084 Cl
ENDBRANCH   4  13
BRANCH   2  20
ATOM     20  N   UNL     1       2.890  -3.033   1.830  0.00  0.00    -0.343 N 
ATOM     21  H   UNL     1       2.431  -3.001   0.976  0.00  0.00    +0.144 HD
ATOM     22  H   UNL     1       2.743  -3.778   2.432  0.00  0.00    +0.144 HD
ENDBRANCH   2  20
BRANCH   1  23
ATOM     23  C   UNL     1       2.919  -0.300   0.583  0.00  0.00    +0.178 C 
BRANCH  23  27
ATOM     24  C   UNL     1      -0.729   1.150   2.267  0.00  0.00    +0.000 A 
ATOM     25  C   UNL     1       0.341   2.007   2.094  0.00  0.00    +0.000 A 
ATOM     26  C   UNL     1       1.522   1.538   1.549  0.00  0.00    +0.005 A 
ATOM     27  C   UNL     1       1.632   0.211   1.178  0.00  0.00    -0.026 A 
ATOM     28  C   UNL     1       0.562  -0.647   1.351  0.00  0.00    +0.005 A 
ATOM     29  C   UNL     1      -0.619  -0.177   1.895  0.00  0.00    +0.000 A 
ENDBRANCH  23  27
ENDBRANCH   1  23
BRANCH  10  30
ATOM     30  C   UNL     1       8.451   0.022   5.782  0.00  0.00    +0.160 C 
BRANCH  30  31
ATOM     31  C   UNL     1       9.535   0.028   6.828  0.00  0.00    +0.058 A 
ATOM     32  C   UNL     1      10.839  -0.245   6.462  0.00  0.00    +0.025 A 
ATOM     33  C   UNL     1      11.829  -0.236   7.432  0.00  0.00    +0.003 A 
ATOM     34  C   UNL     1      11.469   0.048   8.741  0.00  0.00    +0.020 A 
ATOM     35  C   UNL     1      10.144   0.312   9.032  0.00  0.00    +0.111 A 
ATOM     36  N   UNL     1       9.229   0.300   8.082  0.00  0.00    -0.258 NA
ENDBRANCH  30  31
ENDBRANCH  10  30
TORSDOF 6
