REMARK  Name = ZINC09781940
REMARK  4 active torsions:
REMARK  status: ('A' for Active; 'I' for Inactive)
REMARK    1  A    between atoms: C_1  and  C_2
REMARK    2  A    between atoms: C_12  and  S_14
REMARK    3  A    between atoms: S_14  and  N_17
REMARK    4  A    between atoms: C_21  and  C_23
REMARK                            x       y       z     vdW  Elec       q    Type
REMARK                         _______ _______ _______ _____ _____    ______ ____
ROOT
ATOM      1  S   UNL     1      -0.031   1.296   0.065  0.00  0.00    +0.061 S 
ATOM      2  O   UNL     1       0.208  -0.100   0.181  0.00  0.00    -0.153 OA
ATOM      3  O   UNL     1       1.019   2.236  -0.115  0.00  0.00    -0.153 OA
ENDROOT
BRANCH   1  15
ATOM      4  C   UNL     1      -3.508   4.623   6.687  0.00  0.00    +0.109 C 
ATOM      5  C   UNL     1      -2.675   4.137   5.529  0.00  0.00    +0.217 C 
ATOM      6  O   UNL     1      -1.768   4.822   5.105  0.00  0.00    -0.276 OA
ATOM      7  N   UNL     1      -2.937   2.942   4.964  0.00  0.00    -0.271 N 
ATOM      8  C   UNL     1      -3.938   2.042   5.552  0.00  0.00    +0.114 C 
ATOM      9  C   UNL     1      -3.345   0.626   5.565  0.00  0.00    +0.024 C 
ATOM     10  C   UNL     1      -3.102   0.179   4.124  0.00  0.00    +0.038 C 
ATOM     11  C   UNL     1      -2.313   1.221   3.375  0.00  0.00    -0.024 A 
ATOM     12  C   UNL     1      -2.260   2.538   3.805  0.00  0.00    +0.040 A 
ATOM     13  C   UNL     1      -1.528   3.475   3.086  0.00  0.00    +0.026 A 
ATOM     14  C   UNL     1      -0.844   3.094   1.949  0.00  0.00    +0.030 A 
ATOM     15  C   UNL     1      -0.899   1.781   1.519  0.00  0.00    +0.106 A 
ATOM     16  C   UNL     1      -1.629   0.848   2.230  0.00  0.00    +0.034 A 
ENDBRANCH   1  15
BRANCH   1  17
ATOM     17  N   UNL     1      -1.066   1.493  -1.213  0.00  0.00    -0.169 NA
ATOM     18  C   UNL     1      -1.989   0.470  -1.737  0.00  0.00    +0.110 C 
ATOM     19  C   UNL     1      -2.242   0.877  -3.208  0.00  0.00    +0.019 C 
ATOM     20  C   UNL     1      -2.266   2.425  -3.105  0.00  0.00    +0.027 C 
ATOM     21  C   UNL     1      -1.213   2.716  -2.016  0.00  0.00    +0.110 C 
BRANCH  21  22
ATOM     22  C   UNL     1      -1.679   3.851  -1.141  0.00  0.00    -0.025 A 
ATOM     23  C   UNL     1      -2.635   3.623  -0.168  0.00  0.00    +0.009 A 
ATOM     24  C   UNL     1      -3.065   4.658   0.642  0.00  0.00    +0.050 A 
ATOM     25  C   UNL     1      -2.541   5.928   0.468  0.00  0.00    +0.162 A 
ATOM     26  C   UNL     1      -1.587   6.159  -0.512  0.00  0.00    +0.162 A 
ATOM     27  C   UNL     1      -1.154   5.119  -1.317  0.00  0.00    +0.054 A 
ATOM     28  O   UNL     1      -1.078   7.414  -0.676  0.00  0.00    -0.488 OA
ATOM     29  C   UNL     1      -0.255   7.899   0.387  0.00  0.00    +0.232 C 
ATOM     30  C   UNL     1      -1.104   8.508   1.492  0.00  0.00    +0.082 C 
ATOM     31  C   UNL     1      -1.993   7.479   2.172  0.00  0.00    +0.232 C 
ATOM     32  O   UNL     1      -2.960   6.960   1.257  0.00  0.00    -0.488 OA
ENDBRANCH  21  22
ENDBRANCH   1  17
TORSDOF 3
