REMARK  Name = ZINC13442583
REMARK  7 active torsions:
REMARK  status: ('A' for Active; 'I' for Inactive)
REMARK    1  A    between atoms: C_3  and  N_23
REMARK    2  A    between atoms: C_6  and  C_7
REMARK    3  A    between atoms: C_7  and  CA_8
REMARK    4  A    between atoms: CA_8  and  C_10
REMARK    5  A    between atoms: CA_8  and  N_13
REMARK    6  A    between atoms: C_17  and  N_20
REMARK    7  A    between atoms: C_24  and  C_26
REMARK                            x       y       z     vdW  Elec       q    Type
REMARK                         _______ _______ _______ _____ _____    ______ ____
ROOT
ATOM      1  C   UNL     1      -7.502   3.778   3.108  0.00  0.00    +0.005 A 
ATOM      2  C   UNL     1      -7.196   3.990   4.438  0.00  0.00    +0.023 A 
ATOM      3  C   UNL     1      -6.261   4.955   4.788  0.00  0.00    +0.034 A 
ATOM      4  C   UNL     1      -5.633   5.701   3.799  0.00  0.00    +0.023 A 
ATOM      5  C   UNL     1      -5.940   5.480   2.470  0.00  0.00    +0.005 A 
ATOM      6  C   UNL     1      -6.871   4.518   2.125  0.00  0.00    -0.045 A 
ENDROOT
BRANCH   3   7
ATOM      7  N   UNL     1      -5.952   5.176   6.134  0.00  0.00    -0.281 N 
ATOM      8  C   UNL     1      -5.971   4.149   7.006  0.00  0.00    +0.251 C 
ATOM      9  O   UNL     1      -6.162   3.017   6.609  0.00  0.00    -0.270 OA
ATOM     10  H   UNL     1      -5.693   6.187   6.480  0.00  0.00    +0.155 HD
BRANCH   8  11
ATOM     11  C   UNL     1      -5.759   4.400   8.449  0.00  0.00    +0.076 A 
ATOM     12  C   UNL     1      -6.838   4.676   9.298  0.00  0.00    +0.073 A 
ATOM     13  C   UNL     1      -6.594   4.899  10.641  0.00  0.00    +0.131 A 
ATOM     14  N   UNL     1      -5.367   4.865  11.121  0.00  0.00    -0.260 NA
ATOM     15  C   UNL     1      -4.323   4.615  10.357  0.00  0.00    +0.131 A 
ATOM     16  C   UNL     1      -4.474   4.375   9.003  0.00  0.00    +0.073 A 
ATOM     17 CL   UNL     1      -3.091   4.046   8.007  0.00  0.00    -0.081 Cl
ATOM     18 CL   UNL     1      -8.457   4.730   8.675  0.00  0.00    -0.081 Cl
ENDBRANCH   8  11
ENDBRANCH   3   7
BRANCH   6  19
ATOM     19  C   UNL     1      -7.203   4.280   0.674  0.00  0.00    +0.069 C 
BRANCH  19  20
ATOM     20  CA  UNL     1      -6.266   3.212   0.105  0.00  0.00    +0.190 C 
BRANCH  20  21
ATOM     21  N   UNL     1      -4.891   3.717   0.110  0.00  0.00    -0.316 N 
ATOM     22  C   UNL     1      -3.824   2.826   0.148  0.00  0.00    +0.119 A 
ATOM     23  C   UNL     1      -4.069   1.457   0.181  0.00  0.00    +0.046 A 
ATOM     24  C   UNL     1      -2.999   0.583   0.218  0.00  0.00    +0.037 A 
ATOM     25  C   UNL     1      -1.713   1.108   0.221  0.00  0.00    +0.144 A 
ATOM     26  C   UNL     1      -1.543   2.478   0.192  0.00  0.00    +0.145 A 
ATOM     27  N   UNL     1      -2.583   3.289   0.152  0.00  0.00    -0.238 NA
ATOM     28  H   UNL     1      -4.702   4.800   0.084  0.00  0.00    +0.148 HD
BRANCH  25  29
ATOM     29  N   UNL     1      -0.538   0.210   0.261  0.00  0.00    +0.058 N 
ATOM     30  O   UNL     1      -0.696  -0.998   0.291  0.00  0.00    -0.126 OA
ATOM     31  O   UNL     1       0.587   0.677   0.258  0.00  0.00    -0.126 OA
ENDBRANCH  25  29
ENDBRANCH  20  21
BRANCH  20  32
ATOM     32  C   UNL     1      -6.676   2.885  -1.308  0.00  0.00    +0.376 C 
ATOM     33  O   UNL     1      -5.899   3.056  -2.217  0.00  0.00    -0.244 OA
ATOM     34  OXT UNL     1      -7.905   2.404  -1.556  0.00  0.00    -0.244 OA
ENDBRANCH  20  32
ENDBRANCH  19  20
ENDBRANCH   6  19
TORSDOF 7
