REMARK  Name = ZINC14918815
REMARK  7 active torsions:
REMARK  status: ('A' for Active; 'I' for Inactive)
REMARK    1  A    between atoms: C_1  and  C_2
REMARK    2  A    between atoms: C_5  and  S_8
REMARK    3  A    between atoms: S_8  and  N_11
REMARK    4  A    between atoms: C_16  and  C_18
REMARK    5  A    between atoms: C_16  and  C_19
REMARK    6  A    between atoms: C_16  and  N_52
REMARK    7  A    between atoms: N_21  and  C_22
REMARK                            x       y       z     vdW  Elec       q    Type
REMARK                         _______ _______ _______ _____ _____    ______ ____
ROOT
ATOM      1  N   UNL     1       0.845  -2.358  -1.491  0.00  0.00    -0.180 NA
ATOM      2  C   UNL     1      -0.399  -2.579  -2.244  0.00  0.00    +0.091 C 
ATOM      3  C   UNL     1      -0.240  -1.942  -3.634  0.00  0.00    -0.060 C 
ATOM      4  C   UNL     1       2.177  -2.099  -3.517  0.00  0.00    -0.060 C 
ATOM      5  C   UNL     1       2.118  -2.736  -2.124  0.00  0.00    +0.091 C 
ATOM      6  N   UNL     1       0.971  -2.500  -4.274  0.00  0.00    +0.389 N 
ATOM      7  H   UNL     1       0.905  -3.525  -4.275  0.00  0.00    -0.081 HD
ENDROOT
BRANCH   1   8
ATOM      8  S   UNL     1       0.813  -1.708   0.032  0.00  0.00    +0.061 S 
ATOM      9  O   UNL     1       2.003  -2.134   0.680  0.00  0.00    -0.153 OA
ATOM     10  O   UNL     1      -0.479  -1.973   0.559  0.00  0.00    -0.153 OA
BRANCH   8  15
ATOM     11  C   UNL     1       1.230   4.281  -0.575  0.00  0.00    +0.044 C 
ATOM     12  C   UNL     1       1.126   2.785  -0.423  0.00  0.00    -0.050 A 
ATOM     13  C   UNL     1      -0.115   2.176  -0.412  0.00  0.00    +0.005 A 
ATOM     14  C   UNL     1      -0.210   0.804  -0.274  0.00  0.00    +0.029 A 
ATOM     15  C   UNL     1       0.935   0.041  -0.146  0.00  0.00    +0.105 A 
ATOM     16  C   UNL     1       2.176   0.650  -0.157  0.00  0.00    +0.029 A 
ATOM     17  C   UNL     1       2.272   2.022  -0.297  0.00  0.00    +0.005 A 
ENDBRANCH   8  15
ENDBRANCH   1   8
BRANCH   6  18
ATOM     18  C   UNL     1       1.070  -2.023  -5.669  0.00  0.00    +0.017 C 
ATOM     19  C   UNL     1       1.099  -0.494  -5.714  0.00  0.00    -0.004 C 
BRANCH  18  20
ATOM     20  C   UNL     1      -0.122  -2.526  -6.441  0.00  0.00    +0.203 C 
ATOM     21  O   UNL     1      -0.970  -3.191  -5.883  0.00  0.00    -0.277 OA
ATOM     22  N   UNL     1      -0.248  -2.237  -7.751  0.00  0.00    -0.287 N 
ATOM     23  H   UNL     1       0.388  -1.643  -8.180  0.00  0.00    +0.155 HD
BRANCH  22  24
ATOM     24  C   UNL     1      -1.295  -2.794  -8.494  0.00  0.00    +0.034 A 
ATOM     25  C   UNL     1      -1.869  -2.075  -9.534  0.00  0.00    +0.023 A 
ATOM     26  C   UNL     1      -2.902  -2.627 -10.266  0.00  0.00    +0.003 A 
ATOM     27  C   UNL     1      -3.365  -3.895  -9.964  0.00  0.00    +0.015 A 
ATOM     28  C   UNL     1      -2.795  -4.614  -8.928  0.00  0.00    +0.020 A 
ATOM     29  C   UNL     1      -1.758  -4.068  -8.195  0.00  0.00    +0.038 A 
ATOM     30 BR   UNL     1      -3.431  -6.347  -8.519  0.00  0.00    -0.050 Br
ENDBRANCH  22  24
ENDBRANCH  18  20
ENDBRANCH   6  18
TORSDOF 5
