REMARK  Name = ZINC31052287
REMARK  6 active torsions:
REMARK  status: ('A' for Active; 'I' for Inactive)
REMARK    1  A    between atoms: C_3  and  C_8
REMARK    2  A    between atoms: C_10  and  C_13
REMARK    3  A    between atoms: C_13  and  N_14
REMARK    4  A    between atoms: C_18  and  C_21
REMARK    5  A    between atoms: N_26  and  C_29
REMARK    6  A    between atoms: C_29  and  C_30
REMARK                            x       y       z     vdW  Elec       q    Type
REMARK                         _______ _______ _______ _____ _____    ______ ____
ROOT
ATOM      1  N   UNL     1      -1.031  -4.000  -1.512  0.00  0.00    +0.386 N 
ATOM      2  C   UNL     1      -2.079  -2.973  -1.563  0.00  0.00    -0.078 C 
ATOM      3  C   UNL     1      -2.840  -3.084  -2.886  0.00  0.00    -0.018 C 
ATOM      4  C   UNL     1      -3.461  -4.479  -2.996  0.00  0.00    +0.009 C 
ATOM      5  C   UNL     1      -2.354  -5.532  -2.891  0.00  0.00    +0.059 C 
ATOM      6  C   UNL     1      -1.607  -5.350  -1.568  0.00  0.00    -0.065 C 
ATOM      7  H   UNL     1      -0.392  -3.872  -2.397  0.00  0.00    -0.081 HD
ENDROOT
BRANCH   5   8
ATOM      8  C   UNL     1      -2.963  -6.910  -2.940  0.00  0.00    +0.217 C 
ATOM      9  O   UNL     1      -3.178  -7.514  -1.911  0.00  0.00    -0.275 OA
ATOM     10  N   UNL     1      -3.270  -7.470  -4.127  0.00  0.00    -0.299 N 
ATOM     11  C   UNL     1      -2.933  -6.794  -5.389  0.00  0.00    +0.123 C 
ATOM     12  C   UNL     1      -2.181  -7.792  -6.284  0.00  0.00    +0.103 C 
ATOM     13  N   UNL     1      -2.984  -9.014  -6.428  0.00  0.00    -0.295 NA
ATOM     14  C   UNL     1      -3.168  -9.687  -5.135  0.00  0.00    +0.103 C 
ATOM     15  C   UNL     1      -3.955  -8.769  -4.194  0.00  0.00    +0.123 C 
BRANCH  13  16
ATOM     16  C   UNL     1      -2.385  -9.924  -7.415  0.00  0.00    +0.119 C 
BRANCH  16  17
ATOM     17  C   UNL     1      -2.437  -9.288  -8.780  0.00  0.00    -0.030 A 
ATOM     18  C   UNL     1      -1.388  -8.499  -9.214  0.00  0.00    +0.009 A 
ATOM     19  C   UNL     1      -1.431  -7.914 -10.466  0.00  0.00    +0.050 A 
ATOM     20  C   UNL     1      -2.526  -8.118 -11.289  0.00  0.00    +0.166 A 
ATOM     21  C   UNL     1      -3.583  -8.914 -10.852  0.00  0.00    +0.167 A 
ATOM     22  C   UNL     1      -3.531  -9.501  -9.598  0.00  0.00    +0.054 A 
ATOM     23  O   UNL     1      -4.529  -8.959 -11.835  0.00  0.00    -0.453 OA
ATOM     24  C   UNL     1      -3.862  -8.521 -13.033  0.00  0.00    +0.466 C 
ATOM     25  O   UNL     1      -2.811  -7.666 -12.545  0.00  0.00    -0.453 OA
ENDBRANCH  16  17
ENDBRANCH  13  16
ENDBRANCH   5   8
BRANCH   1  26
ATOM     26  C   UNL     1      -0.190  -3.836  -0.318  0.00  0.00    +0.022 C 
BRANCH  26  29
ATOM     27  C   UNL     1       1.182  -0.514  -0.284  0.00  0.00    +0.202 A 
ATOM     28  N   UNL     1       0.180  -1.371   0.020  0.00  0.00    -0.193 NA
ATOM     29  C   UNL     1       0.574  -2.541  -0.416  0.00  0.00    +0.211 A 
ATOM     30  O   UNL     1       1.782  -2.372  -0.963  0.00  0.00    -0.340 OA
ATOM     31  N   UNL     1       2.113  -1.208  -0.885  0.00  0.00    -0.056 NA
BRANCH  27  34
ATOM     32  C   UNL     1       2.345   3.056  -0.096  0.00  0.00    +0.002 A 
ATOM     33  C   UNL     1       2.320   1.703  -0.367  0.00  0.00    +0.012 A 
ATOM     34  C   UNL     1       1.215   0.941   0.006  0.00  0.00    +0.024 A 
ATOM     35  C   UNL     1       0.138   1.551   0.646  0.00  0.00    +0.031 A 
ATOM     36  C   UNL     1       0.176   2.905   0.917  0.00  0.00    +0.042 A 
ATOM     37  C   UNL     1       1.277   3.657   0.544  0.00  0.00    +0.020 A 
ATOM     38 CL   UNL     1      -1.161   3.666   1.721  0.00  0.00    -0.084 Cl
ENDBRANCH  27  34
ENDBRANCH  26  29
ENDBRANCH   1  26
TORSDOF 6
