REMARK  Name = ZINC39696406
REMARK  10 active torsions:
REMARK  status: ('A' for Active; 'I' for Inactive)
REMARK    1  A    between atoms: C_1  and  C_2
REMARK    2  A    between atoms: C_2  and  C_3
REMARK    3  A    between atoms: C_2  and  C_4
REMARK    4  A    between atoms: C_2  and  S_5
REMARK    5  A    between atoms: S_5  and  C_6
REMARK    6  A    between atoms: C_6  and  C_7
REMARK    7  A    between atoms: C_7  and  N_8
REMARK    8  A    between atoms: C_9  and  C_11
REMARK    9  A    between atoms: C_22  and  C_24
REMARK   10  A    between atoms: C_28  and  C_30
REMARK                            x       y       z     vdW  Elec       q    Type
REMARK                         _______ _______ _______ _____ _____    ______ ____
ROOT
ATOM      1  C   UNL     1       6.531   0.899  -3.737  0.00  0.00    +0.100 C 
ATOM      2  C   UNL     1       6.736   2.427  -3.630  0.00  0.00    +0.121 C 
ATOM      3  N   UNL     1       7.999   2.687  -4.361  0.00  0.00    -0.296 N 
ATOM      4  C   UNL     1       7.938   1.784  -5.535  0.00  0.00    +0.115 C 
ATOM      5  C   UNL     1       7.320   0.481  -4.989  0.00  0.00    -0.004 C 
ATOM      6  C   UNL     1       6.383  -0.132  -6.024  0.00  0.00    -0.010 C 
ATOM      7  C   UNL     1       7.199  -0.594  -7.235  0.00  0.00    -0.082 C 
ATOM      8  N   UNL     1       8.200  -1.578  -6.807  0.00  0.00    +0.379 N 
ATOM      9  C   UNL     1       9.153  -0.954  -5.882  0.00  0.00    -0.082 C 
ATOM     10  C   UNL     1       8.420  -0.508  -4.614  0.00  0.00    -0.010 C 
ATOM     11  C   UNL     1       8.981   3.550  -4.032  0.00  0.00    +0.247 C 
ATOM     12  O   UNL     1       8.947   4.132  -2.965  0.00  0.00    -0.270 OA
ATOM     13  H   UNL     1       7.737  -2.346  -6.343  0.00  0.00    -0.086 HD
ATOM     14  H   UNL     1       8.695  -1.926  -7.615  0.00  0.00    -0.086 HD
ENDROOT
BRANCH  11  15
ATOM     15  C   UNL     1      10.099   3.788  -4.968  0.00  0.00    +0.038 A 
ATOM     16  C   UNL     1       9.952   3.490  -6.325  0.00  0.00    +0.016 A 
ATOM     17  C   UNL     1      10.998   3.714  -7.194  0.00  0.00    +0.039 A 
ATOM     18  C   UNL     1      12.195   4.234  -6.723  0.00  0.00    +0.135 A 
ATOM     19  C   UNL     1      12.345   4.531  -5.377  0.00  0.00    +0.091 A 
ATOM     20  C   UNL     1      11.303   4.316  -4.500  0.00  0.00    +0.028 A 
ATOM     21  F   UNL     1      13.217   4.451  -7.579  0.00  0.00    -0.205 F 
BRANCH  19  22
ATOM     22  C   UNL     1      13.649   5.095  -4.873  0.00  0.00    +0.420 C 
ATOM     23  F   UNL     1      13.561   5.311  -3.493  0.00  0.00    -0.166 F 
ATOM     24  F   UNL     1      14.682   4.190  -5.138  0.00  0.00    -0.166 F 
ATOM     25  F   UNL     1      13.913   6.307  -5.519  0.00  0.00    -0.166 F 
ENDBRANCH  19  22
ENDBRANCH  11  15
BRANCH   1  27
ATOM     26  N   UNL     1       4.575  -0.586  -3.435  0.00  0.00    -0.314 N 
ATOM     27  C   UNL     1       5.069   0.577  -3.907  0.00  0.00    +0.218 C 
ATOM     28  O   UNL     1       4.335   1.363  -4.468  0.00  0.00    -0.275 OA
ATOM     29  H   UNL     1       5.162  -1.214  -2.986  0.00  0.00    +0.149 HD
BRANCH  26  30
ATOM     30  C   UNL     1       3.154  -0.899  -3.600  0.00  0.00    +0.115 C 
BRANCH  30  31
ATOM     31  C   UNL     1       2.858  -2.266  -2.981  0.00  0.00    +0.088 C 
BRANCH  31  32
ATOM     32  S   UNL     1       1.098  -2.654  -3.186  0.00  0.00    -0.153 S 
BRANCH  32  34
ATOM     33  C   UNL     1       1.318  -4.195  -0.936  0.00  0.00    +0.022 C 
ATOM     34  C   UNL     1       0.914  -4.284  -2.410  0.00  0.00    +0.008 C 
ATOM     35  C   UNL     1       1.814  -5.293  -3.125  0.00  0.00    +0.022 C 
ATOM     36  C   UNL     1      -0.543  -4.737  -2.513  0.00  0.00    +0.022 C 
ENDBRANCH  32  34
ENDBRANCH  31  32
ENDBRANCH  30  31
ENDBRANCH  26  30
ENDBRANCH   1  27
TORSDOF 7
