REMARK  Name = ZINC63844620
REMARK  8 active torsions:
REMARK  status: ('A' for Active; 'I' for Inactive)
REMARK    1  A    between atoms: C_1  and  C_2
REMARK    2  A    between atoms: C_2  and  C_3
REMARK    3  A    between atoms: C_2  and  C_4
REMARK    4  A    between atoms: C_19  and  C_21
REMARK    5  A    between atoms: C_21  and  C_22
REMARK    6  A    between atoms: C_22  and  N_23
REMARK    7  A    between atoms: N_23  and  S_24
REMARK    8  A    between atoms: S_24  and  C_27
REMARK                            x       y       z     vdW  Elec       q    Type
REMARK                         _______ _______ _______ _____ _____    ______ ____
ROOT
ATOM      1  C   UNL     1      -1.359  -0.196  -0.207  0.00  0.00    +0.105 C 
ATOM      2  C   UNL     1      -1.559  -1.703  -0.408  0.00  0.00    +0.127 C 
ATOM      3  C   UNL     1      -3.061  -1.950  -0.375  0.00  0.00    -0.035 C 
ATOM      4  C   UNL     1      -3.365  -2.563  -1.513  0.00  0.00    -0.001 A 
ATOM      5  C   UNL     1      -4.633  -3.111  -2.022  0.00  0.00    +0.010 A 
ATOM      6  C   UNL     1      -4.589  -3.673  -3.259  0.00  0.00    +0.001 A 
ATOM      7  C   UNL     1      -3.426  -3.742  -4.032  0.00  0.00    +0.002 A 
ATOM      8  C   UNL     1      -2.216  -3.268  -3.641  0.00  0.00    +0.026 A 
ATOM      9  C   UNL     1      -2.134  -2.658  -2.355  0.00  0.00    +0.043 A 
ATOM     10  N   UNL     1      -1.094  -2.143  -1.724  0.00  0.00    -0.376 N 
ATOM     11  C   UNL     1      -3.938  -1.470   0.756  0.00  0.00    +0.052 C 
ATOM     12  C   UNL     1      -3.619   0.023   0.959  0.00  0.00    +0.112 C 
ATOM     13  N   UNL     1      -2.165   0.216   0.952  0.00  0.00    -0.296 N 
ATOM     14  C   UNL     1      -1.561   0.776   2.019  0.00  0.00    +0.217 C 
ATOM     15  O   UNL     1      -0.352   0.850   2.062  0.00  0.00    -0.276 OA
ATOM     16  H   UNL     1      -0.189  -2.061  -2.063  0.00  0.00    +0.160 HD
ENDROOT
BRANCH   1  18
ATOM     17  C   UNL     1       0.655  -0.879   1.103  0.00  0.00    +0.009 C 
ATOM     18  C   UNL     1       0.118   0.100   0.057  0.00  0.00    +0.006 C 
ATOM     19  C   UNL     1       0.910  -0.058  -1.242  0.00  0.00    +0.009 C 
ENDBRANCH   1  18
BRANCH  14  20
ATOM     20  C   UNL     1      -2.390   1.310   3.160  0.00  0.00    +0.113 C 
BRANCH  20  21
ATOM     21  C   UNL     1      -1.466   1.887   4.234  0.00  0.00    +0.114 C 
BRANCH  21  22
ATOM     22  N   UNL     1      -2.271   2.406   5.343  0.00  0.00    -0.194 NA
ATOM     23  H   UNL     1      -3.223   2.549   5.226  0.00  0.00    +0.148 HD
BRANCH  22  24
ATOM     24  S   UNL     1      -1.555   2.748   6.797  0.00  0.00    +0.027 S 
ATOM     25  O   UNL     1      -2.618   3.198   7.627  0.00  0.00    -0.158 OA
ATOM     26  O   UNL     1      -0.825   1.575   7.127  0.00  0.00    -0.158 OA
ATOM     27  C   UNL     1      -0.416   4.115   6.445  0.00  0.00    +0.214 C 
ENDBRANCH  22  24
ENDBRANCH  21  22
ENDBRANCH  20  21
ENDBRANCH  14  20
TORSDOF 5
