REMARK  Name = ZINC25186508
REMARK  8 active torsions:
REMARK  status: ('A' for Active; 'I' for Inactive)
REMARK    1  A    between atoms: C_1  and  C_2
REMARK    2  A    between atoms: C_2  and  N_3
REMARK    3  A    between atoms: N_6  and  C_9
REMARK    4  A    between atoms: C_12  and  N_16
REMARK    5  A    between atoms: C_13  and  C_15
REMARK    6  A    between atoms: C_17  and  C_19
REMARK    7  A    between atoms: N_22  and  S_25
REMARK    8  A    between atoms: S_25  and  C_28
REMARK                            x       y       z     vdW  Elec       q    Type
REMARK                         _______ _______ _______ _____ _____    ______ ____
ROOT
ATOM      1  N   UNL     1      -3.226   5.069  -5.798  0.00  0.00    -0.285 N 
ATOM      2  C   UNL     1      -4.094   4.306  -6.491  0.00  0.00    +0.220 C 
ATOM      3  O   UNL     1      -4.418   3.217  -6.065  0.00  0.00    -0.275 OA
ATOM      4  H   UNL     1      -3.001   6.092  -6.136  0.00  0.00    +0.155 HD
ENDROOT
BRANCH   1   8
ATOM      5  C   UNL     1      -1.390   3.554  -2.373  0.00  0.00    +0.030 A 
ATOM      6  C   UNL     1      -1.845   2.687  -3.358  0.00  0.00    +0.025 A 
ATOM      7  C   UNL     1      -2.458   3.189  -4.489  0.00  0.00    +0.025 A 
ATOM      8  C   UNL     1      -2.609   4.560  -4.647  0.00  0.00    +0.036 A 
ATOM      9  C   UNL     1      -2.149   5.427  -3.665  0.00  0.00    -0.028 A 
ATOM     10  C   UNL     1      -1.541   4.926  -2.531  0.00  0.00    +0.028 A 
ATOM     11  C   UNL     1      -2.314   6.915  -3.836  0.00  0.00    +0.046 C 
BRANCH   5  15
ATOM     12  N   UNL     1      -0.650   1.534   1.185  0.00  0.00    +0.382 N 
ATOM     13  C   UNL     1       0.032   1.067  -0.030  0.00  0.00    -0.060 C 
ATOM     14  C   UNL     1      -0.718   1.578  -1.262  0.00  0.00    +0.086 C 
ATOM     15  N   UNL     1      -0.773   3.046  -1.225  0.00  0.00    -0.333 N 
ATOM     16  C   UNL     1      -1.456   3.513  -0.010  0.00  0.00    +0.086 C 
ATOM     17  C   UNL     1      -0.707   3.002   1.222  0.00  0.00    -0.060 C 
ATOM     18  H   UNL     1      -1.683   1.155   1.161  0.00  0.00    -0.082 HD
BRANCH  12  20
ATOM     19  C   UNL     1      -0.575   1.697   3.627  0.00  0.00    -0.017 C 
ATOM     20  C   UNL     1      -0.003   1.000   2.390  0.00  0.00    -0.082 C 
ENDBRANCH  12  20
ENDBRANCH   5  15
ENDBRANCH   1   8
BRANCH   2  21
ATOM     21  C   UNL     1      -4.662   4.805  -7.795  0.00  0.00    +0.078 C 
ATOM     22  C   UNL     1      -5.425   6.109  -7.552  0.00  0.00    +0.030 C 
ATOM     23  C   UNL     1      -5.971   6.631  -8.885  0.00  0.00    +0.110 C 
ATOM     24  N   UNL     1      -6.771   5.572  -9.516  0.00  0.00    -0.177 NA
ATOM     25  C   UNL     1      -6.161   4.250  -9.714  0.00  0.00    +0.110 C 
ATOM     26  C   UNL     1      -5.613   3.754  -8.372  0.00  0.00    +0.030 C 
BRANCH  24  27
ATOM     27  S   UNL     1      -8.329   5.864  -9.996  0.00  0.00    +0.061 S 
ATOM     28  O   UNL     1      -8.435   7.266 -10.201  0.00  0.00    -0.153 OA
ATOM     29  O   UNL     1      -8.622   4.920 -11.018  0.00  0.00    -0.153 OA
BRANCH  27  30
ATOM     30  C   UNL     1      -9.375   5.473  -8.634  0.00  0.00    +0.106 A 
ATOM     31  C   UNL     1      -9.880   4.193  -8.496  0.00  0.00    +0.031 A 
ATOM     32  C   UNL     1     -10.697   3.884  -7.425  0.00  0.00    +0.040 A 
ATOM     33  C   UNL     1     -11.019   4.859  -6.496  0.00  0.00    +0.124 A 
ATOM     34  C   UNL     1     -10.517   6.142  -6.638  0.00  0.00    +0.040 A 
ATOM     35  C   UNL     1      -9.696   6.447  -7.707  0.00  0.00    +0.031 A 
ATOM     36  F   UNL     1     -11.822   4.560  -5.452  0.00  0.00    -0.205 F 
ENDBRANCH  27  30
ENDBRANCH  24  27
ENDBRANCH   2  21
TORSDOF 6
