REMARK  Name = ZINC32998113
REMARK  6 active torsions:
REMARK  status: ('A' for Active; 'I' for Inactive)
REMARK    1  A    between atoms: C_1  and  C_2
REMARK    2  A    between atoms: C_2  and  C_3
REMARK    3  A    between atoms: C_15  and  S_18
REMARK    4  A    between atoms: S_18  and  C_19
REMARK    5  A    between atoms: C_21  and  C_23
REMARK    6  A    between atoms: C_26  and  C_29
REMARK                            x       y       z     vdW  Elec       q    Type
REMARK                         _______ _______ _______ _____ _____    ______ ____
ROOT
ATOM      1  C   UNL     1      -0.774   1.609  -1.208  0.00  0.00    +0.223 C 
ATOM      2  O   UNL     1      -1.776   2.286  -1.104  0.00  0.00    -0.275 OA
ATOM      3  N   UNL     1      -0.302   1.288  -2.429  0.00  0.00    -0.230 N 
ATOM      4  C   UNL     1       0.853   0.507  -2.565  0.00  0.00    +0.050 A 
ATOM      5  C   UNL     1       2.098   0.996  -2.214  0.00  0.00    +0.026 A 
ATOM      6  C   UNL     1       3.220   0.204  -2.377  0.00  0.00    +0.022 A 
ATOM      7  C   UNL     1       3.106  -1.077  -2.892  0.00  0.00    +0.042 A 
ATOM      8  C   UNL     1       1.867  -1.581  -3.241  0.00  0.00    +0.032 A 
ATOM      9  C   UNL     1       0.731  -0.799  -3.074  0.00  0.00    +0.030 A 
ATOM     10  C   UNL     1      -0.615  -1.306  -3.410  0.00  0.00    +0.156 A 
ATOM     11  C   UNL     1      -1.494  -0.506  -4.176  0.00  0.00    +0.248 A 
ATOM     12  N   UNL     1      -2.697  -0.975  -4.459  0.00  0.00    -0.184 NA
ATOM     13  C   UNL     1      -3.044  -2.182  -4.022  0.00  0.00    +0.212 A 
ATOM     14  N   UNL     1      -2.203  -2.920  -3.308  0.00  0.00    -0.122 NA
ATOM     15  N   UNL     1      -1.022  -2.500  -3.007  0.00  0.00    -0.141 NA
ATOM     16  O   UNL     1      -1.093   0.714  -4.607  0.00  0.00    -0.448 OA
ATOM     17  C   UNL     1      -0.987   1.743  -3.635  0.00  0.00    +0.303 C 
ATOM     18 CL   UNL     1       4.525  -2.054  -3.098  0.00  0.00    -0.084 Cl
ENDROOT
BRANCH  17  19
ATOM     19  C   UNL     1      -0.220   2.896  -4.230  0.00  0.00    +0.012 A 
ATOM     20  C   UNL     1       0.346   3.848  -3.401  0.00  0.00    +0.010 A 
ATOM     21  C   UNL     1       1.054   4.903  -3.939  0.00  0.00    +0.019 A 
ATOM     22  C   UNL     1       1.189   5.015  -5.324  0.00  0.00    +0.052 A 
ATOM     23  C   UNL     1       0.610   4.053  -6.155  0.00  0.00    +0.019 A 
ATOM     24  C   UNL     1      -0.090   3.001  -5.604  0.00  0.00    +0.010 A 
BRANCH  22  25
ATOM     25  C   UNL     1       1.917   6.110  -5.889  0.00  0.00    +0.099 C 
ATOM     26  N   UNL     1       2.495   6.979  -6.338  0.00  0.00    -0.191 NA
ENDBRANCH  22  25
ENDBRANCH  17  19
BRANCH   1  28
ATOM     27  C   UNL     1      -0.797   1.627   1.271  0.00  0.00    +0.013 C 
ATOM     28  C   UNL     1      -0.059   1.127   0.027  0.00  0.00    +0.093 C 
ENDBRANCH   1  28
BRANCH  13  29
ATOM     29  S   UNL     1      -4.647  -2.812  -4.396  0.00  0.00    -0.088 S 
ATOM     30  C   UNL     1      -4.551  -4.422  -3.575  0.00  0.00    +0.093 C 
ENDBRANCH  13  29
TORSDOF 4
