REMARK  Name = ZINC64816401
REMARK  8 active torsions:
REMARK  status: ('A' for Active; 'I' for Inactive)
REMARK    1  A    between atoms: C_1  and  C_2
REMARK    2  A    between atoms: C_5  and  N_9
REMARK    3  A    between atoms: C_6  and  C_8
REMARK    4  A    between atoms: C_14  and  C_31
REMARK    5  A    between atoms: C_18  and  C_19
REMARK    6  A    between atoms: C_18  and  C_20
REMARK    7  A    between atoms: N_22  and  C_23
REMARK    8  A    between atoms: C_23  and  C_24
REMARK                            x       y       z     vdW  Elec       q    Type
REMARK                         _______ _______ _______ _____ _____    ______ ____
ROOT
ATOM      1  N   UNL     1       0.142  -4.165  -0.241  0.00  0.00    -0.250 N 
ATOM      2  C   UNL     1      -1.056  -4.794  -0.291  0.00  0.00    +0.270 C 
ATOM      3  O   UNL     1      -2.066  -4.223  -0.654  0.00  0.00    -0.268 OA
ATOM      4  C   UNL     1      -1.068  -6.208   0.119  0.00  0.00    +0.125 A 
ATOM      5  C   UNL     1      -2.035  -7.165   0.023  0.00  0.00    +0.065 A 
ATOM      6  C   UNL     1      -1.452  -8.330   0.571  0.00  0.00    +0.128 A 
ATOM      7  N   UNL     1      -0.224  -8.020   0.952  0.00  0.00    -0.167 NA
ATOM      8  N   UNL     1       0.028  -6.792   0.715  0.00  0.00    -0.256 N 
ATOM      9  C   UNL     1       1.241  -6.016   1.002  0.00  0.00    +0.179 C 
ATOM     10  C   UNL     1       1.385  -4.903  -0.041  0.00  0.00    +0.135 C 
ATOM     11  C   UNL     1       1.814  -5.519  -1.373  0.00  0.00    +0.044 C 
ENDROOT
BRANCH   1  16
ATOM     12  C   UNL     1       0.337   1.472  -0.850  0.00  0.00    +0.044 C 
ATOM     13  C   UNL     1       0.285  -0.026  -0.689  0.00  0.00    -0.050 A 
ATOM     14  C   UNL     1       0.472  -0.845  -1.787  0.00  0.00    +0.005 A 
ATOM     15  C   UNL     1       0.426  -2.218  -1.642  0.00  0.00    +0.024 A 
ATOM     16  C   UNL     1       0.191  -2.775  -0.391  0.00  0.00    +0.041 A 
ATOM     17  C   UNL     1       0.003  -1.949   0.709  0.00  0.00    -0.029 A 
ATOM     18  C   UNL     1       0.056  -0.577   0.558  0.00  0.00    +0.008 A 
ATOM     19  C   UNL     1      -0.253  -2.550   2.068  0.00  0.00    +0.045 C 
ENDBRANCH   1  16
BRANCH   6  20
ATOM     20  C   UNL     1      -2.097  -9.655   0.695  0.00  0.00    +0.155 A 
ATOM     21  C   UNL     1      -1.532 -10.770   1.227  0.00  0.00    +0.051 A 
ATOM     22  C   UNL     1      -2.497 -11.794   1.143  0.00  0.00    +0.042 A 
ATOM     23  C   UNL     1      -3.592 -11.258   0.570  0.00  0.00    +0.196 A 
ATOM     24  O   UNL     1      -3.348  -9.964   0.305  0.00  0.00    -0.461 OA
ENDBRANCH   6  20
BRANCH  10  25
ATOM     25  C   UNL     1       2.453  -3.943   0.416  0.00  0.00    +0.239 C 
ATOM     26  O   UNL     1       2.810  -3.939   1.575  0.00  0.00    -0.273 OA
ATOM     27  N   UNL     1       3.013  -3.090  -0.465  0.00  0.00    -0.309 N 
ATOM     28  H   UNL     1       2.787  -3.147  -1.406  0.00  0.00    +0.149 HD
BRANCH  27  29
ATOM     29  C   UNL     1       3.963  -2.076   0.001  0.00  0.00    +0.139 C 
BRANCH  29  30
ATOM     30  C   UNL     1       4.370  -1.201  -1.157  0.00  0.00    -0.028 A 
ATOM     31  C   UNL     1       5.385  -1.603  -2.004  0.00  0.00    +0.005 A 
ATOM     32  C   UNL     1       5.760  -0.801  -3.066  0.00  0.00    +0.003 A 
ATOM     33  C   UNL     1       5.119   0.405  -3.281  0.00  0.00    +0.038 A 
ATOM     34  C   UNL     1       4.102   0.809  -2.433  0.00  0.00    +0.124 A 
ATOM     35  C   UNL     1       3.724   0.002  -1.373  0.00  0.00    +0.043 A 
ATOM     36  F   UNL     1       3.476   1.988  -2.642  0.00  0.00    -0.205 F 
ENDBRANCH  29  30
ENDBRANCH  27  29
ENDBRANCH  10  25
TORSDOF 5
