REMARK  Name = ZINC58986299
REMARK  7 active torsions:
REMARK  status: ('A' for Active; 'I' for Inactive)
REMARK    1  A    between atoms: C_2  and  C_10
REMARK    2  A    between atoms: C_5  and  O_8
REMARK    3  A    between atoms: N_11  and  N_12
REMARK    4  A    between atoms: C_13  and  C_15
REMARK    5  A    between atoms: C_15  and  S_16
REMARK    6  A    between atoms: S_16  and  C_17
REMARK    7  A    between atoms: C_21  and  N_23
REMARK                            x       y       z     vdW  Elec       q    Type
REMARK                         _______ _______ _______ _____ _____    ______ ____
ROOT
ATOM      1  N   UNL     1       2.273   5.623   0.010  0.00  0.00    -0.206 N 
ATOM      2  C   UNL     1       3.433   6.309   0.002  0.00  0.00    +0.242 C 
ATOM      3  O   UNL     1       4.490   5.713  -0.011  0.00  0.00    -0.273 OA
ATOM      4  H   UNL     1       1.428   6.100   0.020  0.00  0.00    +0.177 HD
ENDROOT
BRANCH   1   6
ATOM      5  C   UNL     1       1.170   3.562   0.009  0.00  0.00    +0.138 C 
ATOM      6  N   UNL     1       2.287   4.222   0.002  0.00  0.00    -0.188 NA
BRANCH   5   8
ATOM      7  C   UNL     1      -0.017   1.375   0.010  0.00  0.00    +0.028 A 
ATOM      8  C   UNL     1       1.185   2.088   0.002  0.00  0.00    -0.003 A 
ATOM      9  C   UNL     1       2.401   1.400  -0.013  0.00  0.00    +0.028 A 
ATOM     10  C   UNL     1       2.411   0.021  -0.021  0.00  0.00    +0.061 A 
ATOM     11  C   UNL     1       1.214  -0.684  -0.013  0.00  0.00    +0.145 A 
ATOM     12  C   UNL     1       0.002  -0.004   0.002  0.00  0.00    +0.061 A 
ATOM     13 BR   UNL     1      -1.623  -0.970   0.013  0.00  0.00    -0.046 Br
ATOM     14 BR   UNL     1       4.056  -0.912  -0.042  0.00  0.00    -0.046 Br
BRANCH  11  15
ATOM     15  O   UNL     1       1.227  -2.043  -0.021  0.00  0.00    -0.505 OA
ATOM     16  H   UNL     1       1.240  -2.441   0.861  0.00  0.00    +0.292 HD
ENDBRANCH  11  15
ENDBRANCH   5   8
ENDBRANCH   1   6
BRANCH   2  17
ATOM     17  C   UNL     1       3.417   7.816   0.010  0.00  0.00    +0.174 C 
BRANCH  17  18
ATOM     18  S   UNL     1       5.121   8.438  -0.003  0.00  0.00    -0.077 S 
BRANCH  18  19
ATOM     19  C   UNL     1       4.935  10.190   0.008  0.00  0.00    +0.192 A 
ATOM     20  N   UNL     1       3.717  10.710   0.027  0.00  0.00    -0.207 NA
ATOM     21  C   UNL     1       3.538  12.029   0.036  0.00  0.00    +0.122 A 
ATOM     22  C   UNL     1       4.652  12.863   0.025  0.00  0.00    +0.086 A 
ATOM     23  C   UNL     1       5.916  12.281   0.004  0.00  0.00    +0.122 A 
ATOM     24  N   UNL     1       6.018  10.954   0.002  0.00  0.00    -0.207 NA
ATOM     25  N   UNL     1       2.259  12.564   0.056  0.00  0.00    -0.343 N 
ATOM     26  H   UNL     1       1.488  11.977   0.064  0.00  0.00    +0.144 HD
ATOM     27  H   UNL     1       2.136  13.526   0.063  0.00  0.00    +0.144 HD
BRANCH  23  28
ATOM     28  N   UNL     1       7.053  13.073  -0.008  0.00  0.00    -0.343 N 
ATOM     29  H   UNL     1       6.972  14.040  -0.002  0.00  0.00    +0.144 HD
ATOM     30  H   UNL     1       7.931  12.661  -0.022  0.00  0.00    +0.144 HD
ENDBRANCH  23  28
ENDBRANCH  18  19
ENDBRANCH  17  18
ENDBRANCH   2  17
TORSDOF 7
