REMARK  Name = ZINC09376171
REMARK  7 active torsions:
REMARK  status: ('A' for Active; 'I' for Inactive)
REMARK    1  A    between atoms: C_1  and  C_2
REMARK    2  A    between atoms: C_5  and  N_8
REMARK    3  A    between atoms: C_9  and  C_11
REMARK    4  A    between atoms: C_11  and  C_12
REMARK    5  A    between atoms: C_14  and  C_17
REMARK    6  A    between atoms: C_17  and  N_54
REMARK    7  A    between atoms: C_26  and  C_28
REMARK                            x       y       z     vdW  Elec       q    Type
REMARK                         _______ _______ _______ _____ _____    ______ ____
ROOT
ATOM      1  C   UNL     1      -5.569  -0.194  -0.441  0.00  0.00    +0.087 A 
ATOM      2  N   UNL     1      -4.427   0.453  -0.411  0.00  0.00    -0.250 NA
ATOM      3  C   UNL     1      -3.460   0.103   0.411  0.00  0.00    +0.032 A 
ATOM      4  C   UNL     1      -3.666  -0.956   1.235  0.00  0.00    +0.068 A 
ATOM      5  S   UNL     1      -5.329  -1.415   0.770  0.00  0.00    -0.080 S 
ENDROOT
BRANCH   1   6
ATOM      6  C   UNL     1      -6.777   0.058  -1.305  0.00  0.00    +0.159 C 
BRANCH   6   8
ATOM      7  N   UNL     1      -7.629  -0.667  -3.512  0.00  0.00    -0.285 N 
ATOM      8  C   UNL     1      -6.657  -0.736  -2.581  0.00  0.00    +0.224 C 
ATOM      9  O   UNL     1      -5.686  -1.437  -2.769  0.00  0.00    -0.275 OA
ATOM     10  H   UNL     1      -8.375  -0.058  -3.390  0.00  0.00    +0.155 HD
BRANCH   7  15
ATOM     11  C   UNL     1      -7.362  -3.936  -8.140  0.00  0.00    +0.044 C 
ATOM     12  C   UNL     1      -7.433  -3.068  -6.911  0.00  0.00    -0.050 A 
ATOM     13  C   UNL     1      -6.958  -3.543  -5.702  0.00  0.00    +0.005 A 
ATOM     14  C   UNL     1      -7.021  -2.749  -4.574  0.00  0.00    +0.023 A 
ATOM     15  C   UNL     1      -7.563  -1.473  -4.653  0.00  0.00    +0.033 A 
ATOM     16  C   UNL     1      -8.044  -1.001  -5.867  0.00  0.00    +0.023 A 
ATOM     17  C   UNL     1      -7.973  -1.798  -6.994  0.00  0.00    +0.005 A 
ENDBRANCH   7  15
ENDBRANCH   6   8
ENDBRANCH   1   6
BRANCH   3  18
ATOM     18  C   UNL     1      -2.155   0.857   0.433  0.00  0.00    -0.020 C 
BRANCH  18  28
ATOM     19  C   UNL     1      -1.812   0.569  -1.944  0.00  0.00    -0.041 C 
ATOM     20  C   UNL     1      -0.940  -0.068  -2.995  0.00  0.00    -0.061 A 
ATOM     21  C   UNL     1      -1.078   0.353  -4.310  0.00  0.00    +0.002 A 
ATOM     22  C   UNL     1      -0.303  -0.206  -5.306  0.00  0.00    +0.000 A 
ATOM     23  C   UNL     1       0.616  -1.191  -4.993  0.00  0.00    +0.000 A 
ATOM     24  C   UNL     1       0.755  -1.609  -3.685  0.00  0.00    +0.004 A 
ATOM     25  C   UNL     1      -0.022  -1.047  -2.683  0.00  0.00    -0.047 A 
ATOM     26  C   UNL     1       0.167  -1.533  -1.269  0.00  0.00    +0.029 C 
ATOM     27  C   UNL     1      -1.027  -1.116  -0.410  0.00  0.00    +0.024 C 
ATOM     28  N   UNL     1      -1.242   0.332  -0.607  0.00  0.00    +0.394 N 
ATOM     29  H   UNL     1      -0.340   0.817  -0.536  0.00  0.00    -0.080 HD
BRANCH  27  30
ATOM     30  C   UNL     1      -0.726  -1.386   1.042  0.00  0.00    +0.197 C 
ATOM     31  O   UNL     1      -0.093  -0.579   1.690  0.00  0.00    -0.278 OA
ATOM     32  N   UNL     1      -1.154  -2.526   1.619  0.00  0.00    -0.331 N 
ATOM     33  H   UNL     1      -1.657  -3.173   1.099  0.00  0.00    +0.145 HD
ATOM     34  H   UNL     1      -0.960  -2.700   2.553  0.00  0.00    +0.145 HD
ENDBRANCH  27  30
ENDBRANCH  18  28
ENDBRANCH   3  18
TORSDOF 6
