REMARK  Name = ZINC64470744
REMARK  3 active torsions:
REMARK  status: ('A' for Active; 'I' for Inactive)
REMARK    1  A    between atoms: C_3  and  N_9
REMARK    2  A    between atoms: N_9  and  S_10
REMARK    3  A    between atoms: S_10  and  C_13
REMARK                            x       y       z     vdW  Elec       q    Type
REMARK                         _______ _______ _______ _____ _____    ______ ____
ROOT
ATOM      1  S   UNL     1       3.667   3.616   0.703  0.00  0.00    +0.072 S 
ATOM      2  O   UNL     1       4.971   4.120   0.449  0.00  0.00    -0.150 OA
ATOM      3  O   UNL     1       2.492   4.319   0.322  0.00  0.00    -0.150 OA
ENDROOT
BRANCH   1   4
ATOM      4  C   UNL     1       3.556   3.356   2.442  0.00  0.00    +0.110 A 
ATOM      5  C   UNL     1       2.242   3.349   3.073  0.00  0.00    +0.031 A 
ATOM      6  C   UNL     1       2.087   3.154   4.401  0.00  0.00    +0.027 A 
ATOM      7  C   UNL     1       3.264   2.945   5.241  0.00  0.00    +0.056 A 
ATOM      8  N   UNL     1       3.462   2.734   6.518  0.00  0.00    -0.268 N 
ATOM      9  C   UNL     1       4.814   2.609   6.734  0.00  0.00    +0.308 C 
ATOM     10  O   UNL     1       5.333   2.408   7.811  0.00  0.00    -0.252 OA
ATOM     11  N   UNL     1       5.490   2.747   5.544  0.00  0.00    -0.267 N 
ATOM     12  C   UNL     1       4.614   2.953   4.593  0.00  0.00    +0.058 A 
ATOM     13  C   UNL     1       4.691   3.165   3.149  0.00  0.00    +0.054 A 
ATOM     14  H   UNL     1       6.452   2.699   5.429  0.00  0.00    +0.156 HD
ATOM     15  H   UNL     1       2.772   2.677   7.197  0.00  0.00    +0.156 HD
ENDBRANCH   1   4
BRANCH   1  16
ATOM     16  N   UNL     1       3.584   2.129  -0.021  0.00  0.00    -0.213 N 
ATOM     17  H   UNL     1       4.321   1.814  -0.567  0.00  0.00    +0.174 HD
BRANCH  16  20
ATOM     18  C   UNL     1       0.076   1.116   0.417  0.00  0.00    +0.040 A 
ATOM     19  C   UNL     1       1.194   1.910   0.244  0.00  0.00    +0.030 A 
ATOM     20  C   UNL     1       2.450   1.327   0.155  0.00  0.00    +0.083 A 
ATOM     21  C   UNL     1       2.581  -0.055   0.241  0.00  0.00    +0.148 A 
ATOM     22  C   UNL     1       1.459  -0.844   0.414  0.00  0.00    +0.078 A 
ATOM     23  C   UNL     1       0.207  -0.259   0.502  0.00  0.00    +0.126 A 
ATOM     24  F   UNL     1      -0.888  -1.032   0.672  0.00  0.00    -0.205 F 
ATOM     25  F   UNL     1       3.803  -0.625   0.154  0.00  0.00    -0.203 F 
ENDBRANCH  16  20
ENDBRANCH   1  16
TORSDOF 3
