REMARK  Name = ZINC08809547
REMARK  5 active torsions:
REMARK  status: ('A' for Active; 'I' for Inactive)
REMARK    1  A    between atoms: N_15  and  C_16
REMARK    2  A    between atoms: C_16  and  C_17
REMARK    3  A    between atoms: N_19  and  N_20
REMARK    4  A    between atoms: C_21  and  C_22
REMARK    5  A    between atoms: C_25  and  C_27
REMARK                            x       y       z     vdW  Elec       q    Type
REMARK                         _______ _______ _______ _____ _____    ______ ____
ROOT
ATOM      1  C   UNL     1      -4.099   2.747   1.478  0.00  0.00    +0.252 C 
ATOM      2  O   UNL     1      -3.422   3.162   2.396  0.00  0.00    -0.272 OA
ATOM      3  N   UNL     1      -5.218   2.040   1.732  0.00  0.00    -0.205 N 
ATOM      4  H   UNL     1      -5.759   1.708   0.998  0.00  0.00    +0.177 HD
ENDROOT
BRANCH   3   5
ATOM      5  N   UNL     1      -5.600   1.784   3.055  0.00  0.00    -0.185 NA
ATOM      6  C   UNL     1      -6.680   1.100   3.300  0.00  0.00    +0.176 C 
BRANCH   6   7
ATOM      7  C   UNL     1      -7.079   0.832   4.683  0.00  0.00    +0.148 A 
ATOM      8  C   UNL     1      -8.196   0.131   5.081  0.00  0.00    +0.051 A 
ATOM      9  C   UNL     1      -8.185   0.115   6.482  0.00  0.00    +0.050 A 
ATOM     10  C   UNL     1      -7.080   0.806   6.882  0.00  0.00    +0.136 A 
ATOM     11  O   UNL     1      -6.420   1.234   5.789  0.00  0.00    -0.454 OA
BRANCH  10  12
ATOM     12  C   UNL     1      -6.674   1.045   8.281  0.00  0.00    +0.019 A 
ATOM     13  C   UNL     1      -5.514   1.772   8.560  0.00  0.00    +0.013 A 
ATOM     14  C   UNL     1      -5.139   1.992   9.869  0.00  0.00    +0.022 A 
ATOM     15  C   UNL     1      -5.910   1.494  10.906  0.00  0.00    +0.059 A 
ATOM     16  C   UNL     1      -7.062   0.772  10.637  0.00  0.00    +0.060 A 
ATOM     17  C   UNL     1      -7.451   0.550   9.331  0.00  0.00    +0.033 A 
ATOM     18 CL   UNL     1      -8.022   0.152  11.944  0.00  0.00    -0.082 Cl
ATOM     19 CL   UNL     1      -5.432   1.775  12.551  0.00  0.00    -0.082 Cl
ENDBRANCH  10  12
ENDBRANCH   6   7
ENDBRANCH   3   5
BRANCH   1  20
ATOM     20  C   UNL     1      -3.688   3.023   0.055  0.00  0.00    +0.219 C 
BRANCH  20  35
ATOM     21  C   UNL     1       1.184   1.779   0.000  0.00  0.00    +0.001 A 
ATOM     22  C   UNL     1      -0.013   1.076   0.008  0.00  0.00    +0.002 A 
ATOM     23  C   UNL     1      -1.219   1.741   0.017  0.00  0.00    +0.026 A 
ATOM     24  C   UNL     1      -1.244   3.135   0.031  0.00  0.00    +0.054 A 
ATOM     25  C   UNL     1      -0.029   3.839   0.022  0.00  0.00    +0.046 A 
ATOM     26  C   UNL     1       1.183   3.145   0.007  0.00  0.00    +0.014 A 
ATOM     27  C   UNL     1      -0.052   5.313   0.031  0.00  0.00    +0.197 A 
ATOM     28  O   UNL     1       0.978   5.962   0.024  0.00  0.00    -0.287 OA
ATOM     29  C   UNL     1      -1.371   5.971   0.048  0.00  0.00    +0.046 A 
ATOM     30  C   UNL     1      -1.473   7.364   0.057  0.00  0.00    +0.014 A 
ATOM     31  C   UNL     1      -2.705   7.955   0.073  0.00  0.00    +0.001 A 
ATOM     32  C   UNL     1      -3.856   7.180   0.080  0.00  0.00    +0.002 A 
ATOM     33  C   UNL     1      -3.777   5.804   0.071  0.00  0.00    +0.026 A 
ATOM     34  C   UNL     1      -2.532   5.179   0.055  0.00  0.00    +0.054 A 
ATOM     35  N   UNL     1      -2.449   3.804   0.047  0.00  0.00    -0.331 N 
ENDBRANCH  20  35
ENDBRANCH   1  20
TORSDOF 5
