REMARK  Name = ZINC13189851
REMARK  11 active torsions:
REMARK  status: ('A' for Active; 'I' for Inactive)
REMARK    1  A    between atoms: C_1  and  C_2
REMARK    2  A    between atoms: C_5  and  C_8
REMARK    3  A    between atoms: C_8  and  N_9
REMARK    4  A    between atoms: C_10  and  C_12
REMARK    5  A    between atoms: C_12  and  O_13
REMARK    6  A    between atoms: O_13  and  C_14
REMARK    7  A    between atoms: C_17  and  S_23
REMARK    8  A    between atoms: C_19  and  N_20
REMARK    9  A    between atoms: S_23  and  N_26
REMARK   10  A    between atoms: N_26  and  C_27
REMARK   11  A    between atoms: C_30  and  C_33
REMARK                            x       y       z     vdW  Elec       q    Type
REMARK                         _______ _______ _______ _____ _____    ______ ____
ROOT
ATOM      1  C   UNL     1      -0.538   1.849  -2.930  0.00  0.00    +0.151 A 
ATOM      2  C   UNL     1       0.559   1.017  -2.757  0.00  0.00    +0.050 A 
ATOM      3  C   UNL     1       1.189   0.469  -3.857  0.00  0.00    +0.032 A 
ATOM      4  C   UNL     1       0.729   0.750  -5.131  0.00  0.00    +0.111 A 
ATOM      5  C   UNL     1      -0.364   1.579  -5.306  0.00  0.00    +0.065 A 
ATOM      6  C   UNL     1      -1.002   2.125  -4.208  0.00  0.00    +0.169 A 
ENDROOT
BRANCH   6   7
ATOM      7  N   UNL     1      -2.175   3.007  -4.397  0.00  0.00    +0.060 N 
ATOM      8  O   UNL     1      -2.581   3.249  -5.519  0.00  0.00    -0.126 OA
ATOM      9  O   UNL     1      -2.733   3.492  -3.429  0.00  0.00    -0.126 OA
ENDBRANCH   6   7
BRANCH   4  10
ATOM     10  S   UNL     1       1.536   0.050  -6.532  0.00  0.00    +0.072 S 
ATOM     11  O   UNL     1       1.148   0.830  -7.655  0.00  0.00    -0.150 OA
ATOM     12  O   UNL     1       2.896  -0.136  -6.167  0.00  0.00    -0.150 OA
BRANCH  10  13
ATOM     13  N   UNL     1       0.896  -1.460  -6.761  0.00  0.00    -0.216 N 
ATOM     14  H   UNL     1       1.461  -2.244  -6.676  0.00  0.00    +0.174 HD
BRANCH  13  15
ATOM     15  C   UNL     1      -0.450  -1.604  -7.075  0.00  0.00    +0.048 A 
ATOM     16  C   UNL     1      -1.342  -2.072  -6.113  0.00  0.00    +0.025 A 
ATOM     17  C   UNL     1      -2.671  -2.211  -6.418  0.00  0.00    +0.017 A 
ATOM     18  C   UNL     1      -3.130  -1.893  -7.701  0.00  0.00    +0.063 A 
ATOM     19  C   UNL     1      -2.231  -1.428  -8.666  0.00  0.00    +0.017 A 
ATOM     20  C   UNL     1      -0.903  -1.287  -8.353  0.00  0.00    +0.025 A 
BRANCH  18  21
ATOM     21  C   UNL     1      -4.557  -2.046  -8.034  0.00  0.00    +0.387 C 
ATOM     22  O   UNL     1      -4.954  -1.768  -9.148  0.00  0.00    -0.241 OA
ATOM     23  O   UNL     1      -5.422  -2.493  -7.102  0.00  0.00    -0.241 OA
ENDBRANCH  18  21
ENDBRANCH  13  15
ENDBRANCH  10  13
ENDBRANCH   4  10
BRANCH   1  24
ATOM     24  O   UNL     1      -1.161   2.389  -1.850  0.00  0.00    -0.480 OA
BRANCH  24  25
ATOM     25  C   UNL     1      -0.633   2.056  -0.564  0.00  0.00    +0.324 C 
BRANCH  25  27
ATOM     26  N   UNL     1      -1.128   2.572   1.804  0.00  0.00    -0.308 N 
ATOM     27  C   UNL     1      -1.445   2.741   0.505  0.00  0.00    +0.251 C 
ATOM     28  O   UNL     1      -2.384   3.444   0.196  0.00  0.00    -0.272 OA
ATOM     29  H   UNL     1      -0.377   2.010   2.051  0.00  0.00    +0.149 HD
BRANCH  26  30
ATOM     30  C   UNL     1      -1.918   3.237   2.843  0.00  0.00    +0.139 C 
BRANCH  30  35
ATOM     31  C   UNL     1       0.217   1.895   8.042  0.00  0.00    +0.044 C 
ATOM     32  C   UNL     1      -0.340   2.245   6.686  0.00  0.00    -0.050 A 
ATOM     33  C   UNL     1       0.134   3.354   6.010  0.00  0.00    +0.003 A 
ATOM     34  C   UNL     1      -0.377   3.675   4.767  0.00  0.00    +0.005 A 
ATOM     35  C   UNL     1      -1.361   2.887   4.199  0.00  0.00    -0.030 A 
ATOM     36  C   UNL     1      -1.838   1.781   4.877  0.00  0.00    +0.005 A 
ATOM     37  C   UNL     1      -1.324   1.457   6.119  0.00  0.00    +0.003 A 
ENDBRANCH  30  35
ENDBRANCH  26  30
ENDBRANCH  25  27
ENDBRANCH  24  25
ENDBRANCH   1  24
TORSDOF 10
