REMARK  Name = ZINC41603957
REMARK  14 active torsions:
REMARK  status: ('A' for Active; 'I' for Inactive)
REMARK    1  A    between atoms: C_1  and  C_2
REMARK    2  A    between atoms: C_2  and  C_3
REMARK    3  A    between atoms: N_5  and  C_6
REMARK    4  A    between atoms: C_9  and  N_13
REMARK    5  A    between atoms: C_11  and  C_12
REMARK    6  A    between atoms: C_14  and  C_16
REMARK    7  A    between atoms: N_18  and  C_19
REMARK    8  A    between atoms: C_19  and  C_20
REMARK    9  A    between atoms: C_20  and  C_22
REMARK   10  A    between atoms: C_20  and  N_23
REMARK   11  A    between atoms: N_23  and  C_24
REMARK   12  A    between atoms: N_23  and  C_26
REMARK   13  A    between atoms: C_24  and  C_25
REMARK   14  A    between atoms: C_26  and  C_27
REMARK                            x       y       z     vdW  Elec       q    Type
REMARK                         _______ _______ _______ _____ _____    ______ ____
ROOT
ATOM      1  N   UNL     1       3.525  -4.100  -6.090  0.00  0.00    -0.278 N 
ATOM      2  C   UNL     1       4.014  -3.134  -6.893  0.00  0.00    +0.303 C 
ATOM      3  O   UNL     1       3.982  -1.974  -6.536  0.00  0.00    -0.265 OA
ATOM      4  H   UNL     1       3.489  -5.018  -6.402  0.00  0.00    +0.155 HD
ENDROOT
BRANCH   1   8
ATOM      5  C   UNL     1       2.167  -3.144  -2.268  0.00  0.00    +0.036 A 
ATOM      6  C   UNL     1       1.986  -2.248  -3.314  0.00  0.00    +0.025 A 
ATOM      7  C   UNL     1       2.435  -2.564  -4.580  0.00  0.00    +0.025 A 
ATOM      8  C   UNL     1       3.070  -3.779  -4.808  0.00  0.00    +0.034 A 
ATOM      9  C   UNL     1       3.251  -4.675  -3.762  0.00  0.00    +0.028 A 
ATOM     10  C   UNL     1       2.806  -4.356  -2.495  0.00  0.00    -0.027 A 
ATOM     11  C   UNL     1       3.008  -5.326  -1.359  0.00  0.00    +0.046 C 
BRANCH   5  14
ATOM     12  C   UNL     1       1.559  -1.533  -0.625  0.00  0.00    +0.217 C 
ATOM     13  O   UNL     1       1.908  -0.649  -1.379  0.00  0.00    -0.275 OA
ATOM     14  N   UNL     1       1.710  -2.823  -0.984  0.00  0.00    -0.285 N 
ATOM     15  H   UNL     1       1.503  -3.530  -0.352  0.00  0.00    +0.155 HD
BRANCH  12  17
ATOM     16  C   UNL     1       0.897   0.333   0.868  0.00  0.00    +0.013 C 
ATOM     17  C   UNL     1       0.955  -1.188   0.712  0.00  0.00    +0.093 C 
ENDBRANCH  12  17
ENDBRANCH   5  14
ENDBRANCH   1   8
BRANCH   2  18
ATOM     18  C   UNL     1       4.594  -3.490  -8.222  0.00  0.00    +0.299 C 
ATOM     19  O   UNL     1       4.543  -4.636  -8.619  0.00  0.00    -0.265 OA
ATOM     20  N   UNL     1       5.174  -2.540  -8.981  0.00  0.00    -0.309 N 
ATOM     21  H   UNL     1       5.280  -1.640  -8.634  0.00  0.00    +0.149 HD
BRANCH  20  22
ATOM     22  C   UNL     1       5.645  -2.865 -10.330  0.00  0.00    +0.089 C 
BRANCH  22  23
ATOM     23  C   UNL     1       6.369  -1.655 -10.923  0.00  0.00    -0.054 C 
ATOM     24  C   UNL     1       6.887  -2.005 -12.319  0.00  0.00    -0.012 C 
BRANCH  23  25
ATOM     25  N   UNL     1       7.499  -1.289 -10.059  0.00  0.00    +0.382 N 
ATOM     26  H   UNL     1       7.169  -1.142  -9.117  0.00  0.00    -0.081 HD
BRANCH  25  27
ATOM     27  C   UNL     1       8.492  -2.372 -10.066  0.00  0.00    -0.082 C 
ATOM     28  C   UNL     1       9.608  -2.047  -9.072  0.00  0.00    -0.017 C 
ENDBRANCH  25  27
BRANCH  25  29
ATOM     29  C   UNL     1       8.118  -0.054 -10.559  0.00  0.00    -0.082 C 
ATOM     30  C   UNL     1       7.134   1.107 -10.407  0.00  0.00    -0.017 C 
ENDBRANCH  25  29
ENDBRANCH  23  25
ENDBRANCH  22  23
ENDBRANCH  20  22
ENDBRANCH   2  18
TORSDOF 9
