REMARK  Name = ZINC02836878
REMARK  4 active torsions:
REMARK  status: ('A' for Active; 'I' for Inactive)
REMARK    1  A    between atoms: C_1  and  N_45
REMARK    2  A    between atoms: C_7  and  C_9
REMARK    3  A    between atoms: C_14  and  N_15
REMARK    4  A    between atoms: C_16  and  C_18
REMARK                            x       y       z     vdW  Elec       q    Type
REMARK                         _______ _______ _______ _____ _____    ______ ____
ROOT
ATOM      1  C   UNL     1      -3.580  -2.509  -0.053  0.00  0.00    +0.061 A 
ATOM      2  C   UNL     1      -4.756  -3.248   0.090  0.00  0.00    +0.035 A 
ATOM      3  C   UNL     1      -5.940  -2.607   0.391  0.00  0.00    +0.043 A 
ATOM      4  C   UNL     1      -5.968  -1.230   0.552  0.00  0.00    +0.042 A 
ATOM      5  C   UNL     1      -4.812  -0.487   0.418  0.00  0.00    +0.064 A 
ATOM      6  C   UNL     1      -3.612  -1.116   0.110  0.00  0.00    +0.064 A 
ATOM      7 CL   UNL     1      -4.859   1.236   0.629  0.00  0.00    -0.082 Cl
ATOM      8 CL   UNL     1      -7.400  -3.528   0.569  0.00  0.00    -0.083 Cl
ENDROOT
BRANCH   1  15
ATOM      9  C   UNL     1       1.225  -4.341   3.576  0.00  0.00    -0.096 C 
ATOM     10  C   UNL     1       0.582  -4.446   1.244  0.00  0.00    -0.060 C 
ATOM     11  C   UNL     1       0.064  -3.607   0.071  0.00  0.00    +0.089 C 
ATOM     12  N   UNL     1      -1.246  -3.049   0.439  0.00  0.00    -0.301 N 
ATOM     13  C   UNL     1      -1.362  -2.329   1.716  0.00  0.00    +0.089 C 
ATOM     14  C   UNL     1      -0.788  -3.224   2.827  0.00  0.00    -0.060 C 
ATOM     15  C   UNL     1      -2.311  -3.189  -0.376  0.00  0.00    +0.248 C 
ATOM     16  O   UNL     1      -2.226  -3.875  -1.376  0.00  0.00    -0.270 OA
ATOM     17  N   UNL     1       0.593  -3.606   2.461  0.00  0.00    +0.380 N 
ATOM     18  H   UNL     1       1.135  -2.754   2.272  0.00  0.00    -0.082 HD
ENDBRANCH   1  15
BRANCH   6  19
ATOM     19  N   UNL     1      -2.446  -0.368  -0.032  0.00  0.00    -0.280 N 
ATOM     20  C   UNL     1      -1.593  -0.633  -1.041  0.00  0.00    +0.250 C 
ATOM     21  O   UNL     1      -1.871  -1.483  -1.864  0.00  0.00    -0.270 OA
ATOM     22  H   UNL     1      -2.248   0.344   0.597  0.00  0.00    +0.155 HD
BRANCH  20  23
ATOM     23  C   UNL     1      -0.320   0.108  -1.146  0.00  0.00    +0.055 A 
ATOM     24  C   UNL     1      -0.045   1.157  -0.266  0.00  0.00    +0.016 A 
ATOM     25  C   UNL     1       1.147   1.842  -0.366  0.00  0.00    +0.021 A 
ATOM     26  C   UNL     1       2.071   1.495  -1.339  0.00  0.00    +0.042 A 
ATOM     27  C   UNL     1       1.802   0.461  -2.219  0.00  0.00    +0.040 A 
ATOM     28  C   UNL     1       0.612  -0.233  -2.130  0.00  0.00    +0.054 A 
ATOM     29 CL   UNL     1       0.277  -1.531  -3.233  0.00  0.00    -0.083 Cl
ATOM     30 CL   UNL     1       3.570   2.363  -1.457  0.00  0.00    -0.083 Cl
ENDBRANCH  20  23
ENDBRANCH   6  19
TORSDOF 3
