REMARK  Name = ZINC08857093
REMARK  8 active torsions:
REMARK  status: ('A' for Active; 'I' for Inactive)
REMARK    1  A    between atoms: C_3  and  N_14
REMARK    2  A    between atoms: C_4  and  N_11
REMARK    3  A    between atoms: C_6  and  C_7
REMARK    4  A    between atoms: C_19  and  C_20
REMARK    5  A    between atoms: C_19  and  N_50
REMARK    6  A    between atoms: C_20  and  O_21
REMARK    7  A    between atoms: O_21  and  C_22
REMARK    8  A    between atoms: C_22  and  C_24
REMARK                            x       y       z     vdW  Elec       q    Type
REMARK                         _______ _______ _______ _____ _____    ______ ____
ROOT
ATOM      1  N   UNL     1      -4.713  -1.718   3.021  0.00  0.00    -0.332 N 
ATOM      2  C   UNL     1      -5.938  -0.912   2.925  0.00  0.00    +0.086 C 
ATOM      3  C   UNL     1      -6.013  -0.267   1.539  0.00  0.00    -0.059 C 
ATOM      4  C   UNL     1      -3.596  -0.241   1.420  0.00  0.00    -0.059 C 
ATOM      5  C   UNL     1      -3.521  -0.886   2.806  0.00  0.00    +0.086 C 
ATOM      6  N   UNL     1      -4.820   0.584   1.344  0.00  0.00    +0.384 N 
ATOM      7  H   UNL     1      -4.791   1.294   2.085  0.00  0.00    -0.082 HD
ENDROOT
BRANCH   1  10
ATOM      8  C   UNL     1      -4.569  -2.313   6.645  0.00  0.00    +0.014 A 
ATOM      9  C   UNL     1      -4.635  -1.654   5.433  0.00  0.00    +0.026 A 
ATOM     10  C   UNL     1      -4.646  -2.381   4.249  0.00  0.00    +0.060 A 
ATOM     11  C   UNL     1      -4.595  -3.768   4.289  0.00  0.00    +0.148 A 
ATOM     12  C   UNL     1      -4.522  -4.420   5.504  0.00  0.00    +0.047 A 
ATOM     13  C   UNL     1      -4.512  -3.694   6.681  0.00  0.00    +0.057 A 
BRANCH  13  14
ATOM     14  C   UNL     1      -4.440  -4.409   8.005  0.00  0.00    +0.417 C 
ATOM     15  F   UNL     1      -4.444  -3.471   9.043  0.00  0.00    -0.166 F 
ATOM     16  F   UNL     1      -5.546  -5.256   8.139  0.00  0.00    -0.166 F 
ATOM     17  F   UNL     1      -3.264  -5.165   8.063  0.00  0.00    -0.166 F 
ENDBRANCH  13  14
BRANCH  11  18
ATOM     18  N   UNL     1      -4.612  -4.547   3.030  0.00  0.00    +0.058 N 
ATOM     19  O   UNL     1      -4.567  -5.763   3.066  0.00  0.00    -0.126 OA
ATOM     20  O   UNL     1      -4.670  -3.971   1.958  0.00  0.00    -0.126 OA
ENDBRANCH  11  18
ENDBRANCH   1  10
BRANCH   6  21
ATOM     21  C   UNL     1      -4.892   1.262   0.032  0.00  0.00    -0.037 C 
BRANCH  21  22
ATOM     22  C   UNL     1      -5.872   2.433   0.138  0.00  0.00    +0.214 C 
BRANCH  22  23
ATOM     23  O   UNL     1      -5.355   3.413   1.076  0.00  0.00    -0.463 OA
BRANCH  23  24
ATOM     24  C   UNL     1      -6.104   4.514   1.285  0.00  0.00    +0.341 C 
ATOM     25  O   UNL     1      -7.160   4.650   0.699  0.00  0.00    -0.245 OA
BRANCH  24  26
ATOM     26  C   UNL     1      -5.642   5.553   2.225  0.00  0.00    +0.077 A 
ATOM     27  C   UNL     1      -4.428   5.399   2.900  0.00  0.00    +0.018 A 
ATOM     28  C   UNL     1      -4.000   6.376   3.772  0.00  0.00    +0.021 A 
ATOM     29  C   UNL     1      -4.769   7.510   3.981  0.00  0.00    +0.042 A 
ATOM     30  C   UNL     1      -5.972   7.670   3.316  0.00  0.00    +0.040 A 
ATOM     31  C   UNL     1      -6.414   6.699   2.439  0.00  0.00    +0.056 A 
ATOM     32 CL   UNL     1      -7.923   6.900   1.605  0.00  0.00    -0.083 Cl
ATOM     33 CL   UNL     1      -4.220   8.735   5.082  0.00  0.00    -0.083 Cl
ENDBRANCH  24  26
ENDBRANCH  23  24
ENDBRANCH  22  23
ENDBRANCH  21  22
ENDBRANCH   6  21
TORSDOF 8
