REMARK  Name = ZINC35370132
REMARK  3 active torsions:
REMARK  status: ('A' for Active; 'I' for Inactive)
REMARK    1  A    between atoms: C_1  and  C_2
REMARK    2  A    between atoms: C_7  and  C_8
REMARK    3  A    between atoms: N_22  and  C_23
REMARK                            x       y       z     vdW  Elec       q    Type
REMARK                         _______ _______ _______ _____ _____    ______ ____
ROOT
ATOM      1  C   UNL     1       0.360   0.012   2.303  0.00  0.00    +0.248 C 
ATOM      2  O   UNL     1       0.035   1.179   2.412  0.00  0.00    -0.270 OA
ATOM      3  N   UNL     1       0.277  -0.813   3.365  0.00  0.00    -0.282 N 
ATOM      4  C   UNL     1       0.470  -2.257   3.244  0.00  0.00    +0.120 C 
ATOM      5  C   UNL     1       1.090  -2.845   4.546  0.00  0.00    +0.090 C 
ATOM      6  S   UNL     1       0.174  -1.808   5.774  0.00  0.00    -0.133 S 
ATOM      7  C   UNL     1      -0.006  -0.316   4.718  0.00  0.00    +0.087 C 
ATOM      8  C   UNL     1      -1.431   0.210   4.821  0.00  0.00    +0.056 C 
ATOM      9  C   UNL     1      -1.586   1.442   3.920  0.00  0.00    +0.112 C 
ATOM     10  N   UNL     1      -0.534   2.410   4.261  0.00  0.00    -0.285 N 
ATOM     11  C   UNL     1       0.868   1.971   4.241  0.00  0.00    +0.112 C 
ATOM     12  C   UNL     1       1.008   0.736   5.140  0.00  0.00    +0.056 C 
ATOM     13  C   UNL     1      -0.851   3.679   4.585  0.00  0.00    +0.307 C 
ATOM     14  O   UNL     1      -2.004   4.056   4.512  0.00  0.00    -0.252 OA
ATOM     15  N   UNL     1       0.112   4.531   4.991  0.00  0.00    -0.267 N 
ATOM     16  H   UNL     1       1.040   4.249   4.990  0.00  0.00    +0.156 HD
ENDROOT
BRANCH  15  17
ATOM     17  C   UNL     1      -0.228   5.823   5.414  0.00  0.00    +0.070 A 
ATOM     18  C   UNL     1      -1.534   6.111   5.788  0.00  0.00    +0.029 A 
ATOM     19  C   UNL     1      -1.867   7.385   6.205  0.00  0.00    +0.040 A 
ATOM     20  C   UNL     1      -0.901   8.375   6.252  0.00  0.00    +0.126 A 
ATOM     21  C   UNL     1       0.402   8.092   5.880  0.00  0.00    +0.078 A 
ATOM     22  C   UNL     1       0.743   6.817   5.467  0.00  0.00    +0.147 A 
ATOM     23  F   UNL     1       2.015   6.538   5.109  0.00  0.00    -0.203 F 
ATOM     24  F   UNL     1      -1.230   9.620   6.660  0.00  0.00    -0.205 F 
ENDBRANCH  15  17
BRANCH   1  31
ATOM     25  C   UNL     1       2.490   1.402   0.922  0.00  0.00    +0.044 C 
ATOM     26  C   UNL     1       1.873   0.161   0.330  0.00  0.00    -0.038 A 
ATOM     27  C   UNL     1       2.326  -0.327  -0.879  0.00  0.00    +0.004 A 
ATOM     28  C   UNL     1       1.762  -1.466  -1.424  0.00  0.00    +0.000 A 
ATOM     29  C   UNL     1       0.740  -2.124  -0.763  0.00  0.00    +0.001 A 
ATOM     30  C   UNL     1       0.278  -1.647   0.446  0.00  0.00    +0.013 A 
ATOM     31  C   UNL     1       0.847  -0.501   1.005  0.00  0.00    +0.040 A 
ENDBRANCH   1  31
TORSDOF 2
