REMARK  Name = ZINC07913153
REMARK  8 active torsions:
REMARK  status: ('A' for Active; 'I' for Inactive)
REMARK    1  A    between atoms: C_1  and  C_2
REMARK    2  A    between atoms: C_3  and  N_9
REMARK    3  A    between atoms: C_10  and  C_12
REMARK    4  A    between atoms: C_12  and  N_44
REMARK    5  A    between atoms: C_13  and  N_44
REMARK    6  A    between atoms: C_14  and  C_15
REMARK    7  A    between atoms: C_14  and  N_44
REMARK    8  A    between atoms: N_17  and  C_18
REMARK                            x       y       z     vdW  Elec       q    Type
REMARK                         _______ _______ _______ _____ _____    ______ ____
ROOT
ATOM      1  C   UNL     1       2.458   0.463   1.108  0.00  0.00    -0.095 C 
ATOM      2  N   UNL     1       2.421   1.260  -0.136  0.00  0.00    +0.389 N 
ATOM      3  H   UNL     1       2.328   0.625  -0.937  0.00  0.00    -0.081 HD
ENDROOT
BRANCH   2   4
ATOM      4  C   UNL     1       3.675   2.031  -0.279  0.00  0.00    +0.019 C 
BRANCH   4   6
ATOM      5  N   UNL     1       6.062   1.539  -0.701  0.00  0.00    -0.287 N 
ATOM      6  C   UNL     1       4.811   1.071  -0.520  0.00  0.00    +0.201 C 
ATOM      7  O   UNL     1       4.600  -0.123  -0.551  0.00  0.00    -0.278 OA
ATOM      8  H   UNL     1       6.240   2.489  -0.621  0.00  0.00    +0.155 HD
BRANCH   5  11
ATOM      9  C   UNL     1       8.308   2.547  -2.128  0.00  0.00    +0.047 C 
ATOM     10  C   UNL     1       8.217   1.105  -1.700  0.00  0.00    -0.011 A 
ATOM     11  C   UNL     1       7.102   0.655  -1.005  0.00  0.00    +0.038 A 
ATOM     12  C   UNL     1       7.020  -0.676  -0.618  0.00  0.00    +0.023 A 
ATOM     13  C   UNL     1       8.049  -1.548  -0.920  0.00  0.00    +0.003 A 
ATOM     14  C   UNL     1       9.160  -1.096  -1.607  0.00  0.00    +0.020 A 
ATOM     15  C   UNL     1       9.246   0.230  -1.994  0.00  0.00    +0.046 A 
ATOM     16 CL   UNL     1      10.644   0.793  -2.856  0.00  0.00    -0.083 Cl
ENDBRANCH   5  11
ENDBRANCH   4   6
ENDBRANCH   2   4
BRANCH   2  17
ATOM     17  C   UNL     1       1.263   2.179  -0.113  0.00  0.00    +0.019 C 
BRANCH  17  18
ATOM     18  C   UNL     1      -0.003   1.366  -0.190  0.00  0.00    +0.201 C 
ATOM     19  O   UNL     1       0.055   0.155  -0.239  0.00  0.00    -0.278 OA
ATOM     20  N   UNL     1      -1.201   1.984  -0.208  0.00  0.00    -0.286 N 
ATOM     21  H   UNL     1      -1.252   2.945  -0.088  0.00  0.00    +0.155 HD
BRANCH  20  22
ATOM     22  C   UNL     1      -2.370   1.239  -0.401  0.00  0.00    +0.052 A 
ATOM     23  C   UNL     1      -2.357   0.124  -1.228  0.00  0.00    +0.025 A 
ATOM     24  C   UNL     1      -3.511  -0.612  -1.412  0.00  0.00    +0.002 A 
ATOM     25  C   UNL     1      -4.682  -0.234  -0.781  0.00  0.00    +0.002 A 
ATOM     26  C   UNL     1      -4.701   0.879   0.039  0.00  0.00    +0.022 A 
ATOM     27  C   UNL     1      -3.548   1.617   0.231  0.00  0.00    +0.062 A 
ATOM     28 CL   UNL     1      -3.573   3.015   1.260  0.00  0.00    -0.082 Cl
ENDBRANCH  20  22
ENDBRANCH  17  18
ENDBRANCH   2  17
TORSDOF 6
