REMARK  Name = ZINC16556849
REMARK  11 active torsions:
REMARK  status: ('A' for Active; 'I' for Inactive)
REMARK    1  A    between atoms: C_1  and  C_2
REMARK    2  A    between atoms: C_2  and  N_3
REMARK    3  A    between atoms: N_3  and  C_4
REMARK    4  A    between atoms: N_3  and  C_18
REMARK    5  A    between atoms: C_4  and  C_5
REMARK    6  A    between atoms: N_7  and  C_8
REMARK    7  A    between atoms: C_11  and  N_14
REMARK    8  A    between atoms: C_15  and  C_17
REMARK    9  A    between atoms: C_18  and  C_20
REMARK   10  A    between atoms: C_18  and  C_21
REMARK   11  A    between atoms: N_23  and  C_24
REMARK                            x       y       z     vdW  Elec       q    Type
REMARK                         _______ _______ _______ _____ _____    ______ ____
ROOT
ATOM      1  N   UNL     1       0.636  -0.442   0.447  0.00  0.00    +0.393 N 
ATOM      2  H   UNL     1       1.378   0.192   0.705  0.00  0.00    -0.080 HD
ENDROOT
BRANCH   1   4
ATOM      3  C   UNL     1      -0.426   1.464  -0.665  0.00  0.00    -0.017 C 
ATOM      4  C   UNL     1       0.022   0.009  -0.810  0.00  0.00    -0.081 C 
ENDBRANCH   1   4
BRANCH   1   5
ATOM      5  C   UNL     1      -0.379  -0.466   1.507  0.00  0.00    +0.017 C 
ATOM      6  C   UNL     1       0.259  -0.941   2.814  0.00  0.00    -0.004 C 
BRANCH   5   7
ATOM      7  C   UNL     1      -1.490  -1.408   1.119  0.00  0.00    +0.203 C 
ATOM      8  O   UNL     1      -1.389  -2.082   0.116  0.00  0.00    -0.277 OA
ATOM      9  N   UNL     1      -2.594  -1.500   1.886  0.00  0.00    -0.287 N 
ATOM     10  H   UNL     1      -2.704  -0.913   2.650  0.00  0.00    +0.155 HD
BRANCH   9  11
ATOM     11  C   UNL     1      -3.581  -2.444   1.580  0.00  0.00    +0.033 A 
ATOM     12  C   UNL     1      -4.286  -3.069   2.600  0.00  0.00    +0.025 A 
ATOM     13  C   UNL     1      -5.260  -4.000   2.296  0.00  0.00    +0.022 A 
ATOM     14  C   UNL     1      -5.534  -4.310   0.975  0.00  0.00    +0.041 A 
ATOM     15  C   UNL     1      -4.832  -3.688  -0.044  0.00  0.00    +0.022 A 
ATOM     16  C   UNL     1      -3.862  -2.753   0.256  0.00  0.00    +0.025 A 
ATOM     17 CL   UNL     1      -6.758  -5.481   0.595  0.00  0.00    -0.084 Cl
ENDBRANCH   9  11
ENDBRANCH   5   7
ENDBRANCH   1   5
BRANCH   1  18
ATOM     18  C   UNL     1       1.187  -1.792   0.266  0.00  0.00    +0.020 C 
BRANCH  18  19
ATOM     19  C   UNL     1       2.349  -1.736  -0.692  0.00  0.00    +0.201 C 
ATOM     20  O   UNL     1       2.686  -0.676  -1.176  0.00  0.00    -0.278 OA
ATOM     21  N   UNL     1       3.015  -2.864  -1.010  0.00  0.00    -0.287 N 
ATOM     22  H   UNL     1       2.703  -3.720  -0.680  0.00  0.00    +0.155 HD
BRANCH  21  23
ATOM     23  C   UNL     1       4.158  -2.798  -1.817  0.00  0.00    +0.033 A 
ATOM     24  C   UNL     1       5.016  -1.710  -1.720  0.00  0.00    +0.025 A 
ATOM     25  C   UNL     1       6.142  -1.646  -2.515  0.00  0.00    +0.025 A 
ATOM     26  C   UNL     1       6.418  -2.668  -3.413  0.00  0.00    +0.033 A 
ATOM     27  C   UNL     1       5.560  -3.756  -3.511  0.00  0.00    +0.025 A 
ATOM     28  C   UNL     1       4.436  -3.824  -2.711  0.00  0.00    +0.025 A 
BRANCH  26  29
ATOM     29  N   UNL     1       7.560  -2.603  -4.221  0.00  0.00    -0.286 N 
ATOM     30  C   UNL     1       7.530  -3.102  -5.472  0.00  0.00    +0.214 C 
ATOM     31  O   UNL     1       6.491  -3.527  -5.931  0.00  0.00    -0.276 OA
ATOM     32  C   UNL     1       8.789  -3.132  -6.301  0.00  0.00    +0.109 C 
ATOM     33  H   UNL     1       8.373  -2.198  -3.879  0.00  0.00    +0.155 HD
ENDBRANCH  26  29
ENDBRANCH  21  23
ENDBRANCH  18  19
ENDBRANCH   1  18
TORSDOF 8
