REMARK  Name = ZINC18189346
REMARK  5 active torsions:
REMARK  status: ('A' for Active; 'I' for Inactive)
REMARK    1  A    between atoms: C_5  and  S_7
REMARK    2  A    between atoms: S_7  and  C_8
REMARK    3  A    between atoms: C_8  and  C_9
REMARK    4  A    between atoms: C_13  and  N_15
REMARK    5  A    between atoms: N_18  and  C_19
REMARK                            x       y       z     vdW  Elec       q    Type
REMARK                         _______ _______ _______ _____ _____    ______ ____
ROOT
ATOM      1  C   UNL     1       3.098  -4.075  -0.682  0.00  0.00    +0.060 A 
ATOM      2  C   UNL     1       4.338  -4.193  -0.081  0.00  0.00    +0.096 A 
ATOM      3  C   UNL     1       5.050  -5.380  -0.246  0.00  0.00    +0.275 A 
ATOM      4  N   UNL     1       4.519  -6.356  -0.971  0.00  0.00    -0.172 NA
ATOM      5  C   UNL     1       3.323  -6.208  -1.534  0.00  0.00    +0.257 A 
ATOM      6  N   UNL     1       2.621  -5.087  -1.388  0.00  0.00    -0.215 NA
ATOM      7  O   UNL     1       6.269  -5.535   0.327  0.00  0.00    -0.266 OA
ENDROOT
BRANCH   5   8
ATOM      8  N   UNL     1       2.805  -7.226  -2.272  0.00  0.00    -0.177 NA
ATOM      9  C   UNL     1       3.424  -8.388  -2.318  0.00  0.00    +0.203 C 
ATOM     10  N   UNL     1       3.154  -9.268  -3.332  0.00  0.00    -0.369 N 
ATOM     11  N   UNL     1       4.338  -8.716  -1.351  0.00  0.00    -0.325 N 
ATOM     12  H   UNL     1       2.825  -8.941  -4.184  0.00  0.00    +0.159 HD
ATOM     13  H   UNL     1       4.499  -8.110  -0.611  0.00  0.00    +0.169 HD
ATOM     14  H   UNL     1       3.293 -10.219  -3.199  0.00  0.00    +0.159 HD
BRANCH  11  15
ATOM     15  C   UNL     1       5.039  -9.924  -1.432  0.00  0.00    +0.060 A 
ATOM     16  C   UNL     1       5.252 -10.524  -2.666  0.00  0.00    +0.028 A 
ATOM     17  C   UNL     1       5.944 -11.716  -2.744  0.00  0.00    +0.022 A 
ATOM     18  C   UNL     1       6.426 -12.315  -1.592  0.00  0.00    +0.042 A 
ATOM     19  C   UNL     1       6.216 -11.720  -0.361  0.00  0.00    +0.042 A 
ATOM     20  C   UNL     1       5.529 -10.524  -0.278  0.00  0.00    +0.066 A 
ATOM     21 CL   UNL     1       5.271  -9.775   1.267  0.00  0.00    -0.081 Cl
ATOM     22 CL   UNL     1       7.295 -13.814  -1.694  0.00  0.00    -0.083 Cl
ENDBRANCH  11  15
ENDBRANCH   5   8
BRANCH   1  23
ATOM     23  C   UNL     1       2.295  -2.809  -0.528  0.00  0.00    +0.131 C 
BRANCH  23  24
ATOM     24  S   UNL     1       1.238  -2.938   0.940  0.00  0.00    -0.100 S 
BRANCH  24  29
ATOM     25  C   UNL     1      -1.210   0.058   2.018  0.00  0.00    +0.004 A 
ATOM     26  C   UNL     1      -0.941   0.981   1.015  0.00  0.00    +0.020 A 
ATOM     27  C   UNL     1      -0.020   0.667   0.036  0.00  0.00    +0.112 A 
ATOM     28  N   UNL     1       0.604  -0.495   0.042  0.00  0.00    -0.249 NA
ATOM     29  C   UNL     1       0.375  -1.402   0.981  0.00  0.00    +0.097 A 
ATOM     30  C   UNL     1      -0.541  -1.151   1.998  0.00  0.00    +0.035 A 
ENDBRANCH  24  29
ENDBRANCH  23  24
ENDBRANCH   1  23
TORSDOF 5
