REMARK  Name = ZINC13879841
REMARK  10 active torsions:
REMARK  status: ('A' for Active; 'I' for Inactive)
REMARK    1  A    between atoms: C_1  and  C_2
REMARK    2  A    between atoms: C_5  and  N_9
REMARK    3  A    between atoms: C_6  and  C_8
REMARK    4  A    between atoms: N_9  and  C_10
REMARK    5  A    between atoms: N_11  and  C_12
REMARK    6  A    between atoms: C_12  and  C_14
REMARK    7  A    between atoms: C_24  and  C_29
REMARK    8  A    between atoms: C_29  and  S_30
REMARK    9  A    between atoms: S_30  and  C_31
REMARK   10  A    between atoms: C_34  and  C_36
REMARK                            x       y       z     vdW  Elec       q    Type
REMARK                         _______ _______ _______ _____ _____    ______ ____
ROOT
ATOM      1  C   UNL     1      -0.005  -4.836  -1.227  0.00  0.00    +0.223 C 
ATOM      2  N   UNL     1      -0.254  -4.232  -2.378  0.00  0.00    -0.141 NA
ATOM      3  N   UNL     1       0.141  -6.197  -1.185  0.00  0.00    -0.296 N 
ATOM      4  C   UNL     1       0.287  -6.836   0.024  0.00  0.00    +0.212 A 
ATOM      5  N   UNL     1       0.546  -8.170   0.047  0.00  0.00    -0.328 N 
ATOM      6  H   UNL     1       0.626  -8.659  -0.787  0.00  0.00    +0.168 HD
ATOM      7  C   UNL     1       0.695  -8.825   1.234  0.00  0.00    +0.034 A 
ATOM      8  C   UNL     1       0.582  -8.133   2.389  0.00  0.00    +0.094 A 
ATOM      9  C   UNL     1       0.311  -6.742   2.331  0.00  0.00    +0.275 A 
ATOM     10  O   UNL     1       0.204  -6.093   3.360  0.00  0.00    -0.266 OA
ATOM     11  N   UNL     1       0.178  -6.144   1.138  0.00  0.00    -0.175 NA
ATOM     12  H   UNL     1       0.141  -6.710  -2.008  0.00  0.00    +0.172 HD
ENDROOT
BRANCH   2  13
ATOM     13  C   UNL     1      -0.654  -4.949  -3.437  0.00  0.00    +0.270 C 
ATOM     14  O   UNL     1      -0.907  -6.133  -3.311  0.00  0.00    -0.268 OA
BRANCH  13  15
ATOM     15  C   UNL     1      -0.788  -4.300  -4.762  0.00  0.00    +0.039 A 
ATOM     16  C   UNL     1      -0.391  -2.974  -4.936  0.00  0.00    +0.013 A 
ATOM     17  C   UNL     1      -0.518  -2.375  -6.172  0.00  0.00    +0.001 A 
ATOM     18  C   UNL     1      -1.039  -3.087  -7.238  0.00  0.00    +0.000 A 
ATOM     19  C   UNL     1      -1.435  -4.402  -7.072  0.00  0.00    +0.001 A 
ATOM     20  C   UNL     1      -1.307  -5.014  -5.842  0.00  0.00    +0.013 A 
ENDBRANCH  13  15
ENDBRANCH   2  13
BRANCH   1  21
ATOM     21  N   UNL     1       0.108  -4.102  -0.082  0.00  0.00    -0.215 NA
BRANCH  21  26
ATOM     22  C   UNL     1      -1.702   1.273   0.033  0.00  0.00    +0.044 C 
ATOM     23  C   UNL     1      -1.221  -0.155   0.002  0.00  0.00    -0.050 A 
ATOM     24  C   UNL     1      -1.886  -1.091  -0.769  0.00  0.00    +0.005 A 
ATOM     25  C   UNL     1      -1.448  -2.400  -0.799  0.00  0.00    +0.028 A 
ATOM     26  C   UNL     1      -0.338  -2.777  -0.054  0.00  0.00    +0.070 A 
ATOM     27  C   UNL     1       0.327  -1.835   0.720  0.00  0.00    -0.025 A 
ATOM     28  C   UNL     1      -0.113  -0.525   0.741  0.00  0.00    +0.008 A 
ATOM     29  C   UNL     1       1.532  -2.239   1.530  0.00  0.00    +0.046 C 
ENDBRANCH  21  26
ENDBRANCH   1  21
BRANCH   7  30
ATOM     30  C   UNL     1       0.983 -10.304   1.257  0.00  0.00    +0.129 C 
BRANCH  30  31
ATOM     31  S   UNL     1      -0.530 -11.220   0.855  0.00  0.00    -0.091 S 
BRANCH  31  32
ATOM     32  C   UNL     1      -0.035 -12.910   0.922  0.00  0.00    +0.159 A 
ATOM     33  N   UNL     1       1.147 -13.443   1.202  0.00  0.00    -0.135 NA
ATOM     34  N   UNL     1       1.329 -14.691   1.206  0.00  0.00    -0.146 NA
ATOM     35  C   UNL     1       0.362 -15.543   0.932  0.00  0.00    +0.100 A 
ATOM     36  S   UNL     1      -0.986 -14.401   0.639  0.00  0.00    -0.044 S 
ATOM     37  C   UNL     1       0.382 -17.049   0.886  0.00  0.00    +0.075 C 
ENDBRANCH  31  32
ENDBRANCH  30  31
ENDBRANCH   7  30
TORSDOF 7
