REMARK  Name = ZINC05548879
REMARK  10 active torsions:
REMARK  status: ('A' for Active; 'I' for Inactive)
REMARK    1  A    between atoms: C_1  and  C_2
REMARK    2  A    between atoms: C_2  and  C_3
REMARK    3  A    between atoms: C_2  and  C_4
REMARK    4  A    between atoms: C_2  and  C_5
REMARK    5  A    between atoms: C_8  and  C_11
REMARK    6  A    between atoms: C_19  and  N_21
REMARK    7  A    between atoms: N_21  and  CA_22
REMARK    8  A    between atoms: CA_22  and  CB_24
REMARK    9  A    between atoms: CA_22  and  C_27
REMARK   10  A    between atoms: CB_24  and  CG_25
REMARK                            x       y       z     vdW  Elec       q    Type
REMARK                         _______ _______ _______ _____ _____    ______ ____
ROOT
ATOM      1  C   UNK A   0       1.046   5.854   0.025  0.00  0.00    +0.162 A 
ATOM      2  N   UNK A   0      -0.093   5.187   0.031  0.00  0.00    -0.227 NA
ATOM      3  C   UNK A   0      -0.095   3.847   0.024  0.00  0.00    +0.077 A 
ATOM      4  C   UNK A   0      -1.286   3.108   0.031  0.00  0.00    +0.028 A 
ATOM      5  C   UNK A   0      -1.233   1.746   0.017  0.00  0.00    +0.002 A 
ATOM      6  C   UNK A   0      -0.013   1.076   0.008  0.00  0.00    +0.001 A 
ATOM      7  C   UNK A   0       1.165   1.765   0.000  0.00  0.00    +0.013 A 
ATOM      8  C   UNK A   0       1.146   3.163   0.008  0.00  0.00    +0.040 A 
ATOM      9  C   UNK A   0       2.337   3.931   0.001  0.00  0.00    +0.131 A 
ATOM     10  N   UNK A   0       2.233   5.252   0.010  0.00  0.00    -0.212 NA
ENDROOT
BRANCH   1  14
ATOM     11  C   UNK A   0       0.918  10.104   0.050  0.00  0.00    -0.042 A 
ATOM     12  C   UNK A   0      -0.260   9.379   0.056  0.00  0.00    +0.005 A 
ATOM     13  C   UNK A   0      -0.225   7.999   0.048  0.00  0.00    +0.012 A 
ATOM     14  C   UNK A   0       1.001   7.336   0.033  0.00  0.00    +0.019 A 
ATOM     15  C   UNK A   0       2.185   8.072   0.032  0.00  0.00    +0.012 A 
ATOM     16  C   UNK A   0       2.138   9.451   0.035  0.00  0.00    +0.005 A 
BRANCH  11  18
ATOM     17  C   UNK A   0       0.148  12.091   1.317  0.00  0.00    +0.015 C 
ATOM     18  C   UNK A   0       0.873  11.610   0.059  0.00  0.00    -0.013 C 
ATOM     19  C   UNK A   0       2.299  12.163   0.049  0.00  0.00    +0.015 C 
ATOM     20  C   UNK A   0       0.125  12.105  -1.181  0.00  0.00    +0.015 C 
ENDBRANCH  11  18
ENDBRANCH   1  14
BRANCH   9  21
ATOM     21  N   ASP A   1       3.572   3.319  -0.013  0.00  0.00    -0.315 N 
ATOM     22  H   ASP A   1       3.634   2.351  -0.019  0.00  0.00    +0.148 HD
BRANCH  21  23
ATOM     23  CA  ASP A   1       4.792   4.131  -0.020  0.00  0.00    +0.196 C 
BRANCH  23  24
ATOM     24  C   ASP A   1       5.128   4.520  -1.437  0.00  0.00    +0.376 C 
ATOM     25  O   ASP A   1       4.422   4.157  -2.347  0.00  0.00    -0.244 OA
ATOM     26  OXT ASP A   1       6.213   5.271  -1.687  0.00  0.00    -0.244 OA
ENDBRANCH  23  24
BRANCH  23  27
ATOM     27  CB  ASP A   1       5.946   3.322   0.575  0.00  0.00    +0.159 C 
BRANCH  27  28
ATOM     28  CG  ASP A   1       5.665   3.038   2.028  0.00  0.00    +0.358 C 
ATOM     29  OD1 ASP A   1       4.645   3.441   2.535  0.00  0.00    -0.246 OA
ATOM     30  OD2 ASP A   1       6.546   2.337   2.758  0.00  0.00    -0.246 OA
ENDBRANCH  27  28
ENDBRANCH  23  27
ENDBRANCH  21  23
ENDBRANCH   9  21
TORSDOF 7
