REMARK  Name = ZINC17187992
REMARK  10 active torsions:
REMARK  status: ('A' for Active; 'I' for Inactive)
REMARK    1  A    between atoms: C_1  and  C_2
REMARK    2  A    between atoms: C_5  and  N_9
REMARK    3  A    between atoms: C_7  and  C_8
REMARK    4  A    between atoms: N_9  and  C_10
REMARK    5  A    between atoms: N_14  and  N_15
REMARK    6  A    between atoms: N_15  and  C_16
REMARK    7  A    between atoms: C_16  and  N_18
REMARK    8  A    between atoms: N_21  and  C_24
REMARK    9  A    between atoms: C_27  and  C_31
REMARK   10  A    between atoms: C_28  and  C_30
REMARK                            x       y       z     vdW  Elec       q    Type
REMARK                         _______ _______ _______ _____ _____    ______ ____
ROOT
ATOM      1  C   UNL     1      -2.218   5.550  -1.018  0.00  0.00    +0.256 C 
ATOM      2  O   UNL     1      -2.001   4.611  -1.754  0.00  0.00    -0.270 OA
ATOM      3  C   UNL     1      -1.350   5.775   0.193  0.00  0.00    +0.131 C 
ATOM      4  C   UNL     1      -0.276   4.707   0.285  0.00  0.00    +0.161 C 
ATOM      5  N   UNL     1      -0.438   3.421   0.416  0.00  0.00    -0.175 NA
ATOM      6  C   UNL     1       0.987   5.448   0.187  0.00  0.00    +0.278 C 
ATOM      7  O   UNL     1       2.095   4.946   0.216  0.00  0.00    -0.267 OA
ATOM      8  N   UNL     1       0.742   6.758   0.061  0.00  0.00    -0.201 N 
ATOM      9  C   UNL     1      -0.564   7.061   0.056  0.00  0.00    +0.265 C 
ATOM     10  O   UNL     1      -1.035   8.174  -0.045  0.00  0.00    -0.269 OA
ENDROOT
BRANCH   8  11
ATOM     11  C   UNL     1       1.754   7.720  -0.054  0.00  0.00    +0.045 A 
ATOM     12  C   UNL     1       2.596   7.976   1.019  0.00  0.00    +0.024 A 
ATOM     13  C   UNL     1       3.596   8.921   0.900  0.00  0.00    +0.005 A 
ATOM     14  C   UNL     1       3.752   9.620  -0.283  0.00  0.00    -0.047 A 
ATOM     15  C   UNL     1       2.911   9.371  -1.352  0.00  0.00    -0.046 A 
ATOM     16  C   UNL     1       1.913   8.423  -1.241  0.00  0.00    +0.027 A 
ATOM     17  C   UNL     1       3.084  10.135  -2.640  0.00  0.00    +0.044 C 
ATOM     18  C   UNL     1       4.841  10.655  -0.408  0.00  0.00    +0.044 C 
ENDBRANCH   8  11
BRANCH   1  19
ATOM     19  N   UNL     1      -3.236   6.393  -1.284  0.00  0.00    -0.281 N 
ATOM     20  H   UNL     1      -3.388   7.285  -0.660  0.00  0.00    +0.155 HD
BRANCH  19  25
ATOM     21  C   UNL     1      -6.738   5.333  -5.620  0.00  0.00    +0.044 C 
ATOM     22  C   UNL     1      -5.808   5.615  -4.468  0.00  0.00    -0.047 A 
ATOM     23  C   UNL     1      -4.464   5.306  -4.575  0.00  0.00    +0.005 A 
ATOM     24  C   UNL     1      -3.609   5.563  -3.522  0.00  0.00    +0.023 A 
ATOM     25  C   UNL     1      -4.100   6.131  -2.353  0.00  0.00    +0.034 A 
ATOM     26  C   UNL     1      -5.450   6.434  -2.246  0.00  0.00    +0.027 A 
ATOM     27  C   UNL     1      -6.300   6.181  -3.306  0.00  0.00    -0.046 A 
ATOM     28  C   UNL     1      -7.764   6.516  -3.194  0.00  0.00    +0.044 C 
ENDBRANCH  19  25
ENDBRANCH   1  19
BRANCH   5  29
ATOM     29  N   UNL     1      -1.729   2.883   0.494  0.00  0.00    -0.218 N 
ATOM     30  H   UNL     1      -2.606   3.546   0.445  0.00  0.00    +0.176 HD
BRANCH  29  31
ATOM     31  C   UNL     1      -1.897   1.552   0.630  0.00  0.00    +0.147 C 
ATOM     32  S   UNL     1      -3.475   0.894   0.726  0.00  0.00    -0.017 S 
BRANCH  31  33
ATOM     33  N   UNL     1      -0.824   0.740   0.691  0.00  0.00    -0.339 N 
ATOM     34  H   UNL     1      -0.961  -0.346   0.802  0.00  0.00    +0.144 HD
ATOM     35  H   UNL     1       0.190   1.163   0.630  0.00  0.00    +0.144 HD
ENDBRANCH  31  33
ENDBRANCH  29  31
ENDBRANCH   5  29
TORSDOF 6
