REMARK  Name = ZINC23379417
REMARK  6 active torsions:
REMARK  status: ('A' for Active; 'I' for Inactive)
REMARK    1  A    between atoms: C_4  and  N_26
REMARK    2  A    between atoms: C_6  and  C_7
REMARK    3  A    between atoms: C_16  and  C_24
REMARK    4  A    between atoms: C_17  and  N_23
REMARK    5  A    between atoms: C_18  and  C_19
REMARK    6  A    between atoms: C_18  and  C_21
REMARK                            x       y       z     vdW  Elec       q    Type
REMARK                         _______ _______ _______ _____ _____    ______ ____
ROOT
ATOM      1  C   UNL     1      -0.019   1.525   0.010  0.00  0.00    +0.066 C 
ATOM      2  C   UNL     1       1.409   2.073   0.021  0.00  0.00    +0.030 C 
ATOM      3  C   UNL     1       1.450   3.553   0.312  0.00  0.00    +0.009 C 
ATOM      4  C   UNL     1       1.632   4.382  -0.958  0.00  0.00    +0.005 C 
ATOM      5  C   UNL     1       2.936   3.941  -1.639  0.00  0.00    +0.027 C 
ATOM      6  C   UNL     1       2.790   2.487  -2.007  0.00  0.00    -0.022 C 
ATOM      7  C   UNL     1       2.078   1.667  -1.259  0.00  0.00    -0.029 C 
ATOM      8  C   UNL     1       1.909   0.253  -1.685  0.00  0.00    +0.074 C 
ATOM      9  C   UNL     1       0.945  -0.504  -1.102  0.00  0.00    +0.054 C 
ATOM     10  C   UNL     1       0.038  -0.003  -0.019  0.00  0.00    +0.188 C 
ENDROOT
BRANCH   1  16
ATOM     11  C   UNL     1      -0.636   1.342  -2.408  0.00  0.00    +0.005 A 
ATOM     12  C   UNL     1      -1.301   1.802  -3.530  0.00  0.00    +0.022 A 
ATOM     13  C   UNL     1      -2.073   2.947  -3.455  0.00  0.00    +0.071 A 
ATOM     14  C   UNL     1      -2.180   3.632  -2.257  0.00  0.00    +0.145 A 
ATOM     15  C   UNL     1      -1.519   3.169  -1.135  0.00  0.00    +0.038 A 
ATOM     16  C   UNL     1      -0.743   2.027  -1.212  0.00  0.00    -0.039 A 
ATOM     17 CL   UNL     1      -2.908   3.525  -4.863  0.00  0.00    -0.081 Cl
BRANCH  14  18
ATOM     18  N   UNL     1      -3.006   4.857  -2.176  0.00  0.00    +0.058 N 
ATOM     19  O   UNL     1      -3.100   5.460  -1.122  0.00  0.00    -0.126 OA
ATOM     20  O   UNL     1      -3.592   5.263  -3.164  0.00  0.00    -0.126 OA
ENDBRANCH  14  18
ENDBRANCH   1  16
BRANCH   9  21
ATOM     21  N   UNL     1       0.792  -1.794  -1.526  0.00  0.00    -0.358 N 
ATOM     22  H   UNL     1       0.020  -2.434  -1.074  0.00  0.00    +0.142 HD
ATOM     23  H   UNL     1       1.442  -2.192  -2.320  0.00  0.00    +0.142 HD
ENDBRANCH   9  21
BRANCH  10  24
ATOM     24  C   UNL     1       0.528  -0.490   1.281  0.00  0.00    +0.091 C 
ATOM     25  N   UNL     1       0.906  -0.866   2.284  0.00  0.00    -0.194 NA
ENDBRANCH  10  24
BRANCH  10  26
ATOM     26  C   UNL     1      -1.317  -0.529  -0.246  0.00  0.00    +0.091 C 
ATOM     27  N   UNL     1      -2.364  -0.935  -0.422  0.00  0.00    -0.194 NA
ENDBRANCH  10  26
BRANCH   8  28
ATOM     28  C   UNL     1       2.754  -0.305  -2.698  0.00  0.00    +0.101 C 
ATOM     29  N   UNL     1       3.424  -0.747  -3.502  0.00  0.00    -0.191 NA
ENDBRANCH   8  28
TORSDOF 6
