REMARK  Name = ZINC39944618
REMARK  7 active torsions:
REMARK  status: ('A' for Active; 'I' for Inactive)
REMARK    1  A    between atoms: C_1  and  C_2
REMARK    2  A    between atoms: C_4  and  C_38
REMARK    3  A    between atoms: C_8  and  C_12
REMARK    4  A    between atoms: C_12  and  C_14
REMARK    5  A    between atoms: C_12  and  S_15
REMARK    6  A    between atoms: S_15  and  C_16
REMARK    7  A    between atoms: N_30  and  C_31
REMARK                            x       y       z     vdW  Elec       q    Type
REMARK                         _______ _______ _______ _____ _____    ______ ____
ROOT
ATOM      1  C   UNL     1      -4.142  -5.373   6.131  0.00  0.00    +0.223 C 
ATOM      2  N   UNL     1      -3.900  -4.693   7.416  0.00  0.00    -0.311 N 
ATOM      3  C   UNL     1      -2.588  -4.513   7.782  0.00  0.00    +0.080 A 
ATOM      4  C   UNL     1      -1.551  -5.323   7.300  0.00  0.00    +0.069 A 
ATOM      5  C   UNL     1      -0.222  -5.004   7.794  0.00  0.00    -0.023 A 
ATOM      6  C   UNL     1      -0.178  -3.960   8.651  0.00  0.00    -0.005 A 
ATOM      7  S   UNL     1      -1.859  -3.418   8.793  0.00  0.00    -0.078 S 
ATOM      8  C   UNL     1       1.036  -3.398   9.323  0.00  0.00    +0.043 C 
ATOM      9  C   UNL     1       2.178  -4.416   9.190  0.00  0.00    +0.005 C 
ATOM     10  C   UNL     1       2.255  -4.885   7.734  0.00  0.00    +0.005 C 
ATOM     11  C   UNL     1       1.042  -5.757   7.404  0.00  0.00    +0.037 C 
ATOM     12  C   UNL     1      -1.903  -6.402   6.348  0.00  0.00    +0.251 C 
ATOM     13  O   UNL     1      -1.076  -7.214   5.976  0.00  0.00    -0.270 OA
ATOM     14  N   UNL     1      -3.178  -6.446   5.910  0.00  0.00    -0.267 N 
ATOM     15  H   UNL     1      -4.631  -4.388   7.975  0.00  0.00    +0.149 HD
ENDROOT
BRANCH  14  16
ATOM     16  C   UNL     1      -3.616  -7.634   5.174  0.00  0.00    +0.079 C 
ATOM     17  C   UNL     1      -3.461  -8.871   6.062  0.00  0.00    +0.022 C 
ATOM     18  C   UNL     1      -3.919 -10.111   5.293  0.00  0.00    +0.002 C 
ATOM     19  C   UNL     1      -3.064 -10.277   4.035  0.00  0.00    +0.000 C 
ATOM     20  C   UNL     1      -3.219  -9.040   3.147  0.00  0.00    +0.002 C 
ATOM     21  C   UNL     1      -2.761  -7.799   3.916  0.00  0.00    +0.022 C 
ENDBRANCH  14  16
BRANCH   1  22
ATOM     22  S   UNL     1      -4.006  -4.165   4.785  0.00  0.00    -0.108 S 
BRANCH  22  23
ATOM     23  C   UNL     1      -5.522  -3.179   4.924  0.00  0.00    +0.112 C 
ATOM     24  C   UNL     1      -6.730  -4.048   4.567  0.00  0.00    +0.027 C 
BRANCH  23  31
ATOM     25  C   UNL     1      -7.309   1.979   0.041  0.00  0.00    +0.024 C 
ATOM     26  C   UNL     1      -6.673   1.997   1.432  0.00  0.00    +0.076 C 
ATOM     27  C   UNL     1      -5.384   1.207   1.448  0.00  0.00    -0.045 C 
ATOM     28  C   UNL     1      -5.318   0.135   2.252  0.00  0.00    +0.071 C 
ATOM     29  C   UNL     1      -6.512  -0.190   3.060  0.00  0.00    +0.111 C 
ATOM     30  N   UNL     1      -6.510  -1.226   3.865  0.00  0.00    -0.226 NA
ATOM     31  C   UNL     1      -5.448  -2.008   3.979  0.00  0.00    +0.136 C 
ATOM     32  N   UNL     1      -4.335  -1.817   3.312  0.00  0.00    -0.160 NA
ATOM     33  C   UNL     1      -4.171  -0.807   2.452  0.00  0.00    +0.271 C 
ATOM     34  O   UNL     1      -3.122  -0.658   1.848  0.00  0.00    -0.268 OA
ATOM     35  S   UNL     1      -7.699   1.062   2.638  0.00  0.00    -0.098 S 
ATOM     36  C   UNL     1      -4.213   1.610   0.589  0.00  0.00    +0.041 C 
ENDBRANCH  23  31
ENDBRANCH  22  23
ENDBRANCH   1  22
TORSDOF 4
