REMARK  Name = ZINC36520917
REMARK  21 active torsions:
REMARK  status: ('A' for Active; 'I' for Inactive)
REMARK    1  A    between atoms: C_1  and  C_2
REMARK    2  A    between atoms: C_2  and  C_3
REMARK    3  A    between atoms: C_3  and  C_4
REMARK    4  A    between atoms: C_4  and  C_5
REMARK    5  A    between atoms: C_5  and  C_6
REMARK    6  A    between atoms: C_6  and  N_7
REMARK    7  A    between atoms: N_7  and  C_8
REMARK    8  A    between atoms: C_8  and  C_10
REMARK    9  A    between atoms: C_8  and  C_20
REMARK   10  A    between atoms: C_13  and  C_16
REMARK   11  A    between atoms: N_22  and  C_23
REMARK   12  A    between atoms: C_23  and  C_24
REMARK   13  A    between atoms: C_23  and  C_25
REMARK   14  A    between atoms: C_23  and  C_26
REMARK   15  A    between atoms: C_26  and  C_27
REMARK   16  A    between atoms: C_27  and  C_28
REMARK   17  A    between atoms: C_27  and  C_29
REMARK   18  A    between atoms: C_27  and  C_30
REMARK   19  A    between atoms: C_31  and  C_33
REMARK   20  A    between atoms: C_33  and  O_34
REMARK   21  A    between atoms: O_34  and  C_35
REMARK                            x       y       z     vdW  Elec       q    Type
REMARK                         _______ _______ _______ _____ _____    ______ ____
ROOT
ATOM      1  C   UNL     1      -7.368  -6.239  -1.918  0.00  0.00    +0.192 C 
ENDROOT
BRANCH   1   2
ATOM      2  C   UNL     1      -7.311  -7.255  -3.029  0.00  0.00    -0.018 A 
ATOM      3  C   UNL     1      -6.091  -7.646  -3.547  0.00  0.00    +0.006 A 
ATOM      4  C   UNL     1      -6.039  -8.579  -4.566  0.00  0.00    +0.013 A 
ATOM      5  C   UNL     1      -7.207  -9.120  -5.068  0.00  0.00    +0.055 A 
ATOM      6  C   UNL     1      -8.428  -8.730  -4.550  0.00  0.00    +0.013 A 
ATOM      7  C   UNL     1      -8.480  -7.801  -3.527  0.00  0.00    +0.006 A 
BRANCH   5   8
ATOM      8  C   UNL     1      -7.151 -10.136  -6.180  0.00  0.00    +0.417 C 
ATOM      9  F   UNL     1      -7.065 -11.421  -5.634  0.00  0.00    -0.166 F 
ATOM     10  F   UNL     1      -8.307 -10.037  -6.961  0.00  0.00    -0.166 F 
ATOM     11  F   UNL     1      -6.027  -9.892  -6.977  0.00  0.00    -0.166 F 
ENDBRANCH   5   8
ENDBRANCH   1   2
BRANCH   1  12
ATOM     12  C   UNL     1      -8.698  -5.532  -1.951  0.00  0.00    +0.238 C 
ATOM     13  O   UNL     1      -9.439  -5.588  -0.992  0.00  0.00    -0.273 OA
ATOM     14  N   UNL     1      -9.065  -4.838  -3.046  0.00  0.00    -0.308 N 
ATOM     15  H   UNL     1      -8.473  -4.793  -3.813  0.00  0.00    +0.149 HD
BRANCH  14  16
ATOM     16  C   UNL     1     -10.359  -4.150  -3.079  0.00  0.00    +0.030 C 
ATOM     17  C   UNL     1     -11.447  -5.087  -2.550  0.00  0.00    +0.031 C 
ATOM     18  C   UNL     1     -10.293  -2.898  -2.202  0.00  0.00    +0.031 C 
BRANCH  16  19
ATOM     19  C   UNL     1     -10.687  -3.748  -4.518  0.00  0.00    +0.031 C 
BRANCH  19  20
ATOM     20  C   UNL     1      -9.464  -3.085  -5.154  0.00  0.00    -0.036 C 
ATOM     21  C   UNL     1      -8.377  -4.136  -5.388  0.00  0.00    +0.010 C 
ATOM     22  C   UNL     1      -9.862  -2.455  -6.490  0.00  0.00    +0.010 C 
ATOM     23  C   UNL     1      -8.929  -1.999  -4.218  0.00  0.00    +0.010 C 
ENDBRANCH  19  20
ENDBRANCH  16  19
ENDBRANCH  14  16
ENDBRANCH   1  12
BRANCH   1  24
ATOM     24  N   UNL     1      -7.207  -6.916  -0.629  0.00  0.00    -0.284 N 
ATOM     25  C   UNL     1      -6.264  -6.497   0.239  0.00  0.00    +0.242 C 
ATOM     26  O   UNL     1      -5.613  -5.504  -0.006  0.00  0.00    -0.273 OA
BRANCH  24  27
ATOM     27  C   UNL     1      -8.070  -8.048  -0.283  0.00  0.00    +0.109 C 
BRANCH  27  28
ATOM     28  C   UNL     1      -7.419  -9.349  -0.757  0.00  0.00    +0.019 C 
BRANCH  28  29
ATOM     29  C   UNL     1      -8.320 -10.531  -0.396  0.00  0.00    +0.002 C 
BRANCH  29  30
ATOM     30  C   UNL     1      -7.670 -11.832  -0.870  0.00  0.00    -0.000 C 
BRANCH  30  32
ATOM     31  C   UNL     1      -7.920 -14.316  -0.984  0.00  0.00    +0.004 C 
ATOM     32  C   UNL     1      -8.571 -13.015  -0.509  0.00  0.00    -0.003 C 
ENDBRANCH  30  32
ENDBRANCH  29  30
ENDBRANCH  28  29
ENDBRANCH  27  28
ENDBRANCH  24  27
BRANCH  25  33
ATOM     33  C   UNL     1      -6.021  -7.263   1.514  0.00  0.00    +0.255 C 
BRANCH  33  34
ATOM     34  O   UNL     1      -4.982  -6.626   2.261  0.00  0.00    -0.374 OA
ATOM     35  C   UNL     1      -4.671  -7.276   3.495  0.00  0.00    +0.194 C 
ENDBRANCH  33  34
ENDBRANCH  25  33
ENDBRANCH   1  24
TORSDOF 14
