REMARK  Name = ZINC39667825
REMARK  7 active torsions:
REMARK  status: ('A' for Active; 'I' for Inactive)
REMARK    1  A    between atoms: C_1  and  C_2
REMARK    2  A    between atoms: C_2  and  C_4
REMARK    3  A    between atoms: C_2  and  S_16
REMARK    4  A    between atoms: S_16  and  C_17
REMARK    5  A    between atoms: C_22  and  C_35
REMARK    6  A    between atoms: N_28  and  C_29
REMARK    7  A    between atoms: C_29  and  C_30
REMARK                            x       y       z     vdW  Elec       q    Type
REMARK                         _______ _______ _______ _____ _____    ______ ____
ROOT
ATOM      1  C   UNL     1      -0.222  -0.145   2.656  0.00  0.00    +0.223 C 
ATOM      2  N   UNL     1      -0.483   1.288   2.476  0.00  0.00    -0.317 N 
ATOM      3  C   UNL     1      -1.341   1.690   1.458  0.00  0.00    +0.042 A 
ATOM      4  C   UNL     1      -1.207   2.921   0.840  0.00  0.00    +0.038 A 
ATOM      5  C   UNL     1      -2.099   3.286  -0.169  0.00  0.00    +0.065 A 
ATOM      6  C   UNL     1      -3.122   2.412  -0.553  0.00  0.00    +0.016 A 
ATOM      7  C   UNL     1      -3.255   1.185   0.058  0.00  0.00    +0.016 A 
ATOM      8  C   UNL     1      -2.365   0.812   1.063  0.00  0.00    +0.058 A 
ATOM      9  C   UNL     1      -2.458  -0.505   1.725  0.00  0.00    +0.251 C 
ATOM     10  O   UNL     1      -3.421  -1.222   1.532  0.00  0.00    -0.270 OA
ATOM     11  N   UNL     1      -1.468  -0.903   2.543  0.00  0.00    -0.263 N 
ATOM     12  H   UNL     1      -0.065   1.943   3.057  0.00  0.00    +0.149 HD
ENDROOT
BRANCH   5  13
ATOM     13  C   UNL     1      -1.963   4.598  -0.835  0.00  0.00    +0.387 C 
ATOM     14  O   UNL     1      -1.069   5.363  -0.501  0.00  0.00    -0.241 OA
ATOM     15  O   UNL     1      -2.743   4.919  -1.719  0.00  0.00    -0.241 OA
ENDBRANCH   5  13
BRANCH   1  16
ATOM     16  S   UNL     1       0.941  -0.708   1.383  0.00  0.00    -0.108 S 
BRANCH  16  18
ATOM     17  C   UNL     1       2.974  -0.708   3.212  0.00  0.00    +0.027 C 
ATOM     18  C   UNL     1       2.536  -0.028   1.913  0.00  0.00    +0.112 C 
BRANCH  18  19
ATOM     19  C   UNL     1       3.569  -0.275   0.844  0.00  0.00    +0.123 A 
ATOM     20  N   UNL     1       4.858   0.066   1.102  0.00  0.00    -0.309 N 
ATOM     21  H   UNL     1       5.090   0.457   1.958  0.00  0.00    +0.170 HD
ATOM     22  C   UNL     1       5.823  -0.137   0.174  0.00  0.00    +0.259 A 
ATOM     23  O   UNL     1       6.982   0.163   0.392  0.00  0.00    -0.267 OA
ATOM     24  C   UNL     1       5.416  -0.733  -1.107  0.00  0.00    +0.065 A 
ATOM     25  C   UNL     1       6.331  -0.982  -2.127  0.00  0.00    +0.015 A 
ATOM     26  C   UNL     1       5.895  -1.543  -3.308  0.00  0.00    +0.001 A 
ATOM     27  C   UNL     1       4.555  -1.860  -3.487  0.00  0.00    +0.002 A 
ATOM     28  C   UNL     1       3.635  -1.622  -2.491  0.00  0.00    +0.028 A 
ATOM     29  C   UNL     1       4.053  -1.055  -1.285  0.00  0.00    +0.078 A 
ATOM     30  N   UNL     1       3.181  -0.808  -0.275  0.00  0.00    -0.233 NA
ENDBRANCH  18  19
ENDBRANCH  16  18
ENDBRANCH   1  16
BRANCH  11  31
ATOM     31  C   UNL     1      -1.643  -2.122   3.336  0.00  0.00    +0.185 C 
BRANCH  31  32
ATOM     32  C   UNL     1      -2.265  -1.774   4.664  0.00  0.00    +0.122 A 
ATOM     33  C   UNL     1      -3.583  -1.734   4.929  0.00  0.00    +0.046 A 
ATOM     34  C   UNL     1      -3.717  -1.365   6.287  0.00  0.00    +0.041 A 
ATOM     35  C   UNL     1      -2.472  -1.202   6.771  0.00  0.00    +0.195 A 
ATOM     36  O   UNL     1      -1.597  -1.456   5.785  0.00  0.00    -0.466 OA
ENDBRANCH  31  32
ENDBRANCH  11  31
TORSDOF 6
