REMARK  Name = ZINC39584764
REMARK  7 active torsions:
REMARK  status: ('A' for Active; 'I' for Inactive)
REMARK    1  A    between atoms: C_4  and  C_7
REMARK    2  A    between atoms: C_11  and  S_21
REMARK    3  A    between atoms: N_13  and  C_14
REMARK    4  A    between atoms: S_21  and  C_22
REMARK    5  A    between atoms: C_22  and  C_23
REMARK    6  A    between atoms: N_25  and  N_26
REMARK    7  A    between atoms: C_27  and  C_28
REMARK                            x       y       z     vdW  Elec       q    Type
REMARK                         _______ _______ _______ _____ _____    ______ ____
ROOT
ATOM      1  C   UNL     1       3.547  -0.640  -0.182  0.00  0.00    +0.188 C 
ATOM      2  N   UNL     1       4.594   0.056  -0.965  0.00  0.00    -0.230 NA
ATOM      3  N   UNL     1       5.503  -1.018  -1.396  0.00  0.00    -0.226 NA
ATOM      4  C   UNL     1       4.576  -2.142  -1.689  0.00  0.00    +0.218 C 
ATOM      5  N   UNL     1       3.537  -2.039  -0.643  0.00  0.00    -0.284 N 
ATOM      6  H   UNL     1       4.194   0.532  -1.760  0.00  0.00    +0.143 HD
ATOM      7  H   UNL     1       6.015  -0.748  -2.222  0.00  0.00    +0.143 HD
ENDROOT
BRANCH   5   8
ATOM      8  C   UNL     1       2.707  -3.065  -0.182  0.00  0.00    +0.033 A 
ATOM      9  C   UNL     1       1.858  -2.843   0.895  0.00  0.00    +0.024 A 
ATOM     10  C   UNL     1       1.039  -3.858   1.348  0.00  0.00    +0.022 A 
ATOM     11  C   UNL     1       1.065  -5.097   0.731  0.00  0.00    +0.041 A 
ATOM     12  C   UNL     1       1.910  -5.321  -0.342  0.00  0.00    +0.022 A 
ATOM     13  C   UNL     1       2.727  -4.308  -0.803  0.00  0.00    +0.024 A 
ATOM     14 CL   UNL     1       0.035  -6.372   1.304  0.00  0.00    -0.084 Cl
ENDBRANCH   5   8
BRANCH   1  18
ATOM     15  C   UNL     1      -0.259   1.163  -0.895  0.00  0.00    +0.000 A 
ATOM     16  C   UNL     1       0.420   0.551  -1.931  0.00  0.00    +0.000 A 
ATOM     17  C   UNL     1       1.652  -0.033  -1.700  0.00  0.00    +0.007 A 
ATOM     18  C   UNL     1       2.205  -0.003  -0.434  0.00  0.00    -0.012 A 
ATOM     19  C   UNL     1       1.526   0.611   0.602  0.00  0.00    +0.007 A 
ATOM     20  C   UNL     1       0.293   1.193   0.372  0.00  0.00    +0.000 A 
ENDBRANCH   1  18
BRANCH   4  21
ATOM     21  S   UNL     1       5.445  -3.730  -1.568  0.00  0.00    -0.112 S 
BRANCH  21  22
ATOM     22  C   UNL     1       6.075  -3.757   0.133  0.00  0.00    +0.169 C 
BRANCH  22  23
ATOM     23  C   UNL     1       6.829  -5.040   0.368  0.00  0.00    +0.242 C 
ATOM     24  O   UNL     1       6.931  -5.856  -0.523  0.00  0.00    -0.273 OA
ATOM     25  N   UNL     1       7.389  -5.282   1.570  0.00  0.00    -0.206 N 
ATOM     26  H   UNL     1       7.308  -4.629   2.283  0.00  0.00    +0.177 HD
BRANCH  25  27
ATOM     27  N   UNL     1       8.090  -6.475   1.790  0.00  0.00    -0.188 NA
ATOM     28  C   UNL     1       8.634  -6.709   2.957  0.00  0.00    +0.136 C 
BRANCH  28  29
ATOM     29  C   UNL     1       9.336  -7.903   3.177  0.00  0.00    +0.000 C 
ATOM     30  C   UNL     1       9.964  -8.307   4.352  0.00  0.00    +0.004 A 
ATOM     31  C   UNL     1      10.099  -7.698   5.620  0.00  0.00    +0.010 A 
ATOM     32  C   UNL     1      10.782  -8.336   6.603  0.00  0.00    +0.001 A 
ATOM     33  C   UNL     1      11.363  -9.591   6.397  0.00  0.00    +0.002 A 
ATOM     34  C   UNL     1      11.274 -10.233   5.208  0.00  0.00    +0.026 A 
ATOM     35  C   UNL     1      10.575  -9.629   4.129  0.00  0.00    +0.043 A 
ATOM     36  N   UNL     1      10.350 -10.038   2.898  0.00  0.00    -0.380 N 
ATOM     37  C   UNL     1       9.562  -9.026   2.188  0.00  0.00    +0.150 C 
ATOM     38  H   UNL     1      10.655 -10.878   2.522  0.00  0.00    +0.160 HD
ENDBRANCH  28  29
ENDBRANCH  25  27
ENDBRANCH  22  23
ENDBRANCH  21  22
ENDBRANCH   4  21
TORSDOF 7
