REMARK  Name = ZINC33656609
REMARK  10 active torsions:
REMARK  status: ('A' for Active; 'I' for Inactive)
REMARK    1  A    between atoms: C_1  and  C_2
REMARK    2  A    between atoms: C_2  and  C_3
REMARK    3  A    between atoms: C_2  and  C_4
REMARK    4  A    between atoms: C_4  and  N_5
REMARK    5  A    between atoms: C_6  and  C_8
REMARK    6  A    between atoms: C_10  and  N_17
REMARK    7  A    between atoms: C_13  and  N_14
REMARK    8  A    between atoms: N_14  and  C_15
REMARK    9  A    between atoms: N_14  and  C_16
REMARK   10  A    between atoms: N_20  and  C_21
REMARK                            x       y       z     vdW  Elec       q    Type
REMARK                         _______ _______ _______ _____ _____    ______ ____
ROOT
ATOM      1  C   UNL     1       1.175   3.319   0.364  0.00  0.00    +0.059 A 
ATOM      2  C   UNL     1      -0.066   3.959   0.324  0.00  0.00    +0.038 A 
ATOM      3  C   UNL     1      -1.220   3.216   0.151  0.00  0.00    +0.036 A 
ATOM      4  C   UNL     1      -1.147   1.833   0.012  0.00  0.00    +0.025 A 
ATOM      5  C   UNL     1       0.073   1.191   0.056  0.00  0.00    +0.025 A 
ATOM      6  C   UNL     1       1.241   1.924   0.229  0.00  0.00    +0.042 A 
ENDROOT
BRANCH   3   7
ATOM      7  N   UNL     1      -2.466   3.857   0.110  0.00  0.00    -0.269 N 
ATOM      8  C   UNL     1      -3.557   3.242   0.606  0.00  0.00    +0.308 C 
ATOM      9  O   UNL     1      -3.447   2.173   1.175  0.00  0.00    -0.252 OA
ATOM     10  N   UNL     1      -4.772   3.811   0.470  0.00  0.00    -0.268 N 
ATOM     11  H   UNL     1      -2.552   4.864  -0.326  0.00  0.00    +0.156 HD
ATOM     12  H   UNL     1      -4.885   4.732  -0.121  0.00  0.00    +0.156 HD
BRANCH  10  13
ATOM     13  C   UNL     1      -5.889   3.230   1.081  0.00  0.00    +0.049 A 
ATOM     14  C   UNL     1      -5.724   2.369   2.159  0.00  0.00    +0.024 A 
ATOM     15  C   UNL     1      -6.829   1.802   2.763  0.00  0.00    +0.002 A 
ATOM     16  C   UNL     1      -8.098   2.081   2.290  0.00  0.00    +0.001 A 
ATOM     17  C   UNL     1      -8.266   2.933   1.214  0.00  0.00    +0.017 A 
ATOM     18  C   UNL     1      -7.165   3.508   0.608  0.00  0.00    +0.039 A 
ATOM     19 BR   UNL     1      -7.395   4.673  -0.864  0.00  0.00    -0.048 Br
ENDBRANCH  10  13
ENDBRANCH   3   7
BRANCH   1  21
ATOM     20  N   UNL     1       2.341   5.444   0.677  0.00  0.00    -0.311 N 
ATOM     21  C   UNL     1       2.409   4.105   0.547  0.00  0.00    +0.246 C 
ATOM     22  O   UNL     1       3.487   3.544   0.581  0.00  0.00    -0.270 OA
ATOM     23  H   UNL     1       1.366   5.952   0.646  0.00  0.00    +0.149 HD
BRANCH  20  24
ATOM     24  C   UNL     1       3.568   6.225   0.859  0.00  0.00    +0.107 C 
BRANCH  24  26
ATOM     25  C   UNL     1       2.396   7.937   2.252  0.00  0.00    +0.009 C 
ATOM     26  C   UNL     1       3.214   7.709   0.979  0.00  0.00    -0.000 C 
ATOM     27  C   UNL     1       4.500   8.536   1.044  0.00  0.00    +0.009 C 
ENDBRANCH  24  26
ENDBRANCH  20  24
ENDBRANCH   1  21
BRANCH   6  28
ATOM     28  N   UNL     1       2.471   1.277   0.267  0.00  0.00    -0.335 N 
ATOM     29  C   UNL     1       2.523   0.309   1.371  0.00  0.00    +0.129 C 
ATOM     30  C   UNL     1       2.764   0.626  -1.017  0.00  0.00    +0.129 C 
ENDBRANCH   6  28
TORSDOF 6
