REMARK  Name = ZINC09102073
REMARK  11 active torsions:
REMARK  status: ('A' for Active; 'I' for Inactive)
REMARK    1  A    between atoms: C_1  and  C_2
REMARK    2  A    between atoms: C_2  and  C_4
REMARK    3  A    between atoms: C_2  and  N_51
REMARK    4  A    between atoms: C_7  and  S_16
REMARK    5  A    between atoms: N_8  and  C_9
REMARK    6  A    between atoms: S_16  and  C_17
REMARK    7  A    between atoms: C_17  and  C_19
REMARK    8  A    between atoms: C_17  and  C_20
REMARK    9  A    between atoms: C_20  and  C_22
REMARK   10  A    between atoms: C_29  and  N_51
REMARK   11  A    between atoms: C_30  and  N_51
REMARK                            x       y       z     vdW  Elec       q    Type
REMARK                         _______ _______ _______ _____ _____    ______ ____
ROOT
ATOM      1  C   UNL     1      -1.451   3.475   2.510  0.00  0.00    +0.125 A 
ATOM      2  N   UNL     1      -2.564   2.989   2.981  0.00  0.00    -0.135 NA
ATOM      3  N   UNL     1      -2.890   3.600   4.064  0.00  0.00    -0.122 NA
ATOM      4  C   UNL     1      -1.996   4.519   4.346  0.00  0.00    +0.197 A 
ATOM      5  N   UNL     1      -1.044   4.465   3.365  0.00  0.00    -0.275 N 
ENDROOT
BRANCH   5   6
ATOM      6  C   UNL     1       0.107   5.259   3.256  0.00  0.00    +0.050 A 
ATOM      7  C   UNL     1       1.364   4.679   3.360  0.00  0.00    +0.028 A 
ATOM      8  C   UNL     1       2.496   5.462   3.248  0.00  0.00    +0.022 A 
ATOM      9  C   UNL     1       2.378   6.826   3.043  0.00  0.00    +0.041 A 
ATOM     10  C   UNL     1       1.126   7.407   2.943  0.00  0.00    +0.022 A 
ATOM     11  C   UNL     1      -0.009   6.627   3.050  0.00  0.00    +0.028 A 
ATOM     12 CL   UNL     1       3.803   7.809   2.909  0.00  0.00    -0.084 Cl
ENDBRANCH   5   6
BRANCH   1  14
ATOM     13  C   UNL     1      -1.486   3.553   0.032  0.00  0.00    -0.005 C 
ATOM     14  C   UNL     1      -0.740   3.027   1.259  0.00  0.00    -0.003 C 
BRANCH  14  17
ATOM     15  C   UNL     1      -0.013   1.086   0.008  0.00  0.00    -0.096 C 
ATOM     16  C   UNL     1      -0.072   1.015   2.428  0.00  0.00    -0.096 C 
ATOM     17  N   UNL     1      -0.727   1.550   1.216  0.00  0.00    +0.382 N 
ATOM     18  H   UNL     1      -1.695   1.209   1.182  0.00  0.00    -0.082 HD
ENDBRANCH  14  17
ENDBRANCH   1  14
BRANCH   4  19
ATOM     19  S   UNL     1      -2.014   5.610   5.729  0.00  0.00    -0.075 S 
BRANCH  19  20
ATOM     20  C   UNL     1      -3.542   5.070   6.535  0.00  0.00    +0.122 C 
ATOM     21  C   UNL     1      -3.379   3.628   7.022  0.00  0.00    +0.028 C 
BRANCH  20  22
ATOM     22  C   UNL     1      -3.835   5.967   7.710  0.00  0.00    +0.176 C 
ATOM     23  O   UNL     1      -2.931   6.561   8.259  0.00  0.00    -0.291 OA
BRANCH  22  24
ATOM     24  C   UNL     1      -5.216   6.122   8.191  0.00  0.00    +0.019 A 
ATOM     25  C   UNL     1      -6.262   5.444   7.556  0.00  0.00    +0.012 A 
ATOM     26  C   UNL     1      -7.553   5.590   8.015  0.00  0.00    +0.016 A 
ATOM     27  C   UNL     1      -7.818   6.416   9.095  0.00  0.00    +0.018 A 
ATOM     28  C   UNL     1      -6.789   7.096   9.726  0.00  0.00    +0.016 A 
ATOM     29  C   UNL     1      -5.492   6.955   9.281  0.00  0.00    +0.012 A 
ATOM     30 BR   UNL     1      -9.594   6.615   9.714  0.00  0.00    -0.050 Br
ENDBRANCH  22  24
ENDBRANCH  20  22
ENDBRANCH  19  20
ENDBRANCH   4  19
TORSDOF 7
