REMARK  Name = ZINC40149216
REMARK  5 active torsions:
REMARK  status: ('A' for Active; 'I' for Inactive)
REMARK    1  A    between atoms: C_4  and  N_7
REMARK    2  A    between atoms: C_8  and  C_31
REMARK    3  A    between atoms: N_10  and  C_13
REMARK    4  A    between atoms: C_13  and  N_14
REMARK    5  A    between atoms: C_18  and  C_21
REMARK                            x       y       z     vdW  Elec       q    Type
REMARK                         _______ _______ _______ _____ _____    ______ ____
ROOT
ATOM      1  C   UNL     1       7.220  -1.016  -0.343  0.00  0.00    +0.072 C 
ENDROOT
BRANCH   1   2
ATOM      2  N   UNL     1       7.644  -1.416  -1.691  0.00  0.00    +0.393 N 
ATOM      3  C   UNL     1       7.349  -2.839  -1.894  0.00  0.00    -0.076 C 
ATOM      4  C   UNL     1       7.714  -3.241  -3.325  0.00  0.00    -0.018 C 
ATOM      5  C   UNL     1       9.207  -2.991  -3.554  0.00  0.00    +0.009 C 
ATOM      6  C   UNL     1       9.517  -1.518  -3.268  0.00  0.00    +0.059 C 
ATOM      7  C   UNL     1       9.085  -1.180  -1.839  0.00  0.00    -0.064 C 
ATOM      8  H   UNL     1       7.143  -0.870  -2.376  0.00  0.00    -0.079 HD
BRANCH   6   9
ATOM      9  C   UNL     1      10.997  -1.278  -3.417  0.00  0.00    +0.220 C 
ATOM     10  O   UNL     1      11.644  -0.872  -2.475  0.00  0.00    -0.275 OA
ATOM     11  N   UNL     1      11.603  -1.514  -4.598  0.00  0.00    -0.270 N 
ATOM     12  C   UNL     1      12.988  -1.395  -4.708  0.00  0.00    +0.125 A 
ATOM     13  C   UNL     1      13.617  -1.743  -5.897  0.00  0.00    +0.045 A 
ATOM     14  C   UNL     1      14.992  -1.620  -5.993  0.00  0.00    +0.025 A 
ATOM     15  C   UNL     1      15.693  -1.150  -4.890  0.00  0.00    +0.059 A 
ATOM     16  C   UNL     1      15.003  -0.823  -3.739  0.00  0.00    +0.132 A 
ATOM     17  N   UNL     1      13.690  -0.946  -3.680  0.00  0.00    -0.239 NA
ATOM     18 CL   UNL     1      17.419  -0.977  -4.957  0.00  0.00    -0.082 Cl
ATOM     19  H   UNL     1      11.075  -1.767  -5.372  0.00  0.00    +0.156 HD
ENDBRANCH   6   9
ENDBRANCH   1   2
BRANCH   1  23
ATOM     20  N   UNL     1       3.644  -0.654  -0.114  0.00  0.00    -0.269 N 
ATOM     21  C   UNL     1       3.772  -2.030  -0.036  0.00  0.00    +0.203 A 
ATOM     22  N   UNL     1       5.041  -2.332  -0.106  0.00  0.00    -0.149 NA
ATOM     23  N   UNL     1       5.764  -1.138  -0.233  0.00  0.00    -0.257 N 
ATOM     24  C   UNL     1       4.877  -0.123  -0.240  0.00  0.00    +0.181 A 
ATOM     25  S   UNL     1       5.249   1.542  -0.381  0.00  0.00    -0.011 S 
BRANCH  20  29
ATOM     26  C   UNL     1       0.065   1.478   0.003  0.00  0.00    +0.000 A 
ATOM     27  C   UNL     1       0.791   1.411  -1.173  0.00  0.00    +0.002 A 
ATOM     28  C   UNL     1       1.977   0.706  -1.215  0.00  0.00    +0.026 A 
ATOM     29  C   UNL     1       2.442   0.063  -0.075  0.00  0.00    +0.051 A 
ATOM     30  C   UNL     1       1.711   0.132   1.104  0.00  0.00    +0.026 A 
ATOM     31  C   UNL     1       0.525   0.839   1.139  0.00  0.00    +0.002 A 
ENDBRANCH  20  29
BRANCH  21  32
ATOM     32  C   UNL     1       2.664  -2.990   0.103  0.00  0.00    +0.172 A 
ATOM     33  C   UNL     1       2.789  -4.332   0.296  0.00  0.00    +0.053 A 
ATOM     34  C   UNL     1       1.484  -4.854   0.373  0.00  0.00    +0.042 A 
ATOM     35  C   UNL     1       0.634  -3.818   0.225  0.00  0.00    +0.196 A 
ATOM     36  O   UNL     1       1.350  -2.693   0.067  0.00  0.00    -0.460 OA
ENDBRANCH  21  32
ENDBRANCH   1  23
TORSDOF 5
