REMARK  Name = ZINC09931487
REMARK  5 active torsions:
REMARK  status: ('A' for Active; 'I' for Inactive)
REMARK    1  A    between atoms: C_3  and  N_20
REMARK    2  A    between atoms: C_6  and  C_7
REMARK    3  A    between atoms: C_13  and  C_16
REMARK    4  A    between atoms: N_20  and  S_21
REMARK    5  A    between atoms: S_21  and  C_24
REMARK                            x       y       z     vdW  Elec       q    Type
REMARK                         _______ _______ _______ _____ _____    ______ ____
ROOT
ATOM      1  C   UNL     1      -0.176   1.390   0.865  0.00  0.00    +0.015 A 
ATOM      2  C   UNL     1       0.912   2.146   0.493  0.00  0.00    +0.025 A 
ATOM      3  C   UNL     1       2.149   1.538   0.296  0.00  0.00    +0.048 A 
ATOM      4  C   UNL     1       2.289   0.165   0.474  0.00  0.00    +0.025 A 
ATOM      5  C   UNL     1       1.205  -0.597   0.845  0.00  0.00    +0.015 A 
ATOM      6  C   UNL     1      -0.038   0.011   1.045  0.00  0.00    +0.037 A 
ENDROOT
BRANCH   6   7
ATOM      7  C   UNL     1      -1.202  -0.803   1.444  0.00  0.00    +0.247 C 
ATOM      8  O   UNL     1      -1.072  -1.688   2.267  0.00  0.00    -0.270 OA
ATOM      9  N   UNL     1      -2.411  -0.564   0.896  0.00  0.00    -0.297 N 
ATOM     10  C   UNL     1      -2.559   0.410  -0.193  0.00  0.00    +0.108 C 
ATOM     11  C   UNL     1      -3.267  -0.270  -1.370  0.00  0.00    +0.020 C 
ATOM     12  C   UNL     1      -4.585  -0.877  -0.885  0.00  0.00    +0.015 C 
ATOM     13  C   UNL     1      -4.299  -1.935   0.183  0.00  0.00    +0.110 C 
ATOM     14  C   UNL     1      -3.603  -1.279   1.373  0.00  0.00    +0.120 C 
BRANCH  13  15
ATOM     15  C   UNL     1      -5.615  -2.566   0.642  0.00  0.00    +0.394 C 
ATOM     16  F   UNL     1      -6.251  -3.166  -0.450  0.00  0.00    -0.170 F 
ATOM     17  F   UNL     1      -5.353  -3.533   1.619  0.00  0.00    -0.170 F 
ATOM     18  F   UNL     1      -6.445  -1.575   1.178  0.00  0.00    -0.170 F 
ENDBRANCH  13  15
ENDBRANCH   6   7
BRANCH   3  19
ATOM     19  N   UNL     1       3.246   2.305  -0.080  0.00  0.00    -0.216 N 
ATOM     20  H   UNL     1       3.162   2.954  -0.796  0.00  0.00    +0.174 HD
BRANCH  19  21
ATOM     21  S   UNL     1       4.697   2.110   0.694  0.00  0.00    +0.072 S 
ATOM     22  O   UNL     1       4.976   0.717   0.688  0.00  0.00    -0.150 OA
ATOM     23  O   UNL     1       5.587   3.067   0.136  0.00  0.00    -0.150 OA
BRANCH  21  24
ATOM     24  C   UNL     1       4.455   2.568   2.378  0.00  0.00    +0.111 A 
ATOM     25  C   UNL     1       4.541   3.899   2.749  0.00  0.00    +0.031 A 
ATOM     26  C   UNL     1       4.353   4.268   4.067  0.00  0.00    +0.030 A 
ATOM     27  C   UNL     1       4.077   3.301   5.021  0.00  0.00    +0.067 A 
ATOM     28  C   UNL     1       3.990   1.958   4.647  0.00  0.00    +0.069 A 
ATOM     29  C   UNL     1       4.175   1.598   3.321  0.00  0.00    +0.056 A 
ATOM     30  N   UNL     1       3.705   1.235   5.803  0.00  0.00    -0.306 N 
ATOM     31  H   UNL     1       3.586   0.274   5.856  0.00  0.00    +0.170 HD
ATOM     32  C   UNL     1       3.622   2.098   6.833  0.00  0.00    +0.325 A 
ATOM     33  O   UNL     1       3.386   1.791   7.987  0.00  0.00    -0.247 OA
ATOM     34  N   UNL     1       3.842   3.352   6.394  0.00  0.00    -0.306 N 
ATOM     35  H   UNL     1       3.837   4.153   6.939  0.00  0.00    +0.170 HD
ENDBRANCH  21  24
ENDBRANCH  19  21
ENDBRANCH   3  19
TORSDOF 5
