REMARK  Name = ZINC10166097
REMARK  7 active torsions:
REMARK  status: ('A' for Active; 'I' for Inactive)
REMARK    1  A    between atoms: C_1  and  C_2
REMARK    2  A    between atoms: C_3  and  C_15
REMARK    3  A    between atoms: N_5  and  C_7
REMARK    4  A    between atoms: C_15  and  O_17
REMARK    5  A    between atoms: O_17  and  C_18
REMARK    6  A    between atoms: C_18  and  C_19
REMARK    7  A    between atoms: N_21  and  C_22
REMARK                            x       y       z     vdW  Elec       q    Type
REMARK                         _______ _______ _______ _____ _____    ______ ____
ROOT
ATOM      1  C   UNL     1       4.498   8.083  -1.098  0.00  0.00    +0.344 C 
ATOM      2  O   UNL     1       5.613   7.656  -0.874  0.00  0.00    -0.245 OA
ENDROOT
BRANCH   1   5
ATOM      3  C   UNL     1       4.053  10.587   0.800  0.00  0.00    +0.068 C 
ATOM      4  C   UNL     1       4.119  10.601  -0.705  0.00  0.00    +0.076 A 
ATOM      5  C   UNL     1       4.319   9.476  -1.538  0.00  0.00    +0.118 A 
ATOM      6  C   UNL     1       4.307   9.930  -2.845  0.00  0.00    +0.147 A 
ATOM      7  N   UNL     1       4.117  11.262  -2.805  0.00  0.00    -0.220 N 
ATOM      8  N   UNL     1       4.006  11.654  -1.467  0.00  0.00    -0.169 NA
ATOM      9 CL   UNL     1       4.503   8.961  -4.273  0.00  0.00    -0.061 Cl
BRANCH   7  10
ATOM     10  C   UNL     1       4.042  12.112  -3.917  0.00  0.00    +0.067 A 
ATOM     11  C   UNL     1       4.824  11.864  -5.037  0.00  0.00    +0.030 A 
ATOM     12  C   UNL     1       4.746  12.700  -6.133  0.00  0.00    +0.040 A 
ATOM     13  C   UNL     1       3.894  13.792  -6.112  0.00  0.00    +0.124 A 
ATOM     14  C   UNL     1       3.116  14.044  -4.994  0.00  0.00    +0.040 A 
ATOM     15  C   UNL     1       3.188  13.208  -3.898  0.00  0.00    +0.030 A 
ATOM     16  F   UNL     1       3.822  14.612  -7.183  0.00  0.00    -0.205 F 
ENDBRANCH   7  10
ENDBRANCH   1   5
BRANCH   1  17
ATOM     17  O   UNL     1       3.425   7.282  -0.944  0.00  0.00    -0.452 OA
BRANCH  17  18
ATOM     18  C   UNL     1       3.677   5.920  -0.507  0.00  0.00    +0.328 C 
BRANCH  18  19
ATOM     19  C   UNL     1       2.370   5.180  -0.392  0.00  0.00    +0.255 C 
ATOM     20  O   UNL     1       1.328   5.744  -0.651  0.00  0.00    -0.272 OA
ATOM     21  N   UNL     1       2.358   3.890   0.001  0.00  0.00    -0.280 N 
ATOM     22  H   UNL     1       3.182   3.460   0.278  0.00  0.00    +0.155 HD
BRANCH  21  23
ATOM     23  C   UNL     1       1.156   3.172   0.008  0.00  0.00    +0.071 A 
ATOM     24  C   UNL     1       0.748   2.486  -1.129  0.00  0.00    +0.065 A 
ATOM     25  C   UNL     1      -0.439   1.777  -1.118  0.00  0.00    +0.042 A 
ATOM     26  C   UNL     1      -1.223   1.755   0.021  0.00  0.00    +0.044 A 
ATOM     27  C   UNL     1      -0.817   2.433   1.157  0.00  0.00    +0.042 A 
ATOM     28  C   UNL     1       0.369   3.143   1.153  0.00  0.00    +0.065 A 
ATOM     29 CL   UNL     1       0.875   3.999   2.576  0.00  0.00    -0.082 Cl
ATOM     30 CL   UNL     1      -2.716   0.870   0.028  0.00  0.00    -0.083 Cl
ATOM     31 CL   UNL     1       1.728   2.518  -2.561  0.00  0.00    -0.082 Cl
ENDBRANCH  21  23
ENDBRANCH  18  19
ENDBRANCH  17  18
ENDBRANCH   1  17
TORSDOF 6
