REMARK  Name = ZINC12503996
REMARK  4 active torsions:
REMARK  status: ('A' for Active; 'I' for Inactive)
REMARK    1  A    between atoms: C_1  and  C_2
REMARK    2  A    between atoms: C_5  and  O_27
REMARK    3  A    between atoms: C_18  and  C_26
REMARK    4  A    between atoms: C_23  and  O_25
REMARK                            x       y       z     vdW  Elec       q    Type
REMARK                         _______ _______ _______ _____ _____    ______ ____
ROOT
ATOM      1  C   UNL     1       0.345   3.548  -3.729  0.00  0.00    +0.012 C 
ATOM      2  C   UNL     1       1.123   3.100  -2.490  0.00  0.00    -0.026 C 
ATOM      3  C   UNL     1       1.263   1.576  -2.501  0.00  0.00    +0.010 C 
ATOM      4  C   UNL     1       2.040   1.127  -1.261  0.00  0.00    +0.032 C 
ATOM      5  C   UNL     1       1.286   1.562  -0.002  0.00  0.00    +0.115 C 
ATOM      6  C   UNL     1       1.145   3.085   0.008  0.00  0.00    +0.035 C 
ATOM      7  C   UNL     1       0.368   3.533  -1.232  0.00  0.00    -0.002 C 
ATOM      8  C   UNL     1       0.228   5.056  -1.224  0.00  0.00    +0.004 C 
ATOM      9  C   UNL     1       1.619   5.692  -1.221  0.00  0.00    +0.004 C 
ATOM     10  C   UNL     1       2.384   5.259  -2.474  0.00  0.00    -0.004 C 
ATOM     11  C   UNL     1       2.514   3.739  -2.502  0.00  0.00    -0.001 C 
ATOM     12  C   UNL     1       3.234   3.333  -3.794  0.00  0.00    +0.005 C 
ATOM     13  C   UNL     1       4.669   3.905  -3.709  0.00  0.00    +0.010 C 
ATOM     14  C   UNL     1       4.640   5.411  -3.605  0.00  0.00    -0.003 C 
ATOM     15  C   UNL     1       3.762   5.927  -2.451  0.00  0.00    +0.001 C 
ATOM     16  C   UNL     1       3.535   7.420  -2.811  0.00  0.00    +0.007 C 
ATOM     17  C   UNL     1       3.675   7.502  -4.357  0.00  0.00    +0.032 C 
ATOM     18  C   UNL     1       4.024   6.079  -4.849  0.00  0.00    +0.121 C 
ATOM     19  C   UNL     1       6.067   5.933  -3.425  0.00  0.00    +0.014 C 
ENDROOT
BRANCH  18  20
ATOM     20  O   UNL     1       2.845   5.385  -5.261  0.00  0.00    -0.391 OA
ATOM     21  H   UNL     1       2.417   5.764  -6.041  0.00  0.00    +0.210 HD
ENDBRANCH  18  20
BRANCH   5  22
ATOM     22  O   UNL     1      -0.011   0.963   0.007  0.00  0.00    -0.392 OA
ATOM     23  H   UNL     1       0.002  -0.004   0.002  0.00  0.00    +0.210 HD
ENDBRANCH   5  22
TORSDOF 2
