REMARK  Name = ZINC07777905
REMARK  7 active torsions:
REMARK  status: ('A' for Active; 'I' for Inactive)
REMARK    1  A    between atoms: C_4  and  C_7
REMARK    2  A    between atoms: C_7  and  C_9
REMARK    3  A    between atoms: C_7  and  N_44
REMARK    4  A    between atoms: C_16  and  C_17
REMARK    5  A    between atoms: C_16  and  N_44
REMARK    6  A    between atoms: N_19  and  C_20
REMARK    7  A    between atoms: C_21  and  C_25
REMARK                            x       y       z     vdW  Elec       q    Type
REMARK                         _______ _______ _______ _____ _____    ______ ____
ROOT
ATOM      1  N   UNL     1       1.485  -5.057  -0.040  0.00  0.00    +0.392 N 
ATOM      2  H   UNL     1       0.904  -4.995   0.805  0.00  0.00    -0.084 HD
ATOM      3  H   UNL     1       0.887  -4.986  -0.872  0.00  0.00    -0.084 HD
ENDROOT
BRANCH   1   4
ATOM      4  C   UNL     1       2.186  -6.355  -0.054  0.00  0.00    -0.009 C 
BRANCH   4   5
ATOM      5  C   UNL     1       1.280  -7.400  -0.651  0.00  0.00    -0.057 A 
ATOM      6  C   UNL     1      -0.067  -7.406  -0.341  0.00  0.00    +0.004 A 
ATOM      7  C   UNL     1      -0.900  -8.361  -0.892  0.00  0.00    +0.020 A 
ATOM      8  C   UNL     1      -0.383  -9.318  -1.747  0.00  0.00    +0.041 A 
ATOM      9  C   UNL     1       0.966  -9.315  -2.054  0.00  0.00    +0.020 A 
ATOM     10  C   UNL     1       1.797  -8.356  -1.505  0.00  0.00    +0.004 A 
ATOM     11 CL   UNL     1      -1.427 -10.523  -2.435  0.00  0.00    -0.084 Cl
ENDBRANCH   4   5
BRANCH   4  15
ATOM     12  C   UNL     1       3.205  -7.468   3.942  0.00  0.00    +0.000 A 
ATOM     13  C   UNL     1       4.096  -7.701   2.911  0.00  0.00    +0.000 A 
ATOM     14  C   UNL     1       3.766  -7.341   1.618  0.00  0.00    +0.002 A 
ATOM     15  C   UNL     1       2.545  -6.747   1.356  0.00  0.00    -0.057 A 
ATOM     16  C   UNL     1       1.657  -6.509   2.388  0.00  0.00    +0.002 A 
ATOM     17  C   UNL     1       1.984  -6.874   3.680  0.00  0.00    +0.000 A 
ENDBRANCH   4  15
ENDBRANCH   1   4
BRANCH   1  18
ATOM     18  C   UNL     1       2.458  -3.949  -0.043  0.00  0.00    +0.016 C 
BRANCH  18  19
ATOM     19  C   UNL     1       1.715  -2.638  -0.029  0.00  0.00    +0.201 C 
ATOM     20  O   UNL     1       0.502  -2.629  -0.017  0.00  0.00    -0.278 OA
ATOM     21  N   UNL     1       2.397  -1.476  -0.029  0.00  0.00    -0.281 N 
ATOM     22  H   UNL     1       3.367  -1.483  -0.039  0.00  0.00    +0.155 HD
BRANCH  21  23
ATOM     23  C   UNL     1       1.713  -0.270  -0.016  0.00  0.00    +0.084 A 
ATOM     24  C   UNL     1       2.234   1.018  -0.014  0.00  0.00    +0.065 A 
ATOM     25  C   UNL     1       1.283   2.104   0.001  0.00  0.00    +0.022 A 
ATOM     26  C   UNL     1      -0.022   1.776   0.012  0.00  0.00    +0.048 A 
ATOM     27  S   UNL     1       0.002  -0.004   0.002  0.00  0.00    -0.081 S 
BRANCH  24  28
ATOM     28  C   UNL     1       3.680   1.263  -0.026  0.00  0.00    +0.244 C 
ATOM     29  O   UNL     1       4.456   0.326  -0.038  0.00  0.00    -0.270 OA
ATOM     30  N   UNL     1       4.149   2.527  -0.024  0.00  0.00    -0.325 N 
ATOM     31  H   UNL     1       3.531   3.274  -0.014  0.00  0.00    +0.145 HD
ATOM     32  H   UNL     1       5.106   2.688  -0.032  0.00  0.00    +0.145 HD
ENDBRANCH  24  28
ENDBRANCH  21  23
ENDBRANCH  18  19
ENDBRANCH   1  18
TORSDOF 7
