REMARK  Name = ZINC37997111
REMARK  12 active torsions:
REMARK  status: ('A' for Active; 'I' for Inactive)
REMARK    1  A    between atoms: C_1  and  C_2
REMARK    2  A    between atoms: C_2  and  C_3
REMARK    3  A    between atoms: C_3  and  C_5
REMARK    4  A    between atoms: C_3  and  N_6
REMARK    5  A    between atoms: C_7  and  C_9
REMARK    6  A    between atoms: C_9  and  C_10
REMARK    7  A    between atoms: C_10  and  N_11
REMARK    8  A    between atoms: N_11  and  C_12
REMARK    9  A    between atoms: C_12  and  C_13
REMARK   10  A    between atoms: C_15  and  O_21
REMARK   11  A    between atoms: C_16  and  O_20
REMARK   12  A    between atoms: O_21  and  C_22
REMARK                            x       y       z     vdW  Elec       q    Type
REMARK                         _______ _______ _______ _____ _____    ______ ____
ROOT
ATOM      1  N   UNL     1      -0.078   0.898  -7.246  0.00  0.00    +0.382 N 
ATOM      2  H   UNL     1      -0.790   0.205  -7.421  0.00  0.00    -0.085 HD
ATOM      3  H   UNL     1      -0.512   1.795  -7.088  0.00  0.00    -0.085 HD
ENDROOT
BRANCH   1   4
ATOM      4  C   UNL     1       0.697   0.513  -6.059  0.00  0.00    -0.073 C 
BRANCH   4   5
ATOM      5  C   UNL     1      -0.234   0.422  -4.849  0.00  0.00    +0.077 C 
BRANCH   5   7
ATOM      6  N   UNL     1      -0.055  -0.114  -2.441  0.00  0.00    -0.313 N 
ATOM      7  C   UNL     1       0.561   0.028  -3.631  0.00  0.00    +0.211 C 
ATOM      8  O   UNL     1       1.755  -0.162  -3.722  0.00  0.00    -0.276 OA
ATOM      9  H   UNL     1      -1.010   0.038  -2.368  0.00  0.00    +0.149 HD
BRANCH   6  10
ATOM     10  C   UNL     1       0.718  -0.497  -1.257  0.00  0.00    +0.070 C 
ATOM     11  C   UNL     1       0.849  -2.021  -1.205  0.00  0.00    +0.028 C 
BRANCH  10  13
ATOM     12  C   UNL     1      -0.019   1.526   0.010  0.00  0.00    +0.005 C 
ATOM     13  C   UNL     1       0.002  -0.004   0.002  0.00  0.00    +0.018 C 
ENDBRANCH  10  13
ENDBRANCH   6  10
ENDBRANCH   5   7
ENDBRANCH   4   5
ENDBRANCH   1   4
BRANCH   1  14
ATOM     14  C   UNL     1       0.817   0.985  -8.408  0.00  0.00    -0.047 C 
BRANCH  14  15
ATOM     15  C   UNL     1       0.021   1.379  -9.626  0.00  0.00    -0.060 A 
ATOM     16  C   UNL     1      -0.550   0.404 -10.422  0.00  0.00    +0.051 A 
ATOM     17  C   UNL     1      -1.282   0.765 -11.542  0.00  0.00    +0.163 A 
ATOM     18  C   UNL     1      -1.440   2.110 -11.863  0.00  0.00    +0.173 A 
ATOM     19  C   UNL     1      -0.866   3.083 -11.060  0.00  0.00    +0.063 A 
ATOM     20  C   UNL     1      -0.140   2.716  -9.940  0.00  0.00    +0.021 A 
ATOM     21 BR   UNL     1      -1.078   4.911 -11.491  0.00  0.00    -0.046 Br
BRANCH  18  22
ATOM     22  O   UNL     1      -2.157   2.469 -12.961  0.00  0.00    -0.503 OA
ATOM     23  H   UNL     1      -3.099   2.602 -12.790  0.00  0.00    +0.292 HD
ENDBRANCH  18  22
BRANCH  17  24
ATOM     24  O   UNL     1      -1.843  -0.193 -12.327  0.00  0.00    -0.491 OA
ATOM     25  C   UNL     1      -1.639  -1.553 -11.937  0.00  0.00    +0.277 C 
ENDBRANCH  17  24
ENDBRANCH  14  15
ENDBRANCH   1  14
TORSDOF 9
