REMARK  Name = ZINC12899656
REMARK  4 active torsions:
REMARK  status: ('A' for Active; 'I' for Inactive)
REMARK    1  A    between atoms: C_4  and  S_9
REMARK    2  A    between atoms: C_5  and  C_7
REMARK    3  A    between atoms: S_9  and  N_12
REMARK    4  A    between atoms: C_18  and  C_20
REMARK                            x       y       z     vdW  Elec       q    Type
REMARK                         _______ _______ _______ _____ _____    ______ ____
ROOT
ATOM      1  N   UNL     1      -2.550   7.819  -2.075  0.00  0.00    -0.174 NA
ATOM      2  C   UNL     1      -3.819   7.178  -1.703  0.00  0.00    +0.128 C 
ATOM      3  C   UNL     1      -3.615   6.415  -0.388  0.00  0.00    +0.125 C 
ATOM      4  N   UNL     1      -2.410   5.583  -0.510  0.00  0.00    -0.295 N 
ATOM      5  C   UNL     1      -1.140   6.224  -0.877  0.00  0.00    +0.125 C 
ATOM      6  C   UNL     1      -1.345   6.987  -2.197  0.00  0.00    +0.128 C 
ATOM      7  C   UNL     1      -2.467   4.255  -0.284  0.00  0.00    +0.246 C 
ATOM      8  O   UNL     1      -3.539   3.720  -0.068  0.00  0.00    -0.270 OA
ENDROOT
BRANCH   7   9
ATOM      9  C   UNL     1      -1.241   3.458  -0.297  0.00  0.00    +0.052 C 
ATOM     10  C   UNL     1      -0.379   3.517   0.746  0.00  0.00    +0.023 C 
ATOM     11  C   UNL     1       0.851   2.712   0.670  0.00  0.00    +0.019 A 
ATOM     12  C   UNL     1       1.622   2.453   1.803  0.00  0.00    +0.031 A 
ATOM     13  C   UNL     1       2.765   1.687   1.687  0.00  0.00    +0.042 A 
ATOM     14  C   UNL     1       3.144   1.179   0.454  0.00  0.00    +0.023 A 
ATOM     15  C   UNL     1       2.388   1.432  -0.675  0.00  0.00    +0.048 A 
ATOM     16  C   UNL     1       1.239   2.197  -0.578  0.00  0.00    +0.128 A 
ATOM     17  O   UNL     1       0.476   2.463  -1.667  0.00  0.00    -0.487 OA
ATOM     18  C   UNL     1      -0.935   2.562  -1.469  0.00  0.00    +0.269 C 
ATOM     19 CL   UNL     1       3.731   1.359   3.091  0.00  0.00    -0.084 Cl
ENDBRANCH   7   9
BRANCH   1  20
ATOM     20  S   UNL     1      -2.479   9.450  -2.352  0.00  0.00    +0.062 S 
ATOM     21  O   UNL     1      -1.357   9.670  -3.196  0.00  0.00    -0.153 OA
ATOM     22  O   UNL     1      -3.792   9.859  -2.709  0.00  0.00    -0.153 OA
BRANCH  20  26
ATOM     23  C   UNL     1      -1.529  11.443   1.611  0.00  0.00    +0.001 A 
ATOM     24  C   UNL     1      -0.627  11.505   0.563  0.00  0.00    +0.002 A 
ATOM     25  C   UNL     1      -0.916  10.893  -0.644  0.00  0.00    +0.030 A 
ATOM     26  C   UNL     1      -2.111  10.224  -0.813  0.00  0.00    +0.123 A 
ATOM     27  C   UNL     1      -3.025  10.158   0.240  0.00  0.00    +0.078 A 
ATOM     28  C   UNL     1      -2.725  10.774   1.457  0.00  0.00    +0.021 A 
BRANCH  27  29
ATOM     29  C   UNL     1      -4.265   9.460   0.073  0.00  0.00    +0.101 C 
ATOM     30  N   UNL     1      -5.248   8.907  -0.059  0.00  0.00    -0.191 NA
ENDBRANCH  27  29
ENDBRANCH  20  26
ENDBRANCH   1  20
TORSDOF 4
