REMARK  Name = ZINC18216043
REMARK  6 active torsions:
REMARK  status: ('A' for Active; 'I' for Inactive)
REMARK    1  A    between atoms: C_6  and  N_7
REMARK    2  A    between atoms: C_8  and  C_14
REMARK    3  A    between atoms: N_16  and  C_17
REMARK    4  A    between atoms: C_17  and  C_18
REMARK    5  A    between atoms: C_18  and  N_19
REMARK    6  A    between atoms: C_23  and  C_26
REMARK                            x       y       z     vdW  Elec       q    Type
REMARK                         _______ _______ _______ _____ _____    ______ ____
ROOT
ATOM      1  C   UNL     1       1.649  -1.746  -0.397  0.00  0.00    +0.262 C 
ATOM      2  O   UNL     1       2.834  -2.013  -0.482  0.00  0.00    -0.269 OA
ATOM      3  N   UNL     1       0.728  -2.723  -0.513  0.00  0.00    -0.309 N 
ATOM      4  H   UNL     1      -0.216  -2.501  -0.522  0.00  0.00    +0.149 HD
ENDROOT
BRANCH   1   6
ATOM      5  N   UNL     1      -0.083   0.077   0.070  0.00  0.00    -0.284 N 
ATOM      6  C   UNL     1       1.224  -0.361  -0.168  0.00  0.00    +0.127 A 
ATOM      7  C   UNL     1       2.022   0.730  -0.148  0.00  0.00    +0.116 A 
ATOM      8  N   UNL     1       1.234   1.823   0.096  0.00  0.00    -0.339 N 
ATOM      9  H   UNL     1       1.544   2.739   0.164  0.00  0.00    +0.167 HD
ATOM     10  C   UNL     1      -0.042   1.415   0.227  0.00  0.00    +0.163 A 
ATOM     11  S   UNL     1      -1.388   2.427   0.534  0.00  0.00    -0.013 S 
BRANCH   5  17
ATOM     12  C   UNL     1      -1.403  -1.603   1.199  0.00  0.00    +0.029 A 
ATOM     13  C   UNL     1      -2.534  -2.393   1.263  0.00  0.00    +0.040 A 
ATOM     14  C   UNL     1      -3.487  -2.322   0.260  0.00  0.00    +0.124 A 
ATOM     15  C   UNL     1      -3.310  -1.456  -0.805  0.00  0.00    +0.040 A 
ATOM     16  C   UNL     1      -2.183  -0.660  -0.870  0.00  0.00    +0.029 A 
ATOM     17  C   UNL     1      -1.227  -0.729   0.134  0.00  0.00    +0.049 A 
ATOM     18  F   UNL     1      -4.589  -3.101   0.321  0.00  0.00    -0.205 F 
ENDBRANCH   5  17
ENDBRANCH   1   6
BRANCH   3  19
ATOM     19  C   UNL     1       1.153  -4.120  -0.627  0.00  0.00    +0.123 C 
BRANCH  19  20
ATOM     20  C   UNL     1      -0.078  -5.020  -0.746  0.00  0.00    +0.121 C 
BRANCH  20  21
ATOM     21  N   UNL     1       0.347  -6.418  -0.859  0.00  0.00    -0.326 N 
ATOM     22  C   UNL     1      -0.603  -7.426  -0.979  0.00  0.00    +0.137 A 
ATOM     23  C   UNL     1      -0.192  -8.752  -1.093  0.00  0.00    +0.081 A 
ATOM     24  C   UNL     1      -1.149  -9.745  -1.206  0.00  0.00    +0.037 A 
ATOM     25  C   UNL     1      -2.489  -9.377  -1.213  0.00  0.00    +0.074 A 
ATOM     26  C   UNL     1      -2.824  -8.043  -1.102  0.00  0.00    +0.125 A 
ATOM     27  N   UNL     1      -1.890  -7.117  -0.990  0.00  0.00    -0.238 NA
ATOM     28 CL   UNL     1       1.496  -9.153  -1.086  0.00  0.00    -0.080 Cl
ATOM     29  H   UNL     1       1.291  -6.639  -0.851  0.00  0.00    +0.148 HD
BRANCH  25  30
ATOM     30  C   UNL     1      -3.565 -10.424  -1.340  0.00  0.00    +0.419 C 
ATOM     31  F   UNL     1      -4.820  -9.807  -1.321  0.00  0.00    -0.166 F 
ATOM     32  F   UNL     1      -3.402 -11.116  -2.545  0.00  0.00    -0.166 F 
ATOM     33  F   UNL     1      -3.470 -11.322  -0.271  0.00  0.00    -0.166 F 
ENDBRANCH  25  30
ENDBRANCH  20  21
ENDBRANCH  19  20
ENDBRANCH   3  19
TORSDOF 6
