REMARK  Name = ZINC44893414
REMARK  7 active torsions:
REMARK  status: ('A' for Active; 'I' for Inactive)
REMARK    1  A    between atoms: C_1  and  N_2
REMARK    2  A    between atoms: N_2  and  C_3
REMARK    3  A    between atoms: N_2  and  C_4
REMARK    4  A    between atoms: C_4  and  C_6
REMARK    5  A    between atoms: C_4  and  C_22
REMARK    6  A    between atoms: C_6  and  N_7
REMARK    7  A    between atoms: N_13  and  C_16
REMARK                            x       y       z     vdW  Elec       q    Type
REMARK                         _______ _______ _______ _____ _____    ______ ____
ROOT
ATOM      1  N   UNL     1      -1.469  -2.629   1.131  0.00  0.00    -0.300 N 
ATOM      2  C   UNL     1      -1.808  -3.901   1.422  0.00  0.00    +0.302 C 
ATOM      3  O   UNL     1      -2.505  -4.535   0.654  0.00  0.00    -0.253 OA
ATOM      4  N   UNL     1      -1.373  -4.470   2.564  0.00  0.00    -0.283 N 
ATOM      5  C   UNL     1      -0.629  -3.682   3.556  0.00  0.00    +0.128 C 
ATOM      6  C   UNL     1      -1.345  -3.794   4.908  0.00  0.00    +0.124 C 
ATOM      7  N   UNL     1      -1.608  -5.213   5.184  0.00  0.00    -0.327 N 
ATOM      8  C   UNL     1      -2.352  -6.001   4.192  0.00  0.00    +0.124 C 
ATOM      9  C   UNL     1      -1.641  -5.888   2.843  0.00  0.00    +0.128 C 
ATOM     10  H   UNL     1      -0.855  -2.148   1.706  0.00  0.00    +0.150 HD
ENDROOT
BRANCH   7  11
ATOM     11  C   UNL     1      -1.159  -5.800   6.364  0.00  0.00    +0.033 A 
ATOM     12  C   UNL     1      -1.294  -7.172   6.576  0.00  0.00    +0.040 A 
ATOM     13  C   UNL     1      -0.837  -7.715   7.758  0.00  0.00    +0.084 A 
ATOM     14  N   UNL     1      -0.278  -6.954   8.681  0.00  0.00    -0.367 N 
ATOM     15  C   UNL     1      -0.132  -5.652   8.517  0.00  0.00    +0.084 A 
ATOM     16  C   UNL     1      -0.558  -5.033   7.361  0.00  0.00    +0.040 A 
ATOM     17  H   UNL     1       0.035  -7.364   9.502  0.00  0.00    +0.165 HD
ENDBRANCH   7  11
BRANCH   1  18
ATOM     18  C   UNL     1      -2.030  -1.975  -0.053  0.00  0.00    +0.098 C 
BRANCH  18  19
ATOM     19  C   UNL     1      -1.589  -0.510  -0.083  0.00  0.00    +0.016 C 
BRANCH  19  20
ATOM     20  C   UNL     1      -0.096  -0.438  -0.274  0.00  0.00    +0.093 A 
ATOM     21  C   UNL     1       0.538  -0.186  -1.433  0.00  0.00    +0.043 A 
ATOM     22  C   UNL     1       1.924  -0.213  -1.156  0.00  0.00    +0.041 A 
ATOM     23  C   UNL     1       2.054  -0.479   0.156  0.00  0.00    +0.195 A 
ATOM     24  O   UNL     1       0.827  -0.609   0.686  0.00  0.00    -0.469 OA
ENDBRANCH  19  20
BRANCH  19  26
ATOM     25  C   UNL     1      -1.623   1.567   1.118  0.00  0.00    -0.096 C 
ATOM     26  N   UNL     1      -1.952   0.137   1.185  0.00  0.00    +0.384 N 
ATOM     27  C   UNL     1      -3.394  -0.023   1.421  0.00  0.00    -0.096 C 
ATOM     28  H   UNL     1      -1.438  -0.292   1.941  0.00  0.00    -0.082 HD
ENDBRANCH  19  26
ENDBRANCH  18  19
ENDBRANCH   1  18
TORSDOF 5
