REMARK  Name = ZINC45108791
REMARK  4 active torsions:
REMARK  status: ('A' for Active; 'I' for Inactive)
REMARK    1  A    between atoms: C_1  and  C_2
REMARK    2  A    between atoms: C_2  and  C_3
REMARK    3  A    between atoms: C_2  and  C_4
REMARK    4  A    between atoms: C_2  and  N_7
REMARK                            x       y       z     vdW  Elec       q    Type
REMARK                         _______ _______ _______ _____ _____    ______ ____
ROOT
ATOM      1  N   UNL     1       0.788  -0.472  -1.142  0.00  0.00    -0.274 N 
ATOM      2  C   UNL     1       0.902  -1.794  -1.362  0.00  0.00    +0.264 A 
ATOM      3  O   UNL     1       0.360  -2.592  -0.620  0.00  0.00    -0.267 OA
ATOM      4  C   UNL     1       1.696  -2.265  -2.518  0.00  0.00    +0.074 A 
ATOM      5  C   UNL     1       1.951  -3.650  -2.942  0.00  0.00    -0.023 A 
ATOM      6  C   UNL     1       2.716  -3.769  -4.040  0.00  0.00    -0.004 A 
ATOM      7  S   UNL     1       3.091  -2.098  -4.508  0.00  0.00    -0.075 S 
ATOM      8  C   UNL     1       2.276  -1.276  -3.305  0.00  0.00    +0.092 A 
ATOM      9  N   UNL     1       2.108   0.052  -3.010  0.00  0.00    -0.329 N 
ATOM     10  C   UNL     1       1.372   0.430  -1.948  0.00  0.00    +0.162 A 
ATOM     11  S   UNL     1       1.180   2.098  -1.613  0.00  0.00    -0.013 S 
ATOM     12  C   UNL     1       2.940  -5.209  -4.415  0.00  0.00    +0.043 C 
ATOM     13  C   UNL     1       2.559  -6.006  -3.148  0.00  0.00    +0.010 C 
ATOM     14  C   UNL     1       1.567  -5.047  -2.459  0.00  0.00    +0.037 C 
ATOM     15  H   UNL     1       2.522   0.726  -3.572  0.00  0.00    +0.168 HD
ENDROOT
BRANCH   1  17
ATOM     16  C   UNL     1      -0.375  -1.196   0.884  0.00  0.00    +0.044 C 
ATOM     17  C   UNL     1       0.002  -0.004   0.002  0.00  0.00    +0.121 C 
ATOM     18  C   UNL     1      -1.270   0.682  -0.500  0.00  0.00    +0.044 C 
BRANCH  17  19
ATOM     19  C   UNL     1       0.818   0.976   0.805  0.00  0.00    +0.236 C 
ATOM     20  O   UNL     1       0.276   1.917   1.345  0.00  0.00    -0.273 OA
ATOM     21  N   UNL     1       2.150   0.807   0.923  0.00  0.00    -0.327 N 
ATOM     22  H   UNL     1       2.583   0.054   0.491  0.00  0.00    +0.145 HD
ATOM     23  H   UNL     1       2.675   1.438   1.440  0.00  0.00    +0.145 HD
ENDBRANCH  17  19
ENDBRANCH   1  17
TORSDOF 2
