REMARK  Name = ZINC57731459
REMARK  4 active torsions:
REMARK  status: ('A' for Active; 'I' for Inactive)
REMARK    1  A    between atoms: C_1  and  C_2
REMARK    2  A    between atoms: C_4  and  C_24
REMARK    3  A    between atoms: C_11  and  C_13
REMARK    4  A    between atoms: C_14  and  C_22
REMARK                            x       y       z     vdW  Elec       q    Type
REMARK                         _______ _______ _______ _____ _____    ______ ____
ROOT
ATOM      1  C   UNL     1      -0.021   1.501   0.009  0.00  0.00    +0.065 C 
ATOM      2  C   UNL     1       0.000  -0.005   0.001  0.00  0.00    +0.041 A 
ATOM      3  C   UNL     1       0.004  -0.677  -1.213  0.00  0.00    +0.036 A 
ATOM      4  C   UNL     1       0.025  -2.058  -1.225  0.00  0.00    +0.070 A 
ATOM      5  C   UNL     1       0.040  -2.726   0.002  0.00  0.00    +0.072 A 
ATOM      6  C   UNL     1       0.063  -4.138   0.396  0.00  0.00    +0.149 A 
ATOM      7  N   UNL     1       0.070  -4.183   1.702  0.00  0.00    -0.146 NA
ATOM      8  N   UNL     1       0.053  -2.887   2.227  0.00  0.00    -0.175 N 
ATOM      9  C   UNL     1       0.035  -1.979   1.194  0.00  0.00    +0.169 A 
ATOM     10  N   UNL     1       0.021  -0.654   1.146  0.00  0.00    -0.232 NA
ATOM     11  C   UNL     1       0.055  -2.577   3.539  0.00  0.00    +0.284 C 
ATOM     12  O   UNL     1       0.132  -1.415   3.889  0.00  0.00    -0.265 OA
ATOM     13  N   UNL     1       0.074  -5.232  -0.465  0.00  0.00    -0.341 N 
ATOM     14  H   UNL     1       0.067  -5.094  -1.425  0.00  0.00    +0.144 HD
ATOM     15  H   UNL     1       0.089  -6.133  -0.105  0.00  0.00    +0.144 HD
ENDROOT
BRANCH  11  16
ATOM     16  C   UNL     1      -0.035  -3.646   4.548  0.00  0.00    +0.085 A 
ATOM     17  C   UNL     1      -1.171  -4.240   5.027  0.00  0.00    +0.115 A 
ATOM     18  O   UNL     1      -0.817  -5.162   5.931  0.00  0.00    -0.464 OA
ATOM     19  C   UNL     1       0.514  -5.206   6.073  0.00  0.00    +0.109 A 
ATOM     20  C   UNL     1       1.069  -4.301   5.247  0.00  0.00    +0.006 A 
ATOM     21  C   UNL     1       2.546  -4.049   5.111  0.00  0.00    +0.039 C 
ATOM     22  C   UNL     1       3.256  -4.678   6.317  0.00  0.00    +0.005 C 
ATOM     23  C   UNL     1       2.769  -6.118   6.498  0.00  0.00    +0.008 C 
ATOM     24  C   UNL     1       1.313  -6.106   6.985  0.00  0.00    +0.075 C 
ATOM     25  C   UNL     1      -2.581  -3.912   4.608  0.00  0.00    +0.087 C 
ENDBRANCH  11  16
BRANCH   4  26
ATOM     26  C   UNL     1       0.029  -2.822  -2.525  0.00  0.00    +0.418 C 
ATOM     27  F   UNL     1       0.010  -1.921  -3.595  0.00  0.00    -0.166 F 
ATOM     28  F   UNL     1       1.182  -3.610  -2.598  0.00  0.00    -0.166 F 
ATOM     29  F   UNL     1      -1.102  -3.643  -2.586  0.00  0.00    -0.166 F 
ENDBRANCH   4  26
TORSDOF 2
