REMARK  Name = ZINC13274306
REMARK  9 active torsions:
REMARK  status: ('A' for Active; 'I' for Inactive)
REMARK    1  A    between atoms: C_3  and  N_10
REMARK    2  A    between atoms: C_6  and  C_7
REMARK    3  A    between atoms: C_7  and  C_8
REMARK    4  A    between atoms: C_11  and  C_13
REMARK    5  A    between atoms: C_13  and  S_14
REMARK    6  A    between atoms: S_14  and  C_15
REMARK    7  A    between atoms: C_18  and  C_23
REMARK    8  A    between atoms: N_19  and  C_20
REMARK    9  A    between atoms: C_20  and  C_21
REMARK                            x       y       z     vdW  Elec       q    Type
REMARK                         _______ _______ _______ _____ _____    ______ ____
ROOT
ATOM      1  S   UNL     1       0.991   3.447   2.256  0.00  0.00    -0.077 S 
ENDROOT
BRANCH   1   2
ATOM      2  C   UNL     1      -0.438   2.464   2.565  0.00  0.00    +0.193 A 
ATOM      3  N   UNL     1      -1.449   2.780   3.344  0.00  0.00    -0.122 NA
ATOM      4  N   UNL     1      -2.318   1.834   3.345  0.00  0.00    -0.128 NA
ATOM      5  C   UNL     1      -1.919   0.857   2.564  0.00  0.00    +0.165 A 
ATOM      6  N   UNL     1      -0.704   1.232   2.038  0.00  0.00    -0.291 N 
BRANCH   5   7
ATOM      7  C   UNL     1      -2.638  -0.407   2.301  0.00  0.00    +0.019 A 
ATOM      8  C   UNL     1      -2.313  -1.178   1.184  0.00  0.00    +0.013 A 
ATOM      9  C   UNL     1      -2.984  -2.360   0.946  0.00  0.00    +0.021 A 
ATOM     10  C   UNL     1      -3.985  -2.776   1.807  0.00  0.00    +0.041 A 
ATOM     11  C   UNL     1      -4.316  -2.013   2.914  0.00  0.00    +0.021 A 
ATOM     12  C   UNL     1      -3.648  -0.832   3.165  0.00  0.00    +0.013 A 
ATOM     13 CL   UNL     1      -4.830  -4.261   1.497  0.00  0.00    -0.084 Cl
ENDBRANCH   5   7
BRANCH   6  14
ATOM     14  C   UNL     1       0.133   0.467   1.110  0.00  0.00    +0.250 C 
BRANCH  14  15
ATOM     15  C   UNL     1      -0.232   0.826  -0.307  0.00  0.00    +0.375 C 
ATOM     16  O   UNL     1      -1.102   1.637  -0.521  0.00  0.00    -0.244 OA
ATOM     17  O   UNL     1       0.409   0.244  -1.333  0.00  0.00    -0.244 OA
ENDBRANCH  14  15
ENDBRANCH   6  14
ENDBRANCH   1   2
BRANCH   1  18
ATOM     18  C   UNL     1       0.611   4.886   3.286  0.00  0.00    +0.173 C 
BRANCH  18  20
ATOM     19  N   UNL     1       1.663   7.050   3.862  0.00  0.00    -0.285 N 
ATOM     20  C   UNL     1       1.729   5.891   3.177  0.00  0.00    +0.227 C 
ATOM     21  O   UNL     1       2.688   5.657   2.472  0.00  0.00    -0.275 OA
ATOM     22  H   UNL     1       0.936   7.204   4.486  0.00  0.00    +0.155 HD
BRANCH  19  25
ATOM     23  C   UNL     1       4.202   9.162   2.246  0.00  0.00    +0.006 A 
ATOM     24  C   UNL     1       3.235   8.193   2.429  0.00  0.00    +0.023 A 
ATOM     25  C   UNL     1       2.643   8.031   3.674  0.00  0.00    +0.033 A 
ATOM     26  C   UNL     1       3.021   8.848   4.731  0.00  0.00    +0.023 A 
ATOM     27  C   UNL     1       3.993   9.811   4.544  0.00  0.00    +0.006 A 
ATOM     28  C   UNL     1       4.581   9.970   3.303  0.00  0.00    -0.037 A 
BRANCH  28  29
ATOM     29  C   UNL     1       5.636  11.026   3.100  0.00  0.00    +0.160 C 
BRANCH  29  30
ATOM     30  C   UNL     1       4.982  12.316   2.676  0.00  0.00    +0.360 C 
ATOM     31  O   UNL     1       3.781  12.372   2.551  0.00  0.00    -0.246 OA
ATOM     32  O   UNL     1       5.733  13.403   2.438  0.00  0.00    -0.246 OA
ENDBRANCH  29  30
ENDBRANCH  28  29
ENDBRANCH  19  25
ENDBRANCH  18  20
ENDBRANCH   1  18
TORSDOF 9
