REMARK  Name = ZINC20343968
REMARK  5 active torsions:
REMARK  status: ('A' for Active; 'I' for Inactive)
REMARK    1  A    between atoms: C_1  and  C_2
REMARK    2  A    between atoms: N_9  and  C_10
REMARK    3  A    between atoms: C_13  and  C_16
REMARK    4  A    between atoms: N_20  and  C_21
REMARK    5  A    between atoms: C_24  and  C_27
REMARK                            x       y       z     vdW  Elec       q    Type
REMARK                         _______ _______ _______ _____ _____    ______ ____
ROOT
ATOM      1  C   UNL     1       4.549   3.950  -1.085  0.00  0.00    +0.053 C 
ATOM      2  C   UNL     1       3.373   3.299  -0.403  0.00  0.00    +0.007 A 
ATOM      3  C   UNL     1       3.082   3.269   0.917  0.00  0.00    +0.058 A 
ATOM      4  C   UNL     1       1.921   2.598   1.294  0.00  0.00    +0.140 A 
ATOM      5  N   UNL     1       1.548   2.518   2.555  0.00  0.00    -0.283 NA
ATOM      6  N   UNL     1       1.185   2.021   0.284  0.00  0.00    -0.235 N 
ATOM      7  S   UNL     1       2.073   2.411  -1.121  0.00  0.00    -0.007 S 
ATOM      8  C   UNL     1       0.012   1.306   0.383  0.00  0.00    +0.213 C 
ATOM      9  N   UNL     1       0.045   0.030   0.690  0.00  0.00    -0.216 NA
ATOM     10  N   UNL     1      -1.193   1.927   0.154  0.00  0.00    -0.284 N 
ATOM     11  H   UNL     1       2.043   2.995   3.239  0.00  0.00    +0.188 HD
ATOM     12  H   UNL     1      -1.225   3.008  -0.049  0.00  0.00    +0.155 HD
ENDROOT
BRANCH   9  13
ATOM     13  C   UNL     1       1.248  -0.600   0.870  0.00  0.00    +0.067 A 
ATOM     14  C   UNL     1       2.199  -0.601  -0.152  0.00  0.00    +0.028 A 
ATOM     15  C   UNL     1       3.410  -1.232   0.038  0.00  0.00    +0.014 A 
ATOM     16  C   UNL     1       3.680  -1.873   1.234  0.00  0.00    +0.055 A 
ATOM     17  C   UNL     1       2.739  -1.882   2.249  0.00  0.00    +0.014 A 
ATOM     18  C   UNL     1       1.526  -1.249   2.075  0.00  0.00    +0.028 A 
BRANCH  16  19
ATOM     19  C   UNL     1       5.003  -2.566   1.432  0.00  0.00    +0.417 C 
ATOM     20  F   UNL     1       4.901  -3.896   1.010  0.00  0.00    -0.166 F 
ATOM     21  F   UNL     1       5.988  -1.914   0.683  0.00  0.00    -0.166 F 
ATOM     22  F   UNL     1       5.349  -2.532   2.787  0.00  0.00    -0.166 F 
ENDBRANCH  16  19
ENDBRANCH   9  13
BRANCH  10  23
ATOM     23  C   UNL     1      -2.373   1.188   0.180  0.00  0.00    +0.034 A 
ATOM     24  C   UNL     1      -2.387  -0.115  -0.310  0.00  0.00    +0.024 A 
ATOM     25  C   UNL     1      -3.550  -0.850  -0.281  0.00  0.00    +0.017 A 
ATOM     26  C   UNL     1      -4.721  -0.283   0.230  0.00  0.00    +0.063 A 
ATOM     27  C   UNL     1      -4.705   1.029   0.716  0.00  0.00    +0.017 A 
ATOM     28  C   UNL     1      -3.537   1.756   0.689  0.00  0.00    +0.024 A 
BRANCH  26  29
ATOM     29  C   UNL     1      -5.970  -1.065   0.257  0.00  0.00    +0.387 C 
ATOM     30  O   UNL     1      -6.987  -0.571   0.702  0.00  0.00    -0.241 OA
ATOM     31  O   UNL     1      -5.984  -2.329  -0.211  0.00  0.00    -0.241 OA
ENDBRANCH  26  29
ENDBRANCH  10  23
TORSDOF 4
