REMARK  Name = ZINC24850068
REMARK  8 active torsions:
REMARK  status: ('A' for Active; 'I' for Inactive)
REMARK    1  A    between atoms: C_1  and  C_2
REMARK    2  A    between atoms: C_2  and  O_3
REMARK    3  A    between atoms: O_3  and  C_4
REMARK    4  A    between atoms: C_11  and  C_18
REMARK    5  A    between atoms: C_13  and  O_14
REMARK    6  A    between atoms: C_18  and  N_19
REMARK    7  A    between atoms: C_22  and  C_26
REMARK    8  A    between atoms: C_22  and  C_27
REMARK                            x       y       z     vdW  Elec       q    Type
REMARK                         _______ _______ _______ _____ _____    ______ ____
ROOT
ATOM      1  C   UNL     1     -12.048   1.192  -5.104  0.00  0.00    +0.405 C 
ATOM      2  O   UNL     1     -12.184   1.146  -3.897  0.00  0.00    -0.226 OA
ATOM      3  N   UNL     1     -10.823   1.054  -5.650  0.00  0.00    -0.251 N 
ATOM      4  C   UNL     1      -9.700   0.955  -4.828  0.00  0.00    +0.040 A 
ATOM      5  C   UNL     1      -8.493   1.523  -5.234  0.00  0.00    +0.024 A 
ATOM      6  C   UNL     1      -7.386   1.434  -4.441  0.00  0.00    +0.014 A 
ATOM      7  C   UNL     1      -7.463   0.772  -3.210  0.00  0.00    +0.022 A 
ATOM      8  C   UNL     1      -6.290   0.655  -2.342  0.00  0.00    -0.012 A 
ATOM      9  C   UNL     1      -6.427  -0.004  -1.162  0.00  0.00    +0.093 A 
ATOM     10  C   UNL     1      -7.675  -0.556  -0.808  0.00  0.00    +0.285 A 
ATOM     11  O   UNL     1      -8.746  -0.450  -1.611  0.00  0.00    -0.425 OA
ATOM     12  C   UNL     1      -8.677   0.192  -2.797  0.00  0.00    +0.141 A 
ATOM     13  C   UNL     1      -9.793   0.291  -3.614  0.00  0.00    +0.070 A 
ATOM     14  H   UNL     1     -10.709   1.020  -6.743  0.00  0.00    +0.158 HD
ENDROOT
BRANCH  10  15
ATOM     15  O   UNL     1      -7.784  -1.144   0.253  0.00  0.00    -0.480 OA
ATOM     16  H   UNL     1      -8.751  -1.581   0.543  0.00  0.00    +0.295 HD
ENDBRANCH  10  15
BRANCH   1  17
ATOM     17  O   UNL     1     -13.121   1.379  -5.896  0.00  0.00    -0.450 OA
BRANCH  17  19
ATOM     18  C   UNL     1     -15.498   1.724  -6.293  0.00  0.00    +0.048 C 
ATOM     19  C   UNL     1     -14.408   1.520  -5.239  0.00  0.00    +0.230 C 
ENDBRANCH  17  19
ENDBRANCH   1  17
BRANCH   8  20
ATOM     20  C   UNL     1      -4.967   1.256  -2.744  0.00  0.00    +0.154 C 
BRANCH  20  21
ATOM     21  N   UNL     1      -3.947   0.896  -1.756  0.00  0.00    -0.220 N 
ATOM     22  C   UNL     1      -3.595   1.677  -0.712  0.00  0.00    +0.251 C 
ATOM     23  O   UNL     1      -4.043   2.766  -0.424  0.00  0.00    -0.272 OA
ATOM     24  C   UNL     1      -2.518   0.905   0.026  0.00  0.00    +0.135 C 
ATOM     25  N   UNL     1      -2.378  -0.335  -0.757  0.00  0.00    -0.281 N 
ATOM     26  C   UNL     1      -3.252  -0.247  -1.776  0.00  0.00    +0.310 C 
ATOM     27  O   UNL     1      -3.395  -1.110  -2.620  0.00  0.00    -0.252 OA
ATOM     28  C   UNL     1      -2.965   0.591   1.455  0.00  0.00    +0.047 C 
ATOM     29  H   UNL     1      -1.652  -1.101  -0.448  0.00  0.00    +0.152 HD
BRANCH  24  30
ATOM     30  C   UNL     1      -1.224   1.677   0.034  0.00  0.00    -0.015 A 
ATOM     31  C   UNL     1      -1.242   3.059   0.062  0.00  0.00    +0.006 A 
ATOM     32  C   UNL     1      -0.055   3.764   0.064  0.00  0.00    +0.004 A 
ATOM     33  C   UNL     1       1.155   3.091   0.042  0.00  0.00    -0.044 A 
ATOM     34  C   UNL     1       1.174   1.709   0.019  0.00  0.00    -0.044 A 
ATOM     35  C   UNL     1      -0.018   1.004   0.018  0.00  0.00    +0.010 A 
ATOM     36  C   UNL     1       2.605   1.217  -0.002  0.00  0.00    +0.036 C 
ATOM     37  C   UNL     1       3.446   2.438  -0.430  0.00  0.00    +0.009 C 
ATOM     38  C   UNL     1       2.573   3.622   0.038  0.00  0.00    +0.036 C 
ENDBRANCH  24  30
ENDBRANCH  20  21
ENDBRANCH   8  20
TORSDOF 6
