REMARK  Name = ZINC37588015
REMARK  7 active torsions:
REMARK  status: ('A' for Active; 'I' for Inactive)
REMARK    1  A    between atoms: C_1  and  C_2
REMARK    2  A    between atoms: C_5  and  S_8
REMARK    3  A    between atoms: S_8  and  N_11
REMARK    4  A    between atoms: N_11  and  C_12
REMARK    5  A    between atoms: N_11  and  C_21
REMARK    6  A    between atoms: N_24  and  C_27
REMARK    7  A    between atoms: C_27  and  C_28
REMARK                            x       y       z     vdW  Elec       q    Type
REMARK                         _______ _______ _______ _____ _____    ______ ____
ROOT
ATOM      1  N   UNL     1       1.651  -4.999  -0.034  0.00  0.00    -0.200 N 
ENDROOT
BRANCH   1   2
ATOM      2  C   UNL     1       2.314  -5.110   1.193  0.00  0.00    +0.055 A 
ATOM      3  C   UNL     1       3.459  -4.361   1.433  0.00  0.00    +0.028 A 
ATOM      4  C   UNL     1       4.116  -4.469   2.644  0.00  0.00    +0.051 A 
ATOM      5  C   UNL     1       3.634  -5.324   3.622  0.00  0.00    +0.166 A 
ATOM      6  C   UNL     1       2.486  -6.075   3.385  0.00  0.00    +0.168 A 
ATOM      7  C   UNL     1       1.825  -5.963   2.172  0.00  0.00    +0.074 A 
ATOM      8  O   UNL     1       2.221  -6.830   4.491  0.00  0.00    -0.453 OA
ATOM      9  C   UNL     1       3.444  -6.840   5.251  0.00  0.00    +0.466 C 
ATOM     10  O   UNL     1       4.088  -5.608   4.879  0.00  0.00    -0.453 OA
ENDBRANCH   1   2
BRANCH   1  11
ATOM     11  C   UNL     1       2.004  -5.892  -1.141  0.00  0.00    +0.095 C 
ATOM     12  C   UNL     1       1.711  -7.341  -0.744  0.00  0.00    +0.006 C 
ATOM     13  C   UNL     1       2.156  -8.274  -1.873  0.00  0.00    -0.077 C 
ATOM     14  N   UNL     1       3.596  -8.111  -2.108  0.00  0.00    +0.383 N 
ATOM     15  C   UNL     1       3.875  -6.742  -2.558  0.00  0.00    -0.077 C 
ATOM     16  C   UNL     1       3.496  -5.751  -1.456  0.00  0.00    +0.006 C 
ATOM     17  H   UNL     1       4.098  -8.291  -1.251  0.00  0.00    -0.081 HD
BRANCH  14  18
ATOM     18  C   UNL     1       4.033  -9.063  -3.138  0.00  0.00    -0.040 C 
BRANCH  18  19
ATOM     19  C   UNL     1       5.530  -8.983  -3.293  0.00  0.00    -0.029 A 
ATOM     20  C   UNL     1       6.079  -8.255  -4.332  0.00  0.00    +0.007 A 
ATOM     21  C   UNL     1       7.451  -8.181  -4.475  0.00  0.00    +0.039 A 
ATOM     22  C   UNL     1       8.278  -8.835  -3.578  0.00  0.00    +0.126 A 
ATOM     23  C   UNL     1       7.730  -9.563  -2.536  0.00  0.00    +0.076 A 
ATOM     24  C   UNL     1       6.355  -9.633  -2.391  0.00  0.00    +0.127 A 
ATOM     25  F   UNL     1       5.818 -10.339  -1.371  0.00  0.00    -0.205 F 
ATOM     26  F   UNL     1       9.620  -8.762  -3.718  0.00  0.00    -0.205 F 
ENDBRANCH  18  19
ENDBRANCH  14  18
ENDBRANCH   1  11
BRANCH   1  27
ATOM     27  S   UNL     1       0.466  -3.860  -0.235  0.00  0.00    +0.075 S 
ATOM     28  O   UNL     1      -0.101  -3.633   1.048  0.00  0.00    -0.150 OA
ATOM     29  O   UNL     1      -0.312  -4.276  -1.349  0.00  0.00    -0.150 OA
BRANCH  27  34
ATOM     30  C   UNL     1       3.183   1.279  -1.852  0.00  0.00    +0.044 C 
ATOM     31  C   UNL     1       2.504  -0.005  -1.448  0.00  0.00    -0.050 A 
ATOM     32  C   UNL     1       2.092  -0.903  -2.415  0.00  0.00    +0.005 A 
ATOM     33  C   UNL     1       1.470  -2.080  -2.045  0.00  0.00    +0.029 A 
ATOM     34  C   UNL     1       1.260  -2.360  -0.707  0.00  0.00    +0.109 A 
ATOM     35  C   UNL     1       1.673  -1.462   0.260  0.00  0.00    +0.029 A 
ATOM     36  C   UNL     1       2.299  -0.287  -0.110  0.00  0.00    +0.005 A 
ENDBRANCH  27  34
ENDBRANCH   1  27
TORSDOF 6
