REMARK  Name = ZINC35186466
REMARK  5 active torsions:
REMARK  status: ('A' for Active; 'I' for Inactive)
REMARK    1  A    between atoms: C_1  and  C_2
REMARK    2  A    between atoms: C_5  and  N_8
REMARK    3  A    between atoms: N_8  and  S_9
REMARK    4  A    between atoms: S_9  and  C_12
REMARK    5  A    between atoms: C_13  and  C_18
REMARK                            x       y       z     vdW  Elec       q    Type
REMARK                         _______ _______ _______ _____ _____    ______ ____
ROOT
ATOM      1  S   UNL     1       0.076  -5.003   1.409  0.00  0.00    +0.100 S 
ATOM      2  O   UNL     1       1.321  -4.716   2.031  0.00  0.00    -0.148 OA
ATOM      3  O   UNL     1      -1.169  -4.749   2.043  0.00  0.00    -0.148 OA
ENDROOT
BRANCH   1   4
ATOM      4  C   UNL     1       0.097  -6.719   1.009  0.00  0.00    +0.171 A 
ATOM      5  C   UNL     1       0.110  -7.800   1.829  0.00  0.00    +0.074 A 
ATOM      6  N   UNL     1       0.123  -8.987   1.255  0.00  0.00    -0.231 NA
ATOM      7  C   UNL     1       0.125  -9.112  -0.050  0.00  0.00    +0.169 A 
ATOM      8  S   UNL     1       0.099  -7.517  -0.588  0.00  0.00    -0.035 S 
ATOM      9 CL   UNL     1       0.141 -10.569  -0.994  0.00  0.00    -0.054 Cl
ATOM     10  C   UNL     1       0.109  -7.650   3.329  0.00  0.00    +0.068 C 
ENDBRANCH   1   4
BRANCH   1  11
ATOM     11  N   UNL     1       0.058  -4.167  -0.021  0.00  0.00    -0.097 NA
BRANCH  11  16
ATOM     12  C   UNL     1      -0.018   1.503   0.010  0.00  0.00    +0.044 C 
ATOM     13  C   UNL     1       0.002  -0.004   0.002  0.00  0.00    -0.050 A 
ATOM     14  C   UNL     1       0.006  -0.687  -1.200  0.00  0.00    +0.005 A 
ATOM     15  C   UNL     1       0.024  -2.068  -1.212  0.00  0.00    +0.027 A 
ATOM     16  C   UNL     1       0.040  -2.771  -0.013  0.00  0.00    +0.074 A 
ATOM     17  C   UNL     1       0.036  -2.081   1.193  0.00  0.00    +0.027 A 
ATOM     18  C   UNL     1       0.023  -0.700   1.197  0.00  0.00    +0.005 A 
ENDBRANCH  11  16
ENDBRANCH   1  11
TORSDOF 3
