REMARK  Name = ZINC19910743
REMARK  6 active torsions:
REMARK  status: ('A' for Active; 'I' for Inactive)
REMARK    1  A    between atoms: C_1  and  C_2
REMARK    2  A    between atoms: C_13  and  C_14
REMARK    3  A    between atoms: C_13  and  O_15
REMARK    4  A    between atoms: C_19  and  C_29
REMARK    5  A    between atoms: C_21  and  C_27
REMARK    6  A    between atoms: C_23  and  C_25
REMARK                            x       y       z     vdW  Elec       q    Type
REMARK                         _______ _______ _______ _____ _____    ______ ____
ROOT
ATOM      1  C   UNL     1      -2.080  -0.501   1.719  0.00  0.00    +0.014 C 
ATOM      2  C   UNL     1      -2.145   0.977   1.328  0.00  0.00    -0.000 C 
ATOM      3  C   UNL     1      -0.745   1.587   1.253  0.00  0.00    +0.010 C 
ATOM      4  C   UNL     1      -0.013   1.086   0.008  0.00  0.00    +0.005 C 
ATOM      5  C   UNL     1      -0.769   1.601  -1.219  0.00  0.00    +0.001 C 
ATOM      6  C   UNL     1      -2.156   1.001  -1.251  0.00  0.00    -0.003 C 
ATOM      7  C   UNL     1      -2.923   1.149   0.027  0.00  0.00    +0.001 C 
ATOM      8  C   UNL     1      -3.622   2.517   0.160  0.00  0.00    +0.007 C 
ATOM      9  C   UNL     1      -4.083   2.491   1.642  0.00  0.00    +0.035 C 
ATOM     10  C   UNL     1      -2.934   1.784   2.390  0.00  0.00    +0.069 C 
ATOM     11  C   UNL     1      -3.501   0.840   3.451  0.00  0.00    +0.042 C 
ATOM     12  C   UNL     1      -2.110  -0.449  -1.696  0.00  0.00    +0.007 C 
ATOM     13  C   UNL     1      -1.622  -0.496  -3.145  0.00  0.00    +0.039 C 
ATOM     14  C   UNL     1      -0.221   0.111  -3.230  0.00  0.00    +0.112 C 
ATOM     15  C   UNL     1       0.029   1.407  -2.474  0.00  0.00    +0.005 C 
ATOM     16  C   UNL     1      -0.087   2.580  -3.445  0.00  0.00    +0.036 C 
ATOM     17  C   UNL     1       0.989   2.452  -4.490  0.00  0.00    +0.161 C 
ATOM     18  C   UNL     1       1.238   1.249  -5.038  0.00  0.00    +0.184 C 
ATOM     19  C   UNL     1       0.436   0.041  -4.628  0.00  0.00    +0.155 C 
ATOM     20  O   UNL     1       0.883  -0.740  -3.519  0.00  0.00    -0.353 OA
ATOM     21  C   UNL     1      -0.325  -0.669  -5.749  0.00  0.00    +0.053 C 
ATOM     22  O   UNL     1       2.214   1.123  -5.963  0.00  0.00    -0.293 OA
ATOM     23  C   UNL     1       1.496   1.365  -2.042  0.00  0.00    +0.014 C 
ENDROOT
BRANCH  10  24
ATOM     24  O   UNL     1      -2.079   2.752   3.003  0.00  0.00    -0.388 OA
ATOM     25  H   UNL     1      -2.474   3.418   3.784  0.00  0.00    +0.210 HD
ENDBRANCH  10  24
BRANCH  17  26
ATOM     26  C   UNL     1       1.750   3.597  -4.890  0.00  0.00    +0.074 C 
ATOM     27  N   UNL     1       2.355   4.505  -5.207  0.00  0.00    -0.196 NA
ENDBRANCH  17  26
TORSDOF 2
