REMARK  Name = ZINC27739362
REMARK  5 active torsions:
REMARK  status: ('A' for Active; 'I' for Inactive)
REMARK    1  A    between atoms: C_1  and  C_2
REMARK    2  A    between atoms: C_7  and  N_8
REMARK    3  A    between atoms: C_14  and  C_16
REMARK    4  A    between atoms: C_19  and  N_22
REMARK    5  A    between atoms: C_23  and  C_25
REMARK                            x       y       z     vdW  Elec       q    Type
REMARK                         _______ _______ _______ _____ _____    ______ ____
ROOT
ATOM      1  C   UNL     1       1.133   1.880  -0.253  0.00  0.00    +0.037 A 
ATOM      2  C   UNL     1       1.142   3.266  -0.426  0.00  0.00    +0.015 A 
ATOM      3  C   UNL     1       2.340   3.942  -0.495  0.00  0.00    +0.024 A 
ATOM      4  C   UNL     1       3.540   3.245  -0.404  0.00  0.00    +0.033 A 
ATOM      5  C   UNL     1       3.535   1.864  -0.237  0.00  0.00    +0.024 A 
ATOM      6  C   UNL     1       2.341   1.182  -0.162  0.00  0.00    +0.015 A 
ENDROOT
BRANCH   1  13
ATOM      7  N   UNL     1      -0.821  -1.484   2.859  0.00  0.00    -0.327 N 
ATOM      8  C   UNL     1      -1.933  -0.924   2.080  0.00  0.00    +0.124 C 
ATOM      9  C   UNL     1      -1.491  -0.739   0.625  0.00  0.00    +0.127 C 
ATOM     10  N   UNL     1      -0.257   0.061   0.610  0.00  0.00    -0.295 N 
ATOM     11  C   UNL     1       0.859  -0.366   1.468  0.00  0.00    +0.127 C 
ATOM     12  C   UNL     1       0.322  -0.562   2.895  0.00  0.00    +0.124 C 
ATOM     13  C   UNL     1      -0.148   1.152  -0.173  0.00  0.00    +0.247 C 
ATOM     14  O   UNL     1      -1.109   1.541  -0.811  0.00  0.00    -0.270 OA
BRANCH   7  21
ATOM     15  C   UNL     1      -0.668  -4.212   3.649  0.00  0.00    +0.045 C 
ATOM     16  C   UNL     1      -1.175  -3.140   4.579  0.00  0.00    -0.029 A 
ATOM     17  C   UNL     1      -1.584  -3.469   5.856  0.00  0.00    +0.006 A 
ATOM     18  C   UNL     1      -2.050  -2.487   6.710  0.00  0.00    +0.020 A 
ATOM     19  C   UNL     1      -2.109  -1.170   6.287  0.00  0.00    +0.043 A 
ATOM     20  C   UNL     1      -1.698  -0.833   5.011  0.00  0.00    +0.043 A 
ATOM     21  C   UNL     1      -1.234  -1.820   4.151  0.00  0.00    +0.034 A 
ATOM     22 CL   UNL     1      -2.694   0.061   7.363  0.00  0.00    -0.083 Cl
ENDBRANCH   7  21
ENDBRANCH   1  13
BRANCH   4  23
ATOM     23  N   UNL     1       4.751   3.932  -0.479  0.00  0.00    -0.285 N 
ATOM     24  C   UNL     1       4.826   5.094  -1.158  0.00  0.00    +0.225 C 
ATOM     25  O   UNL     1       3.865   5.496  -1.779  0.00  0.00    -0.275 OA
ATOM     26  H   UNL     1       5.646   3.526   0.016  0.00  0.00    +0.155 HD
BRANCH  24  27
ATOM     27  C   UNL     1       6.103   5.893  -1.146  0.00  0.00    +0.129 C 
ATOM     28  C   UNL     1       6.212   6.780  -2.408  0.00  0.00    +0.137 C 
ATOM     29  C   UNL     1       5.865   8.174  -1.932  0.00  0.00    +0.308 C 
ATOM     30  O   UNL     1       5.873   9.165  -2.623  0.00  0.00    -0.251 OA
ATOM     31  O   UNL     1       5.546   8.145  -0.629  0.00  0.00    -0.457 OA
ATOM     32  C   UNL     1       6.085   6.942  -0.017  0.00  0.00    +0.125 C 
ATOM     33  C   UNL     1       7.503   7.188   0.489  0.00  0.00    +0.049 C 
ATOM     34  C   UNL     1       7.474   8.240   1.601  0.00  0.00    +0.004 C 
ATOM     35  C   UNL     1       6.586   7.747   2.745  0.00  0.00    +0.000 C 
ATOM     36  C   UNL     1       5.163   7.524   2.229  0.00  0.00    +0.004 C 
ATOM     37  C   UNL     1       5.183   6.470   1.119  0.00  0.00    +0.049 C 
ENDBRANCH  24  27
ENDBRANCH   4  23
TORSDOF 4
