REMARK  Name = ZINC44887590
REMARK  5 active torsions:
REMARK  status: ('A' for Active; 'I' for Inactive)
REMARK    1  A    between atoms: C_2  and  N_19
REMARK    2  A    between atoms: C_6  and  S_7
REMARK    3  A    between atoms: S_7  and  N_10
REMARK    4  A    between atoms: N_10  and  C_11
REMARK    5  A    between atoms: C_11  and  C_12
REMARK                            x       y       z     vdW  Elec       q    Type
REMARK                         _______ _______ _______ _____ _____    ______ ____
ROOT
ATOM      1  C   UNL     1      -0.017   1.377   0.010  0.00  0.00    +0.057 A 
ATOM      2  C   UNL     1       1.176   2.087   0.002  0.00  0.00    +0.062 A 
ATOM      3  C   UNL     1       2.388   1.406  -0.013  0.00  0.00    +0.147 A 
ATOM      4  C   UNL     1       2.401   0.023  -0.021  0.00  0.00    +0.080 A 
ATOM      5  C   UNL     1       1.209  -0.682  -0.014  0.00  0.00    +0.152 A 
ATOM      6  C   UNL     1       0.002  -0.004   0.002  0.00  0.00    +0.142 A 
ATOM      7  F   UNL     1       1.224  -2.033  -0.021  0.00  0.00    -0.203 F 
ATOM      8  F   UNL     1       3.551   2.093  -0.021  0.00  0.00    -0.203 F 
ENDROOT
BRANCH   6   9
ATOM      9  S   UNL     1      -1.512  -0.905   0.012  0.00  0.00    +0.062 S 
ATOM     10  O   UNL     1      -1.394  -1.888   1.031  0.00  0.00    -0.153 OA
ATOM     11  O   UNL     1      -2.558   0.058  -0.000  0.00  0.00    -0.153 OA
BRANCH   9  12
ATOM     12  N   UNL     1      -1.605  -1.722  -1.426  0.00  0.00    -0.182 NA
ATOM     13  H   UNL     1      -2.301  -1.502  -2.064  0.00  0.00    +0.148 HD
BRANCH  12  14
ATOM     14  C   UNL     1      -0.636  -2.777  -1.732  0.00  0.00    +0.185 C 
BRANCH  14  15
ATOM     15  C   UNL     1      -1.138  -3.599  -2.892  0.00  0.00    +0.192 A 
ATOM     16  N   UNL     1      -1.902  -4.679  -2.821  0.00  0.00    -0.110 NA
ATOM     17  N   UNL     1      -2.111  -5.087  -4.027  0.00  0.00    -0.021 NA
ATOM     18  N   UNL     1      -1.506  -4.301  -4.847  0.00  0.00    -0.021 NA
ATOM     19  N   UNL     1      -0.906  -3.377  -4.177  0.00  0.00    -0.110 NA
ENDBRANCH  14  15
ENDBRANCH  12  14
ENDBRANCH   9  12
ENDBRANCH   6   9
BRANCH   2  20
ATOM     20  N   UNL     1       1.159   3.487   0.009  0.00  0.00    -0.356 N 
ATOM     21  H   UNL     1       0.313   3.962   0.020  0.00  0.00    +0.142 HD
ATOM     22  H   UNL     1       1.993   3.982   0.004  0.00  0.00    +0.142 HD
ENDBRANCH   2  20
TORSDOF 5
