REMARK  Name = ZINC04225795
REMARK  5 active torsions:
REMARK  status: ('A' for Active; 'I' for Inactive)
REMARK    1  A    between atoms: C_1  and  C_2
REMARK    2  A    between atoms: C_4  and  C_28
REMARK    3  A    between atoms: C_6  and  N_8
REMARK    4  A    between atoms: C_9  and  C_11
REMARK    5  A    between atoms: N_17  and  C_20
REMARK                            x       y       z     vdW  Elec       q    Type
REMARK                         _______ _______ _______ _____ _____    ______ ____
ROOT
ATOM      1  C   UNL     1       3.604   6.619  -0.093  0.00  0.00    +0.118 A 
ATOM      2  C   UNL     1       4.770   5.886   0.018  0.00  0.00    +0.106 A 
ATOM      3  N   UNL     1       4.698   4.533   0.114  0.00  0.00    -0.313 N 
ATOM      4  H   UNL     1       5.543   4.003   0.190  0.00  0.00    +0.170 HD
ATOM      5  C   UNL     1       3.519   3.891   0.110  0.00  0.00    +0.334 A 
ATOM      6  O   UNL     1       3.508   2.679   0.205  0.00  0.00    -0.246 OA
ATOM      7  N   UNL     1       2.350   4.545   0.001  0.00  0.00    -0.228 N 
ATOM      8  C   UNL     1       2.326   5.891  -0.100  0.00  0.00    +0.273 A 
ATOM      9  O   UNL     1       1.270   6.489  -0.196  0.00  0.00    -0.266 OA
ENDROOT
BRANCH   7  10
ATOM     10  C   UNL     1       1.147   3.825  -0.004  0.00  0.00    +0.056 A 
ATOM     11  C   UNL     1       0.856   2.964  -1.053  0.00  0.00    +0.029 A 
ATOM     12  C   UNL     1      -0.330   2.255  -1.056  0.00  0.00    +0.042 A 
ATOM     13  C   UNL     1      -1.226   2.399  -0.011  0.00  0.00    +0.142 A 
ATOM     14  C   UNL     1      -0.940   3.262   1.035  0.00  0.00    +0.078 A 
ATOM     15  C   UNL     1       0.245   3.973   1.041  0.00  0.00    +0.049 A 
ATOM     16 CL   UNL     1      -2.069   3.446   2.342  0.00  0.00    -0.081 Cl
ATOM     17  F   UNL     1      -2.382   1.700  -0.012  0.00  0.00    -0.204 F 
ENDBRANCH   7  10
BRANCH   1  19
ATOM     18  N   UNL     1       2.492   8.791  -0.183  0.00  0.00    -0.281 N 
ATOM     19  C   UNL     1       3.641   8.085  -0.199  0.00  0.00    +0.255 C 
ATOM     20  O   UNL     1       4.707   8.662  -0.302  0.00  0.00    -0.270 OA
ATOM     21  H   UNL     1       1.647   8.338  -0.033  0.00  0.00    +0.155 HD
BRANCH  18  27
ATOM     22  C   UNL     1       0.394  12.842  -2.013  0.00  0.00    +0.044 C 
ATOM     23  C   UNL     1       1.515  12.165  -1.267  0.00  0.00    -0.048 A 
ATOM     24  C   UNL     1       2.571  12.912  -0.780  0.00  0.00    +0.006 A 
ATOM     25  C   UNL     1       3.601  12.295  -0.095  0.00  0.00    -0.048 A 
ATOM     26  C   UNL     1       3.578  10.928   0.105  0.00  0.00    +0.026 A 
ATOM     27  C   UNL     1       2.518  10.175  -0.383  0.00  0.00    +0.034 A 
ATOM     28  C   UNL     1       1.488  10.797  -1.076  0.00  0.00    +0.026 A 
ATOM     29  C   UNL     1       4.750  13.113   0.434  0.00  0.00    +0.044 C 
ENDBRANCH  18  27
ENDBRANCH   1  19
TORSDOF 3
