REMARK  Name = ZINC67555846
REMARK  6 active torsions:
REMARK  status: ('A' for Active; 'I' for Inactive)
REMARK    1  A    between atoms: C_1  and  C_2
REMARK    2  A    between atoms: C_4  and  C_30
REMARK    3  A    between atoms: C_12  and  C_14
REMARK    4  A    between atoms: N_16  and  C_17
REMARK    5  A    between atoms: C_17  and  C_19
REMARK    6  A    between atoms: C_17  and  C_20
REMARK                            x       y       z     vdW  Elec       q    Type
REMARK                         _______ _______ _______ _____ _____    ______ ____
ROOT
ATOM      1  C   UNL     1       0.244  -2.852   4.857  0.00  0.00    +0.300 C 
ATOM      2  O   UNL     1       0.017  -4.044   4.878  0.00  0.00    -0.265 OA
ATOM      3  N   UNL     1       0.418  -2.179   6.012  0.00  0.00    -0.301 N 
ATOM      4  H   UNL     1       0.600  -1.227   5.996  0.00  0.00    +0.150 HD
ENDROOT
BRANCH   1  16
ATOM      5  C   UNL     1      -0.524   1.349  -0.057  0.00  0.00    +0.044 C 
ATOM      6  C   UNL     1      -0.181  -0.118  -0.043  0.00  0.00    -0.048 A 
ATOM      7  C   UNL     1       0.058  -0.786  -1.230  0.00  0.00    +0.007 A 
ATOM      8  C   UNL     1       0.371  -2.131  -1.220  0.00  0.00    -0.045 A 
ATOM      9  C   UNL     1       0.448  -2.821  -0.022  0.00  0.00    -0.023 A 
ATOM     10  C   UNL     1       0.211  -2.153   1.169  0.00  0.00    +0.040 A 
ATOM     11  C   UNL     1      -0.100  -0.797   1.157  0.00  0.00    +0.027 A 
ATOM     12  N   UNL     1       0.291  -2.822   2.396  0.00  0.00    -0.263 N 
ATOM     13  C   UNL     1       0.328  -4.291   2.402  0.00  0.00    +0.114 C 
ATOM     14  C   UNL     1       1.313  -4.740   1.315  0.00  0.00    +0.024 C 
ATOM     15  C   UNL     1       0.785  -4.289  -0.046  0.00  0.00    +0.039 C 
ATOM     16  C   UNL     1       0.332  -2.131   3.552  0.00  0.00    +0.306 C 
ATOM     17  O   UNL     1       0.441  -0.922   3.533  0.00  0.00    -0.265 OA
ATOM     18  C   UNL     1       0.629  -2.851  -2.518  0.00  0.00    +0.044 C 
ENDBRANCH   1  16
BRANCH   3  19
ATOM     19  C   UNL     1       0.331  -2.887   7.292  0.00  0.00    +0.101 C 
ATOM     20  C   UNL     1      -1.132  -2.970   7.731  0.00  0.00    +0.033 C 
BRANCH  19  21
ATOM     21  C   UNL     1       1.126  -2.141   8.333  0.00  0.00    -0.027 A 
ATOM     22  C   UNL     1       1.091  -0.759   8.373  0.00  0.00    +0.007 A 
ATOM     23  C   UNL     1       1.816  -0.070   9.324  0.00  0.00    +0.024 A 
ATOM     24  C   UNL     1       2.590  -0.764  10.251  0.00  0.00    +0.037 A 
ATOM     25  C   UNL     1       2.618  -2.152  10.200  0.00  0.00    -0.017 A 
ATOM     26  C   UNL     1       1.889  -2.837   9.254  0.00  0.00    +0.011 A 
ATOM     27  C   UNL     1       3.531  -2.601  11.317  0.00  0.00    +0.133 C 
ATOM     28  C   UNL     1       3.985  -1.309  11.963  0.00  0.00    +0.222 C 
ATOM     29  O   UNL     1       4.735  -1.202  12.910  0.00  0.00    -0.275 OA
ATOM     30  N   UNL     1       3.398  -0.304  11.291  0.00  0.00    -0.285 N 
ATOM     31  H   UNL     1       3.523   0.634  11.505  0.00  0.00    +0.155 HD
ENDBRANCH  19  21
ENDBRANCH   3  19
TORSDOF 3
