REMARK  Name = ZINC39462925
REMARK  5 active torsions:
REMARK  status: ('A' for Active; 'I' for Inactive)
REMARK    1  A    between atoms: C_1  and  C_2
REMARK    2  A    between atoms: C_2  and  C_3
REMARK    3  A    between atoms: C_2  and  S_4
REMARK    4  A    between atoms: S_4  and  C_7
REMARK    5  A    between atoms: C_9  and  O_17
REMARK                            x       y       z     vdW  Elec       q    Type
REMARK                         _______ _______ _______ _____ _____    ______ ____
ROOT
ATOM      1  C   UNL     1      -2.252  -0.079  -1.422  0.00  0.00    +0.167 A 
ATOM      2  C   UNL     1      -2.749  -0.901  -2.367  0.00  0.00    +0.091 A 
ATOM      3  C   UNL     1      -3.226  -0.377  -3.585  0.00  0.00    +0.124 A 
ATOM      4  C   UNL     1      -3.183   0.972  -3.802  0.00  0.00    +0.092 A 
ATOM      5  C   UNL     1      -2.660   1.813  -2.801  0.00  0.00    +0.143 A 
ATOM      6  N   UNL     1      -2.209   1.271  -1.626  0.00  0.00    -0.272 N 
ATOM      7  C   UNL     1      -1.769   2.311  -0.848  0.00  0.00    +0.106 A 
ATOM      8  C   UNL     1      -1.964   3.446  -1.553  0.00  0.00    +0.146 A 
ATOM      9  N   UNL     1      -2.498   3.127  -2.737  0.00  0.00    -0.235 NA
ATOM     10  I   UNL     1      -0.949   2.167   1.075  0.00  0.00    -0.022 I 
ENDROOT
BRANCH   1  11
ATOM     11  S   UNL     1      -1.660  -0.751   0.095  0.00  0.00    +0.015 S 
ATOM     12  O   UNL     1      -0.379  -0.164   0.276  0.00  0.00    -0.168 OA
ATOM     13  O   UNL     1      -1.797  -2.158  -0.053  0.00  0.00    -0.168 OA
BRANCH  11  15
ATOM     14  C   UNL     1      -4.193  -0.756   1.127  0.00  0.00    +0.032 C 
ATOM     15  C   UNL     1      -2.811  -0.141   1.357  0.00  0.00    +0.131 C 
ATOM     16  C   UNL     1      -2.302  -0.533   2.745  0.00  0.00    +0.032 C 
ENDBRANCH  11  15
ENDBRANCH   1  11
BRANCH   3  17
ATOM     17  O   UNL     1      -3.726  -1.206  -4.537  0.00  0.00    -0.507 OA
ATOM     18  H   UNL     1      -4.028  -0.751  -5.335  0.00  0.00    +0.292 HD
ENDBRANCH   3  17
TORSDOF 3
