REMARK  Name = ZINC22365348
REMARK  8 active torsions:
REMARK  status: ('A' for Active; 'I' for Inactive)
REMARK    1  A    between atoms: C_1  and  C_2
REMARK    2  A    between atoms: C_4  and  N_14
REMARK    3  A    between atoms: C_7  and  N_8
REMARK    4  A    between atoms: C_15  and  C_17
REMARK    5  A    between atoms: C_17  and  N_18
REMARK    6  A    between atoms: N_18  and  C_19
REMARK    7  A    between atoms: N_18  and  S_28
REMARK    8  A    between atoms: S_28  and  C_31
REMARK                            x       y       z     vdW  Elec       q    Type
REMARK                         _______ _______ _______ _____ _____    ______ ____
ROOT
ATOM      1  N   UNL     1       4.308   3.692   3.124  0.00  0.00    -0.284 N 
ATOM      2  C   UNL     1       3.782   3.435   1.910  0.00  0.00    +0.236 C 
ATOM      3  O   UNL     1       4.030   2.387   1.351  0.00  0.00    -0.274 OA
ATOM      4  H   UNL     1       4.146   4.672   3.597  0.00  0.00    +0.155 HD
ENDROOT
BRANCH   1   8
ATOM      5  C   UNL     1       7.491  -0.049   2.916  0.00  0.00    +0.046 C 
ATOM      6  C   UNL     1       6.611   0.885   3.706  0.00  0.00    -0.027 A 
ATOM      7  C   UNL     1       5.870   1.852   3.056  0.00  0.00    +0.028 A 
ATOM      8  C   UNL     1       5.059   2.712   3.784  0.00  0.00    +0.034 A 
ATOM      9  C   UNL     1       4.997   2.603   5.167  0.00  0.00    +0.025 A 
ATOM     10  C   UNL     1       5.733   1.633   5.817  0.00  0.00    +0.025 A 
ATOM     11  C   UNL     1       6.545   0.773   5.088  0.00  0.00    +0.039 A 
BRANCH  11  12
ATOM     12  N   UNL     1       7.296  -0.208   5.748  0.00  0.00    -0.271 N 
ATOM     13  C   UNL     1       8.664  -0.012   6.241  0.00  0.00    +0.114 C 
ATOM     14  C   UNL     1       8.905  -1.158   7.250  0.00  0.00    +0.029 C 
ATOM     15  C   UNL     1       7.924  -2.238   6.739  0.00  0.00    +0.098 C 
ATOM     16  C   UNL     1       6.858  -1.453   6.007  0.00  0.00    +0.220 C 
ATOM     17  O   UNL     1       5.767  -1.883   5.698  0.00  0.00    -0.275 OA
ENDBRANCH  11  12
ENDBRANCH   1   8
BRANCH   2  18
ATOM     18  C   UNL     1       2.888   4.450   1.245  0.00  0.00    +0.227 C 
BRANCH  18  19
ATOM     19  N   UNL     1       2.351   3.889   0.003  0.00  0.00    -0.197 N 
BRANCH  19  20
ATOM     20  C   UNL     1       1.190   3.111   0.032  0.00  0.00    +0.071 A 
ATOM     21  C   UNL     1       1.272   1.747   0.277  0.00  0.00    +0.047 A 
ATOM     22  C   UNL     1       0.123   0.980   0.306  0.00  0.00    +0.061 A 
ATOM     23  C   UNL     1      -1.111   1.572   0.096  0.00  0.00    +0.061 A 
ATOM     24  C   UNL     1      -1.196   2.930  -0.153  0.00  0.00    +0.043 A 
ATOM     25  C   UNL     1      -0.050   3.702  -0.183  0.00  0.00    +0.065 A 
ATOM     26 CL   UNL     1      -0.158   5.407  -0.489  0.00  0.00    -0.082 Cl
ATOM     27 CL   UNL     1      -2.554   0.608   0.140  0.00  0.00    -0.082 Cl
ATOM     28 CL   UNL     1       0.225  -0.726   0.611  0.00  0.00    -0.082 Cl
ENDBRANCH  19  20
BRANCH  19  29
ATOM     29  S   UNL     1       3.119   4.176  -1.435  0.00  0.00    +0.043 S 
ATOM     30  O   UNL     1       4.475   4.413  -1.081  0.00  0.00    -0.155 OA
ATOM     31  O   UNL     1       2.768   3.074  -2.260  0.00  0.00    -0.155 OA
ATOM     32  C   UNL     1       2.364   5.698  -2.071  0.00  0.00    +0.218 C 
ENDBRANCH  19  29
ENDBRANCH  18  19
ENDBRANCH   2  18
TORSDOF 6
