REMARK  Name = ZINC34700066
REMARK  5 active torsions:
REMARK  status: ('A' for Active; 'I' for Inactive)
REMARK    1  A    between atoms: C_1  and  C_2
REMARK    2  A    between atoms: C_5  and  C_11
REMARK    3  A    between atoms: C_7  and  N_8
REMARK    4  A    between atoms: C_18  and  C_20
REMARK    5  A    between atoms: C_31  and  C_34
REMARK                            x       y       z     vdW  Elec       q    Type
REMARK                         _______ _______ _______ _____ _____    ______ ____
ROOT
ATOM      1  C   UNL     1       0.436  -5.832   1.519  0.00  0.00    +0.247 C 
ATOM      2  O   UNL     1      -0.466  -5.905   2.330  0.00  0.00    -0.270 OA
ATOM      3  N   UNL     1       0.467  -6.675   0.468  0.00  0.00    -0.292 N 
ATOM      4  C   UNL     1       1.464  -6.505  -0.599  0.00  0.00    +0.127 C 
ATOM      5  C   UNL     1       0.732  -6.397  -1.942  0.00  0.00    +0.127 C 
ATOM      6  N   UNL     1      -0.231  -7.503  -2.042  0.00  0.00    -0.297 N 
ATOM      7  C   UNL     1      -1.228  -7.673  -0.976  0.00  0.00    +0.130 C 
ATOM      8  C   UNL     1      -0.492  -7.785   0.370  0.00  0.00    +0.091 C 
ATOM      9  C   UNL     1      -1.499  -7.695   1.518  0.00  0.00    +0.029 C 
ATOM     10  C   UNL     1      -0.199  -8.362  -3.114  0.00  0.00    +0.206 A 
ATOM     11  N   UNL     1       0.521  -9.449  -3.024  0.00  0.00    -0.215 NA
ATOM     12  C   UNL     1       0.603 -10.347  -4.038  0.00  0.00    +0.079 A 
ATOM     13  C   UNL     1       1.378 -11.503  -3.924  0.00  0.00    +0.048 A 
ATOM     14  C   UNL     1       1.438 -12.393  -4.975  0.00  0.00    +0.043 A 
ATOM     15  C   UNL     1       0.736 -12.154  -6.150  0.00  0.00    +0.021 A 
ATOM     16  C   UNL     1      -0.035 -11.019  -6.285  0.00  0.00    +0.015 A 
ATOM     17  C   UNL     1      -0.109 -10.108  -5.236  0.00  0.00    +0.045 A 
ATOM     18  C   UNL     1      -0.914  -8.883  -5.323  0.00  0.00    +0.173 A 
ATOM     19  N   UNL     1      -0.928  -8.047  -4.229  0.00  0.00    -0.250 N 
ATOM     20  C   UNL     1      -1.743  -7.012  -4.573  0.00  0.00    +0.137 A 
ATOM     21  N   UNL     1      -2.176  -7.239  -5.785  0.00  0.00    -0.134 NA
ATOM     22  N   UNL     1      -1.682  -8.340  -6.235  0.00  0.00    -0.129 NA
ATOM     23  C   UNL     1      -2.084  -5.822  -3.713  0.00  0.00    +0.088 C 
ATOM     24 CL   UNL     1       2.402 -13.829  -4.829  0.00  0.00    -0.083 Cl
ENDROOT
BRANCH   1  29
ATOM     25  C   UNL     1       4.577  -1.888   2.165  0.00  0.00    +0.046 C 
ATOM     26  C   UNL     1       3.493  -2.921   1.996  0.00  0.00    -0.020 A 
ATOM     27  C   UNL     1       3.806  -4.173   1.496  0.00  0.00    +0.006 A 
ATOM     28  C   UNL     1       2.818  -5.123   1.338  0.00  0.00    +0.013 A 
ATOM     29  C   UNL     1       1.500  -4.819   1.685  0.00  0.00    +0.039 A 
ATOM     30  C   UNL     1       1.192  -3.555   2.190  0.00  0.00    +0.046 A 
ATOM     31  C   UNL     1       2.190  -2.616   2.348  0.00  0.00    +0.130 A 
BRANCH  31  32
ATOM     32  N   UNL     1       1.865  -1.277   2.888  0.00  0.00    +0.057 N 
ATOM     33  O   UNL     1       2.648  -0.713   3.617  0.00  0.00    -0.126 OA
ATOM     34  O   UNL     1       0.818  -0.747   2.601  0.00  0.00    -0.126 OA
ENDBRANCH  31  32
ENDBRANCH   1  29
TORSDOF 2
