REMARK  Name = ZINC13132404
REMARK  6 active torsions:
REMARK  status: ('A' for Active; 'I' for Inactive)
REMARK    1  A    between atoms: C_1  and  C_2
REMARK    2  A    between atoms: N_5  and  C_7
REMARK    3  A    between atoms: C_12  and  C_14
REMARK    4  A    between atoms: C_12  and  C_15
REMARK    5  A    between atoms: C_17  and  O_31
REMARK    6  A    between atoms: C_20  and  C_22
REMARK                            x       y       z     vdW  Elec       q    Type
REMARK                         _______ _______ _______ _____ _____    ______ ____
ROOT
ATOM      1  C   UNL     1       0.467   1.747  -0.271  0.00  0.00    +0.068 C 
ATOM      2  C   UNL     1       0.522   0.246  -0.138  0.00  0.00    +0.067 A 
ATOM      3  C   UNL     1       0.210  -0.676  -1.153  0.00  0.00    +0.036 A 
ATOM      4  C   UNL     1       0.380  -1.933  -0.639  0.00  0.00    +0.160 A 
ATOM      5  N   UNL     1       0.798  -1.773   0.665  0.00  0.00    -0.243 N 
ATOM      6  N   UNL     1       0.873  -0.406   0.934  0.00  0.00    -0.174 NA
ATOM      7  N   UNL     1       0.205  -3.154  -1.175  0.00  0.00    -0.197 NA
ATOM      8  C   UNL     1      -0.154  -3.618  -2.281  0.00  0.00    +0.199 C 
ATOM      9  C   UNL     1      -0.496  -2.918  -3.537  0.00  0.00    +0.165 C 
ATOM     10  S   UNL     1      -1.396  -1.385  -3.269  0.00  0.00    -0.138 S 
ATOM     11  C   UNL     1      -0.220  -0.249  -2.524  0.00  0.00    +0.112 C 
ENDROOT
BRANCH  11  12
ATOM     12  C   UNL     1      -0.852   1.115  -2.432  0.00  0.00    -0.026 A 
ATOM     13  C   UNL     1      -2.065   1.272  -1.786  0.00  0.00    +0.009 A 
ATOM     14  C   UNL     1      -2.648   2.522  -1.700  0.00  0.00    +0.050 A 
ATOM     15  C   UNL     1      -2.019   3.622  -2.261  0.00  0.00    +0.166 A 
ATOM     16  C   UNL     1      -0.798   3.464  -2.911  0.00  0.00    +0.167 A 
ATOM     17  C   UNL     1      -0.216   2.209  -2.990  0.00  0.00    +0.054 A 
ATOM     18  O   UNL     1      -0.389   4.682  -3.373  0.00  0.00    -0.453 OA
ATOM     19  C   UNL     1      -1.564   5.514  -3.355  0.00  0.00    +0.466 C 
ATOM     20  O   UNL     1      -2.375   4.938  -2.314  0.00  0.00    -0.453 OA
ENDBRANCH  11  12
BRANCH   5  21
ATOM     21  C   UNL     1       1.112  -2.852   1.606  0.00  0.00    +0.114 C 
ATOM     22  C   UNL     1       2.569  -2.724   2.063  0.00  0.00    +0.055 C 
ATOM     23  C   UNL     1       2.865  -3.807   3.104  0.00  0.00    +0.162 C 
ATOM     24  O   UNL     1       1.956  -3.675   4.199  0.00  0.00    -0.374 OA
ATOM     25  C   UNL     1       0.582  -3.833   3.839  0.00  0.00    +0.066 C 
ATOM     26  C   UNL     1       0.193  -2.752   2.826  0.00  0.00    +0.061 C 
ATOM     27  C   UNL     1      -0.291  -3.700   5.088  0.00  0.00    +0.041 C 
ATOM     28  C   UNL     1       0.373  -5.213   3.214  0.00  0.00    +0.041 C 
ENDBRANCH   5  21
BRANCH   8  29
ATOM     29  O   UNL     1      -0.240  -4.963  -2.335  0.00  0.00    -0.495 OA
ATOM     30  H   UNL     1      -0.013  -5.405  -1.506  0.00  0.00    +0.293 HD
ENDBRANCH   8  29
TORSDOF 3
