REMARK  Name = ZINC00978080
REMARK  4 active torsions:
REMARK  status: ('A' for Active; 'I' for Inactive)
REMARK    1  A    between atoms: C_1  and  C_2
REMARK    2  A    between atoms: C_6  and  N_8
REMARK    3  A    between atoms: C_12  and  N_16
REMARK    4  A    between atoms: N_16  and  N_17
REMARK                            x       y       z     vdW  Elec       q    Type
REMARK                         _______ _______ _______ _____ _____    ______ ____
ROOT
ATOM      1  N   UNL     1       0.050  -2.798   2.395  0.00  0.00    -0.209 N 
ATOM      2  C   UNL     1       0.141  -2.196   3.587  0.00  0.00    +0.228 C 
ATOM      3  O   UNL     1       0.218  -1.000   3.766  0.00  0.00    -0.275 OA
ATOM      4  C   UNL     1       0.130  -3.246   4.677  0.00  0.00    +0.126 C 
ATOM      5  C   UNL     1       0.017  -4.573   3.900  0.00  0.00    +0.168 C 
ATOM      6  C   UNL     1      -0.030  -4.133   2.453  0.00  0.00    +0.245 C 
ATOM      7  O   UNL     1      -0.124  -4.873   1.497  0.00  0.00    -0.273 OA
ENDROOT
BRANCH   1  13
ATOM      8  C   UNL     1      -2.370  -1.346  -1.633  0.00  0.00    +0.044 C 
ATOM      9  C   UNL     1      -1.124  -1.368  -0.785  0.00  0.00    -0.049 A 
ATOM     10  C   UNL     1       0.006  -0.689  -1.200  0.00  0.00    +0.003 A 
ATOM     11  C   UNL     1       1.151  -0.708  -0.425  0.00  0.00    +0.002 A 
ATOM     12  C   UNL     1       1.169  -1.406   0.767  0.00  0.00    +0.024 A 
ATOM     13  C   UNL     1       0.035  -2.089   1.186  0.00  0.00    +0.044 A 
ATOM     14  C   UNL     1      -1.115  -2.063   0.409  0.00  0.00    +0.027 A 
ENDBRANCH   1  13
BRANCH   5  15
ATOM     15  N   UNL     1      -1.217  -5.282   4.264  0.00  0.00    -0.229 NA
ATOM     16  H   UNL     1      -1.206  -5.551   5.236  0.00  0.00    +0.145 HD
BRANCH  15  17
ATOM     17  N   UNL     1      -2.318  -4.527   3.977  0.00  0.00    -0.263 N 
ATOM     18  C   UNL     1      -3.590  -5.021   4.248  0.00  0.00    +0.151 A 
ATOM     19  C   UNL     1      -4.709  -4.247   3.948  0.00  0.00    +0.083 A 
ATOM     20  C   UNL     1      -5.968  -4.751   4.222  0.00  0.00    +0.045 A 
ATOM     21  C   UNL     1      -6.067  -6.016   4.790  0.00  0.00    +0.061 A 
ATOM     22  C   UNL     1      -4.915  -6.727   5.062  0.00  0.00    +0.133 A 
ATOM     23  N   UNL     1      -3.727  -6.223   4.784  0.00  0.00    -0.236 NA
ATOM     24 CL   UNL     1      -7.623  -6.694   5.155  0.00  0.00    -0.082 Cl
ATOM     25 CL   UNL     1      -4.526  -2.673   3.239  0.00  0.00    -0.080 Cl
ATOM     26  H   UNL     1      -2.213  -3.646   3.584  0.00  0.00    +0.168 HD
ENDBRANCH  15  17
ENDBRANCH   5  15
TORSDOF 3
