REMARK  Name = ZINC38552930
REMARK  3 active torsions:
REMARK  status: ('A' for Active; 'I' for Inactive)
REMARK    1  A    between atoms: C_5  and  C_7
REMARK    2  A    between atoms: C_7  and  C_8
REMARK    3  A    between atoms: C_19  and  C_22
REMARK                            x       y       z     vdW  Elec       q    Type
REMARK                         _______ _______ _______ _____ _____    ______ ____
ROOT
ATOM      1  C   UNL     1       1.377  -2.737   1.149  0.00  0.00    +0.220 C 
ATOM      2  O   UNL     1       1.241  -1.960   2.071  0.00  0.00    -0.275 OA
ATOM      3  N   UNL     1       1.419  -4.064   1.387  0.00  0.00    -0.298 N 
ATOM      4  C   UNL     1       1.588  -5.016   0.281  0.00  0.00    +0.126 C 
ATOM      5  C   UNL     1       2.804  -5.903   0.580  0.00  0.00    +0.126 C 
ATOM      6  N   UNL     1       2.681  -6.422   1.949  0.00  0.00    -0.307 N 
ATOM      7  C   UNL     1       2.511  -5.469   3.055  0.00  0.00    +0.126 C 
ATOM      8  C   UNL     1       1.301  -4.582   2.757  0.00  0.00    +0.126 C 
ATOM      9  C   UNL     1       2.723  -7.772   2.191  0.00  0.00    +0.151 C 
ATOM     10  N   UNL     1       2.552  -8.641   1.216  0.00  0.00    -0.258 N 
ATOM     11  N   UNL     1       2.568  -9.902   1.350  0.00  0.00    -0.176 NA
ATOM     12  C   UNL     1       2.412 -10.612   2.413  0.00  0.00    +0.079 C 
ATOM     13  C   UNL     1       2.131  -9.993   3.764  0.00  0.00    +0.134 C 
ATOM     14  S   UNL     1       3.017  -8.396   3.822  0.00  0.00    -0.085 S 
ATOM     15  H   UNL     1       2.401  -8.288   0.325  0.00  0.00    +0.191 HD
ENDROOT
BRANCH  12  16
ATOM     16  C   UNL     1       2.510 -12.076   2.309  0.00  0.00    -0.001 A 
ATOM     17  C   UNL     1       2.339 -12.874   3.445  0.00  0.00    +0.011 A 
ATOM     18  C   UNL     1       2.432 -14.245   3.341  0.00  0.00    +0.020 A 
ATOM     19  C   UNL     1       2.693 -14.834   2.114  0.00  0.00    +0.041 A 
ATOM     20  C   UNL     1       2.863 -14.050   0.985  0.00  0.00    +0.020 A 
ATOM     21  C   UNL     1       2.768 -12.678   1.073  0.00  0.00    +0.011 A 
ATOM     22 CL   UNL     1       2.808 -16.562   1.992  0.00  0.00    -0.084 Cl
ENDBRANCH  12  16
BRANCH   1  23
ATOM     23  C   UNL     1       1.498  -2.220  -0.261  0.00  0.00    +0.132 C 
BRANCH  23  28
ATOM     24  C   UNL     1       0.143   1.297  -0.470  0.00  0.00    +0.000 A 
ATOM     25  C   UNL     1       1.282   2.047  -0.238  0.00  0.00    +0.001 A 
ATOM     26  C   UNL     1       2.490   1.416  -0.013  0.00  0.00    +0.020 A 
ATOM     27  C   UNL     1       2.561   0.034  -0.021  0.00  0.00    +0.045 A 
ATOM     28  C   UNL     1       1.422  -0.715  -0.253  0.00  0.00    -0.020 A 
ATOM     29  C   UNL     1       0.213  -0.083  -0.477  0.00  0.00    +0.005 A 
ATOM     30 CL   UNL     1       4.080  -0.759   0.261  0.00  0.00    -0.083 Cl
ENDBRANCH  23  28
ENDBRANCH   1  23
TORSDOF 3
