REMARK  Name = ZINC35188416
REMARK  11 active torsions:
REMARK  status: ('A' for Active; 'I' for Inactive)
REMARK    1  A    between atoms: C_1  and  C_2
REMARK    2  A    between atoms: C_2  and  O_3
REMARK    3  A    between atoms: O_3  and  C_4
REMARK    4  A    between atoms: C_7  and  C_11
REMARK    5  A    between atoms: C_9  and  O_10
REMARK    6  A    between atoms: N_12  and  N_13
REMARK    7  A    between atoms: N_24  and  C1*_25
REMARK    8  A    between atoms: C2*_27  and  O2*_37
REMARK    9  A    between atoms: C3*_29  and  O3*_36
REMARK   10  A    between atoms: C4*_31  and  C5*_34
REMARK   11  A    between atoms: C5*_34  and  O5*_35
REMARK                            x       y       z     vdW  Elec       q    Type
REMARK                         _______ _______ _______ _____ _____    ______ ____
ROOT
ATOM      1  N   UNL     1      -0.120  -6.315   0.163  0.00  0.00    -0.206 N 
ATOM      2  C   UNL     1      -0.378  -7.140   1.240  0.00  0.00    +0.220 A 
ATOM      3  N   UNL     1      -0.205  -8.439   1.256  0.00  0.00    -0.206 NA
ATOM      4  C   UNL     1      -0.558  -8.922   2.472  0.00  0.00    +0.174 A 
ATOM      5  C   UNL     1      -0.579 -10.215   3.050  0.00  0.00    +0.279 A 
ATOM      6  O   UNL     1      -0.224 -11.193   2.414  0.00  0.00    -0.265 OA
ATOM      7  N   UNL     1      -1.004 -10.336   4.328  0.00  0.00    -0.312 N 
ATOM      8  H   UNL     1      -1.028 -11.210   4.747  0.00  0.00    +0.170 HD
ATOM      9  C   UNL     1      -1.397  -9.241   5.027  0.00  0.00    +0.201 A 
ATOM     10  N   UNL     1      -1.383  -8.045   4.508  0.00  0.00    -0.218 NA
ATOM     11  C   UNL     1      -0.975  -7.839   3.249  0.00  0.00    +0.171 A 
ATOM     12  N   UNL     1      -0.849  -6.726   2.456  0.00  0.00    -0.266 N 
ATOM     13  H   UNL     1      -0.050  -5.357   0.292  0.00  0.00    +0.177 HD
ENDROOT
BRANCH  12  14
ATOM     14  C1* UNL     1      -1.164  -5.348   2.840  0.00  0.00    +0.255 C 
ATOM     15  C2* UNL     1       0.140  -4.533   3.035  0.00  0.00    +0.195 C 
ATOM     16  C3* UNL     1      -0.375  -3.090   2.781  0.00  0.00    +0.178 C 
ATOM     17  C4* UNL     1      -1.458  -3.312   1.704  0.00  0.00    +0.177 C 
ATOM     18  O4* UNL     1      -1.869  -4.684   1.779  0.00  0.00    -0.346 OA
BRANCH  16  19
ATOM     19  O3* UNL     1      -0.941  -2.535   3.971  0.00  0.00    -0.386 OA
ATOM     20  H3* UNL     1      -1.276  -1.635   3.864  0.00  0.00    +0.210 HD
ENDBRANCH  16  19
BRANCH  15  21
ATOM     21  O2* UNL     1       0.642  -4.675   4.365  0.00  0.00    -0.385 OA
ATOM     22  H2* UNL     1       1.457  -4.182   4.532  0.00  0.00    +0.210 HD
ENDBRANCH  15  21
BRANCH  17  23
ATOM     23  C5* UNL     1      -2.655  -2.397   1.974  0.00  0.00    +0.190 C 
BRANCH  23  24
ATOM     24  O5* UNL     1      -3.601  -2.524   0.911  0.00  0.00    -0.392 OA
ATOM     25  H5* UNL     1      -4.387  -1.970   1.017  0.00  0.00    +0.210 HD
ENDBRANCH  23  24
ENDBRANCH  17  23
ENDBRANCH  12  14
BRANCH   1  27
ATOM     26  C   UNL     1       0.407  -6.107  -2.106  0.00  0.00    +0.138 C 
ATOM     27  N   UNL     1       0.040  -6.863  -1.117  0.00  0.00    -0.188 NA
BRANCH  26  31
ATOM     28  C   UNL     1       2.760  -2.647  -1.367  0.00  0.00    +0.162 A 
ATOM     29  C   UNL     1       2.546  -3.570  -0.353  0.00  0.00    +0.050 A 
ATOM     30  C   UNL     1       1.783  -4.694  -0.589  0.00  0.00    +0.013 A 
ATOM     31  C   UNL     1       1.223  -4.906  -1.851  0.00  0.00    -0.002 A 
ATOM     32  C   UNL     1       1.439  -3.976  -2.872  0.00  0.00    +0.058 A 
ATOM     33  C   UNL     1       2.201  -2.849  -2.627  0.00  0.00    +0.159 A 
BRANCH  33  34
ATOM     34  O   UNL     1       2.409  -1.940  -3.616  0.00  0.00    -0.503 OA
ATOM     35  H   UNL     1       3.193  -2.116  -4.154  0.00  0.00    +0.292 HD
ENDBRANCH  33  34
BRANCH  28  36
ATOM     36  O   UNL     1       3.514  -1.541  -1.129  0.00  0.00    -0.489 OA
BRANCH  36  38
ATOM     37  C   UNL     1       4.870  -0.102   0.261  0.00  0.00    +0.048 C 
ATOM     38  C   UNL     1       4.058  -1.397   0.184  0.00  0.00    +0.226 C 
ENDBRANCH  36  38
ENDBRANCH  28  36
ENDBRANCH  26  31
ENDBRANCH   1  27
TORSDOF 10
