REMARK  Name = ZINC12488894
REMARK  6 active torsions:
REMARK  status: ('A' for Active; 'I' for Inactive)
REMARK    1  A    between atoms: C_1  and  N_59
REMARK    2  A    between atoms: C_12  and  O_16
REMARK    3  A    between atoms: O_16  and  C_17
REMARK    4  A    between atoms: C_17  and  C_19
REMARK    5  A    between atoms: C_22  and  S_25
REMARK    6  A    between atoms: S_25  and  N_28
REMARK                            x       y       z     vdW  Elec       q    Type
REMARK                         _______ _______ _______ _____ _____    ______ ____
ROOT
ATOM      1  C   UNL     1      -0.176   0.839   2.378  0.00  0.00    -0.096 C 
ATOM      2  C   UNL     1      -0.040   0.998  -0.034  0.00  0.00    -0.060 C 
ATOM      3  C   UNL     1      -0.761   1.517  -1.280  0.00  0.00    +0.088 C 
ATOM      4  N   UNL     1      -0.893   2.978  -1.193  0.00  0.00    -0.313 N 
ATOM      5  C   UNL     1      -1.651   3.365   0.005  0.00  0.00    +0.088 C 
ATOM      6  C   UNL     1      -0.930   2.845   1.251  0.00  0.00    -0.060 C 
ATOM      7  C   UNL     1      -1.477   3.491  -2.334  0.00  0.00    +0.162 A 
ATOM      8  N   UNL     1      -1.892   2.854  -3.404  0.00  0.00    -0.225 NA
ATOM      9  C   UNL     1      -2.450   3.491  -4.458  0.00  0.00    +0.081 A 
ATOM     10  C   UNL     1      -2.936   2.928  -5.661  0.00  0.00    +0.032 A 
ATOM     11  C   UNL     1      -3.478   3.719  -6.638  0.00  0.00    +0.048 A 
ATOM     12  C   UNL     1      -3.570   5.100  -6.486  0.00  0.00    +0.133 A 
ATOM     13  C   UNL     1      -3.103   5.685  -5.318  0.00  0.00    +0.063 A 
ATOM     14  C   UNL     1      -2.560   4.895  -4.336  0.00  0.00    +0.044 A 
ATOM     15  S   UNL     1      -1.866   5.191  -2.727  0.00  0.00    -0.052 S 
ATOM     16  N   UNL     1      -0.823   1.374   1.161  0.00  0.00    +0.380 N 
ATOM     17  H   UNL     1      -1.765   0.975   1.082  0.00  0.00    -0.082 HD
ENDROOT
BRANCH  12  18
ATOM     18  O   UNL     1      -4.112   5.866  -7.471  0.00  0.00    -0.422 OA
BRANCH  18  19
ATOM     19  C   UNL     1      -5.435   5.739  -7.686  0.00  0.00    +0.344 C 
ATOM     20  O   UNL     1      -6.107   5.047  -6.947  0.00  0.00    -0.245 OA
BRANCH  19  21
ATOM     21  C   UNL     1      -6.070   6.442  -8.819  0.00  0.00    +0.060 A 
ATOM     22  C   UNL     1      -5.301   7.243  -9.666  0.00  0.00    +0.017 A 
ATOM     23  C   UNL     1      -5.899   7.894 -10.726  0.00  0.00    +0.029 A 
ATOM     24  C   UNL     1      -7.260   7.761 -10.944  0.00  0.00    +0.106 A 
ATOM     25  C   UNL     1      -8.028   6.973 -10.105  0.00  0.00    +0.029 A 
ATOM     26  C   UNL     1      -7.442   6.314  -9.045  0.00  0.00    +0.017 A 
BRANCH  24  27
ATOM     27  S   UNL     1      -8.016   8.600 -12.296  0.00  0.00    +0.061 S 
ATOM     28  O   UNL     1      -6.992   8.835 -13.253  0.00  0.00    -0.153 OA
ATOM     29  O   UNL     1      -9.201   7.880 -12.609  0.00  0.00    -0.153 OA
BRANCH  27  30
ATOM     30  N   UNL     1      -8.497  10.085 -11.743  0.00  0.00    -0.177 NA
ATOM     31  C   UNL     1      -9.807  10.397 -11.154  0.00  0.00    +0.109 C 
ATOM     32  C   UNL     1      -9.809  11.902 -10.812  0.00  0.00    +0.018 C 
ATOM     33  C   UNL     1      -8.714  12.472 -11.752  0.00  0.00    +0.018 C 
ATOM     34  C   UNL     1      -7.684  11.315 -11.767  0.00  0.00    +0.109 C 
ENDBRANCH  27  30
ENDBRANCH  24  27
ENDBRANCH  19  21
ENDBRANCH  18  19
ENDBRANCH  12  18
TORSDOF 5
