REMARK  Name = ZINC65183104
REMARK  9 active torsions:
REMARK  status: ('A' for Active; 'I' for Inactive)
REMARK    1  A    between atoms: C_1  and  C_2
REMARK    2  A    between atoms: C_4  and  O_31
REMARK    3  A    between atoms: C_7  and  C_8
REMARK    4  A    between atoms: N_10  and  C_11
REMARK    5  A    between atoms: N_10  and  C_12
REMARK    6  A    between atoms: C_12  and  C_13
REMARK    7  A    between atoms: C_13  and  C_14
REMARK    8  A    between atoms: C_17  and  C_20
REMARK    9  A    between atoms: O_31  and  C_32
REMARK                            x       y       z     vdW  Elec       q    Type
REMARK                         _______ _______ _______ _____ _____    ______ ____
ROOT
ATOM      1  C   UNL     1      -1.247   1.198   6.605  0.00  0.00    +0.139 C 
ATOM      2  N   UNL     1      -0.238   1.783   7.141  0.00  0.00    -0.072 NA
ATOM      3  O   UNL     1      -0.617   2.466   8.322  0.00  0.00    -0.367 OA
ATOM      4  C   UNL     1      -2.026   2.242   8.484  0.00  0.00    +0.318 C 
ATOM      5  N   UNL     1      -2.397   1.409   7.329  0.00  0.00    -0.291 N 
ATOM      6  H   UNL     1      -3.282   1.071   7.119  0.00  0.00    +0.151 HD
ENDROOT
BRANCH   4   7
ATOM      7  C   UNL     1      -2.786   3.570   8.448  0.00  0.00    +0.165 C 
ATOM      8  C   UNL     1      -4.266   3.329   8.642  0.00  0.00    +0.012 C 
ATOM      9  C   UNL     1      -4.610   3.995   9.768  0.00  0.00    -0.002 A 
ATOM     10  C   UNL     1      -5.884   4.152  10.481  0.00  0.00    +0.029 A 
ATOM     11  C   UNL     1      -5.917   4.897  11.610  0.00  0.00    +0.042 A 
ATOM     12  C   UNL     1      -4.766   5.522  12.114  0.00  0.00    +0.022 A 
ATOM     13  C   UNL     1      -3.561   5.424  11.515  0.00  0.00    +0.027 A 
ATOM     14  C   UNL     1      -3.411   4.664  10.322  0.00  0.00    +0.043 A 
ATOM     15  N   UNL     1      -2.366   4.423   9.566  0.00  0.00    -0.373 N 
ATOM     16 CL   UNL     1      -7.421   5.086  12.455  0.00  0.00    -0.084 Cl
ATOM     17  H   UNL     1      -1.466   4.752   9.720  0.00  0.00    +0.160 HD
ENDBRANCH   4   7
BRANCH   1  18
ATOM     18  C   UNL     1      -1.180   0.387   5.336  0.00  0.00    +0.094 C 
BRANCH  18  19
ATOM     19  C   UNL     1       0.259   0.373   4.815  0.00  0.00    +0.115 C 
BRANCH  19  22
ATOM     20  C   UNL     1       0.135   0.183   2.389  0.00  0.00    +0.247 C 
ATOM     21  O   UNL     1      -0.016   1.388   2.330  0.00  0.00    -0.270 OA
ATOM     22  N   UNL     1       0.323  -0.415   3.582  0.00  0.00    -0.300 N 
ATOM     23  C   UNL     1       0.593  -1.854   3.646  0.00  0.00    +0.132 C 
BRANCH  20  30
ATOM     24  C   UNL     1      -2.097   0.426   0.566  0.00  0.00    +0.044 C 
ATOM     25  C   UNL     1      -0.960  -0.516   0.265  0.00  0.00    -0.035 A 
ATOM     26  C   UNL     1      -0.974  -1.267  -0.889  0.00  0.00    +0.049 A 
ATOM     27  C   UNL     1       0.074  -2.137  -1.168  0.00  0.00    +0.120 A 
ATOM     28  C   UNL     1       1.140  -2.252  -0.284  0.00  0.00    +0.046 A 
ATOM     29  C   UNL     1       1.162  -1.504   0.873  0.00  0.00    +0.017 A 
ATOM     30  C   UNL     1       0.113  -0.625   1.153  0.00  0.00    +0.040 A 
BRANCH  27  31
ATOM     31  O   UNL     1       0.056  -2.876  -2.306  0.00  0.00    -0.495 OA
ATOM     32  C   UNL     1       1.164  -3.749  -2.530  0.00  0.00    +0.277 C 
ENDBRANCH  27  31
ENDBRANCH  20  30
ENDBRANCH  19  22
ENDBRANCH  18  19
ENDBRANCH   1  18
TORSDOF 6
