REMARK  Name = ZINC01370834
REMARK  3 active torsions:
REMARK  status: ('A' for Active; 'I' for Inactive)
REMARK    1  A    between atoms: C_1  and  C_2
REMARK    2  A    between atoms: C_5  and  C_8
REMARK    3  A    between atoms: C_19  and  C_22
REMARK                            x       y       z     vdW  Elec       q    Type
REMARK                         _______ _______ _______ _____ _____    ______ ____
ROOT
ATOM      1  C   UNL     1      10.943  -0.322  -0.150  0.00  0.00    +0.247 C 
ATOM      2  O   UNL     1      11.658  -0.780  -1.019  0.00  0.00    -0.270 OA
ATOM      3  N   UNL     1       9.893   0.456  -0.481  0.00  0.00    -0.295 N 
ATOM      4  C   UNL     1       9.643   0.830  -1.881  0.00  0.00    +0.127 C 
ATOM      5  C   UNL     1       9.467   2.350  -1.954  0.00  0.00    +0.125 C 
ATOM      6  N   UNL     1       8.427   2.766  -1.005  0.00  0.00    -0.311 N 
ATOM      7  C   UNL     1       8.818   2.468   0.379  0.00  0.00    +0.125 C 
ATOM      8  C   UNL     1       8.967   0.952   0.549  0.00  0.00    +0.127 C 
ATOM      9  C   UNL     1       8.125   4.109  -1.156  0.00  0.00    +0.140 A 
ATOM     10  C   UNL     1       7.166   4.719  -0.359  0.00  0.00    +0.098 A 
ATOM     11  C   UNL     1       6.857   6.085  -0.519  0.00  0.00    +0.111 A 
ATOM     12  C   UNL     1       5.834   6.547   0.405  0.00  0.00    +0.106 A 
ATOM     13  N   UNL     1       5.306   5.704   1.255  0.00  0.00    -0.208 NA
ATOM     14  S   UNL     1       6.088   4.216   0.951  0.00  0.00    +0.017 S 
ATOM     15  N   UNL     1       7.543   6.742  -1.480  0.00  0.00    -0.233 NA
ATOM     16  C   UNL     1       8.436   6.129  -2.214  0.00  0.00    +0.224 A 
ATOM     17  N   UNL     1       8.736   4.847  -2.081  0.00  0.00    -0.220 NA
ENDROOT
BRANCH   1  22
ATOM     18  C   UNL     1      12.043  -1.469   5.381  0.00  0.00    +0.044 C 
ATOM     19  C   UNL     1      11.755  -1.168   3.933  0.00  0.00    -0.050 A 
ATOM     20  C   UNL     1      12.770  -0.717   3.108  0.00  0.00    +0.004 A 
ATOM     21  C   UNL     1      12.513  -0.440   1.781  0.00  0.00    +0.013 A 
ATOM     22  C   UNL     1      11.226  -0.617   1.271  0.00  0.00    +0.037 A 
ATOM     23  C   UNL     1      10.205  -1.068   2.110  0.00  0.00    +0.013 A 
ATOM     24  C   UNL     1      10.476  -1.345   3.434  0.00  0.00    +0.004 A 
ENDBRANCH   1  22
BRANCH  12  25
ATOM     25  C   UNL     1       5.389   7.960   0.380  0.00  0.00    +0.003 A 
ATOM     26  C   UNL     1       4.056   8.278   0.639  0.00  0.00    +0.011 A 
ATOM     27  C   UNL     1       3.646   9.595   0.608  0.00  0.00    +0.020 A 
ATOM     28  C   UNL     1       4.556  10.601   0.333  0.00  0.00    +0.041 A 
ATOM     29  C   UNL     1       5.881  10.290   0.075  0.00  0.00    +0.020 A 
ATOM     30  C   UNL     1       6.301   8.976   0.097  0.00  0.00    +0.011 A 
ATOM     31 CL   UNL     1       4.035  12.256   0.303  0.00  0.00    -0.084 Cl
ENDBRANCH  12  25
TORSDOF 2
