REMARK  Name = ZINC07682139
REMARK  9 active torsions:
REMARK  status: ('A' for Active; 'I' for Inactive)
REMARK    1  A    between atoms: C_1  and  C_2
REMARK    2  A    between atoms: C_2  and  N_48
REMARK    3  A    between atoms: C_3  and  C_4
REMARK    4  A    between atoms: C_3  and  N_48
REMARK    5  A    between atoms: N_6  and  C_7
REMARK    6  A    between atoms: C_7  and  C_8
REMARK    7  A    between atoms: C_13  and  C_14
REMARK    8  A    between atoms: C_13  and  N_48
REMARK    9  A    between atoms: N_19  and  C_20
REMARK                            x       y       z     vdW  Elec       q    Type
REMARK                         _______ _______ _______ _____ _____    ______ ____
ROOT
ATOM      1  C   UNL     1      -2.251  -4.225   0.456  0.00  0.00    +0.020 C 
ENDROOT
BRANCH   1   2
ATOM      2  C   UNL     1      -2.289  -2.725   0.309  0.00  0.00    +0.204 C 
ATOM      3  O   UNL     1      -3.354  -2.146   0.282  0.00  0.00    -0.277 OA
ATOM      4  N   UNL     1      -1.140  -2.028   0.210  0.00  0.00    -0.241 N 
ATOM      5  C   UNL     1      -1.174  -0.687   0.079  0.00  0.00    +0.310 C 
ATOM      6  O   UNL     1      -2.241  -0.107   0.051  0.00  0.00    -0.252 OA
ATOM      7  N   UNL     1      -0.025   0.009  -0.021  0.00  0.00    -0.269 N 
ATOM      8  H   UNL     1      -0.288  -2.492   0.232  0.00  0.00    +0.159 HD
ATOM      9  H   UNL     1       0.824  -0.458  -0.061  0.00  0.00    +0.156 HD
BRANCH   7  10
ATOM     10  C   UNL     1      -0.056   1.408  -0.066  0.00  0.00    +0.035 A 
ATOM     11  C   UNL     1      -1.095   2.060  -0.717  0.00  0.00    +0.023 A 
ATOM     12  C   UNL     1      -1.126   3.440  -0.755  0.00  0.00    +0.002 A 
ATOM     13  C   UNL     1      -0.118   4.172  -0.155  0.00  0.00    +0.000 A 
ATOM     14  C   UNL     1       0.921   3.526   0.489  0.00  0.00    +0.002 A 
ATOM     15  C   UNL     1       0.955   2.146   0.535  0.00  0.00    +0.023 A 
ENDBRANCH   7  10
ENDBRANCH   1   2
BRANCH   1  16
ATOM     16  N   UNL     1      -3.637  -4.729   0.565  0.00  0.00    +0.391 N 
ATOM     17  H   UNL     1      -4.125  -4.205   1.300  0.00  0.00    -0.080 HD
BRANCH  16  19
ATOM     18  C   UNL     1      -3.692  -5.360  -1.825  0.00  0.00    -0.017 C 
ATOM     19  C   UNL     1      -4.347  -4.533  -0.717  0.00  0.00    -0.081 C 
ENDBRANCH  16  19
BRANCH  16  20
ATOM     20  C   UNL     1      -3.626  -6.162   0.923  0.00  0.00    +0.019 C 
BRANCH  20  21
ATOM     21  C   UNL     1      -5.005  -6.556   1.384  0.00  0.00    +0.197 C 
ATOM     22  O   UNL     1      -5.917  -5.760   1.318  0.00  0.00    -0.278 OA
ATOM     23  N   UNL     1      -5.226  -7.794   1.869  0.00  0.00    -0.312 N 
ATOM     24  H   UNL     1      -4.496  -8.431   1.922  0.00  0.00    +0.149 HD
BRANCH  23  25
ATOM     25  C   UNL     1      -6.567  -8.177   2.318  0.00  0.00    +0.146 C 
BRANCH  25  26
ATOM     26  C   UNL     1      -6.544  -9.601   2.812  0.00  0.00    +0.007 A 
ATOM     27  C   UNL     1      -6.298 -10.067   4.060  0.00  0.00    +0.013 A 
ATOM     28  C   UNL     1      -6.335 -11.431   4.286  0.00  0.00    +0.008 A 
ATOM     29  C   UNL     1      -6.604 -12.261   3.249  0.00  0.00    +0.045 A 
ATOM     30  S   UNL     1      -6.825 -11.111   1.902  0.00  0.00    -0.100 S 
ENDBRANCH  25  26
ENDBRANCH  23  25
ENDBRANCH  20  21
ENDBRANCH  16  20
ENDBRANCH   1  16
TORSDOF 8
