REMARK  Name = ZINC40760842
REMARK  11 active torsions:
REMARK  status: ('A' for Active; 'I' for Inactive)
REMARK    1  A    between atoms: C_1  and  C_2
REMARK    2  A    between atoms: C_2  and  C_32
REMARK    3  A    between atoms: C_4  and  N_10
REMARK    4  A    between atoms: C_6  and  C_8
REMARK    5  A    between atoms: C_6  and  C_9
REMARK    6  A    between atoms: C_12  and  N_31
REMARK    7  A    between atoms: C_13  and  N_17
REMARK    8  A    between atoms: N_17  and  N_18
REMARK    9  A    between atoms: C_19  and  C_21
REMARK   10  A    between atoms: C_21  and  O_22
REMARK   11  A    between atoms: O_22  and  C_23
REMARK                            x       y       z     vdW  Elec       q    Type
REMARK                         _______ _______ _______ _____ _____    ______ ____
ROOT
ATOM      1  N   UNL     1       2.615  -0.819  -2.626  0.00  0.00    -0.325 N 
ATOM      2  C   UNL     1       3.806  -0.319  -3.139  0.00  0.00    +0.145 A 
ATOM      3  C   UNL     1       4.315  -0.799  -4.347  0.00  0.00    +0.107 A 
ATOM      4  C   UNL     1       5.514  -0.263  -4.818  0.00  0.00    +0.161 A 
ATOM      5  N   UNL     1       6.123   0.680  -4.102  0.00  0.00    -0.217 NA
ATOM      6  C   UNL     1       5.609   1.105  -2.966  0.00  0.00    +0.225 A 
ATOM      7  N   UNL     1       4.477   0.629  -2.489  0.00  0.00    -0.219 NA
ATOM      8  H   UNL     1       2.133  -1.510  -3.106  0.00  0.00    +0.148 HD
ENDROOT
BRANCH   1  12
ATOM      9  C   UNL     1      -0.019   1.528   0.010  0.00  0.00    -0.010 C 
ATOM     10  C   UNL     1       0.002  -0.004   0.002  0.00  0.00    -0.072 C 
ATOM     11  C   UNL     1       0.573  -0.505  -1.321  0.00  0.00    +0.009 C 
ATOM     12  C   UNL     1       2.088  -0.301  -1.357  0.00  0.00    +0.069 C 
ATOM     13  C   UNL     1       2.703  -1.086  -0.198  0.00  0.00    +0.009 C 
ATOM     14  C   UNL     1       2.147  -0.590   1.133  0.00  0.00    -0.072 C 
ATOM     15  N   UNL     1       0.697  -0.529   1.164  0.00  0.00    +0.386 N 
ATOM     16  C   UNL     1       2.769   0.766   1.481  0.00  0.00    -0.010 C 
ATOM     17  C   UNL     1       2.600  -1.589   2.223  0.00  0.00    -0.010 C 
ATOM     18  C   UNL     1      -1.468  -0.478   0.079  0.00  0.00    -0.010 C 
ATOM     19  H   UNL     1       0.416   0.021   1.982  0.00  0.00    -0.084 HD
ATOM     20  H   UNL     1       0.341  -1.472   1.351  0.00  0.00    -0.084 HD
ENDBRANCH   1  12
BRANCH   3  21
ATOM     21  N   UNL     1       3.638  -1.796  -5.069  0.00  0.00    -0.353 N 
ATOM     22  H   UNL     1       2.805  -2.160  -4.730  0.00  0.00    +0.143 HD
ATOM     23  H   UNL     1       4.003  -2.120  -5.908  0.00  0.00    +0.143 HD
ENDBRANCH   3  21
BRANCH   4  24
ATOM     24  N   UNL     1       6.064  -0.706  -6.015  0.00  0.00    -0.247 N 
ATOM     25  H   UNL     1       5.614  -1.393  -6.530  0.00  0.00    +0.172 HD
BRANCH  24  26
ATOM     26  N   UNL     1       7.269  -0.160  -6.477  0.00  0.00    -0.232 N 
ATOM     27  C   UNL     1       7.802  -0.589  -7.638  0.00  0.00    +0.267 C 
ATOM     28  O   UNL     1       7.239  -1.449  -8.282  0.00  0.00    -0.271 OA
ATOM     29  H   UNL     1       7.719   0.528  -5.961  0.00  0.00    +0.173 HD
BRANCH  27  30
ATOM     30  C   UNL     1       9.098  -0.002  -8.135  0.00  0.00    +0.326 C 
BRANCH  30  31
ATOM     31  O   UNL     1       9.454  -0.615  -9.375  0.00  0.00    -0.481 OA
BRANCH  31  32
ATOM     32  C   UNL     1      10.606  -0.196  -9.963  0.00  0.00    +0.140 A 
ATOM     33  C   UNL     1      11.379   0.782  -9.355  0.00  0.00    +0.048 A 
ATOM     34  C   UNL     1      12.549   1.208  -9.954  0.00  0.00    +0.023 A 
ATOM     35  C   UNL     1      12.950   0.659 -11.159  0.00  0.00    +0.043 A 
ATOM     36  C   UNL     1      12.181  -0.316 -11.768  0.00  0.00    +0.043 A 
ATOM     37  C   UNL     1      11.012  -0.749 -11.169  0.00  0.00    +0.084 A 
ATOM     38 CL   UNL     1      10.050  -1.978 -11.929  0.00  0.00    -0.080 Cl
ATOM     39 CL   UNL     1      14.421   1.196 -11.909  0.00  0.00    -0.083 Cl
ENDBRANCH  31  32
ENDBRANCH  30  31
ENDBRANCH  27  30
ENDBRANCH  24  26
ENDBRANCH   4  24
TORSDOF 7
