REMARK  Name = ZINC09208246
REMARK  13 active torsions:
REMARK  status: ('A' for Active; 'I' for Inactive)
REMARK    1  A    between atoms: C_1  and  C_2
REMARK    2  A    between atoms: C_2  and  C_3
REMARK    3  A    between atoms: C_3  and  C_5
REMARK    4  A    between atoms: C_3  and  O_6
REMARK    5  A    between atoms: O_6  and  C_7
REMARK    6  A    between atoms: C_10  and  N_13
REMARK    7  A    between atoms: C_14  and  C_16
REMARK    8  A    between atoms: C_21  and  O_22
REMARK    9  A    between atoms: O_22  and  C_23
REMARK   10  A    between atoms: C_23  and  C_24
REMARK   11  A    between atoms: C_24  and  C_25
REMARK   12  A    between atoms: C_25  and  C_26
REMARK   13  A    between atoms: C_25  and  C_27
REMARK                            x       y       z     vdW  Elec       q    Type
REMARK                         _______ _______ _______ _____ _____    ______ ____
ROOT
ATOM      1  N   UNL     1       4.429   3.874   0.063  0.00  0.00    -0.281 N 
ATOM      2  C   UNL     1       5.531   3.107  -0.057  0.00  0.00    +0.252 C 
ATOM      3  O   UNL     1       5.430   1.895  -0.065  0.00  0.00    -0.270 OA
ATOM      4  H   UNL     1       4.514   4.838   0.131  0.00  0.00    +0.155 HD
ENDROOT
BRANCH   2   5
ATOM      5  C   UNL     1       6.859   3.738  -0.180  0.00  0.00    +0.080 A 
ATOM      6  C   UNL     1       6.978   5.130  -0.177  0.00  0.00    +0.032 A 
ATOM      7  C   UNL     1       8.223   5.713  -0.286  0.00  0.00    +0.019 A 
ATOM      8  C   UNL     1       9.356   4.923  -0.410  0.00  0.00    +0.019 A 
ATOM      9  C   UNL     1       9.251   3.547  -0.420  0.00  0.00    +0.047 A 
ATOM     10  C   UNL     1       8.007   2.944  -0.305  0.00  0.00    +0.133 A 
ATOM     11 BR   UNL     1       8.384   7.597  -0.276  0.00  0.00    -0.050 Br
BRANCH  10  12
ATOM     12  O   UNL     1       7.902   1.591  -0.315  0.00  0.00    -0.491 OA
BRANCH  12  13
ATOM     13  C   UNL     1       9.115   0.848  -0.446  0.00  0.00    +0.229 C 
BRANCH  13  14
ATOM     14  C   UNL     1       8.799  -0.649  -0.437  0.00  0.00    +0.044 C 
BRANCH  14  15
ATOM     15  C   UNL     1      10.098  -1.446  -0.578  0.00  0.00    -0.014 C 
ATOM     16  C   UNL     1       9.798  -2.940  -0.444  0.00  0.00    +0.007 C 
ATOM     17  C   UNL     1      10.719  -1.171  -1.949  0.00  0.00    +0.007 C 
ENDBRANCH  14  15
ENDBRANCH  13  14
ENDBRANCH  12  13
ENDBRANCH  10  12
ENDBRANCH   2   5
BRANCH   1  21
ATOM     18  C   UNL     1       0.656   2.103   0.144  0.00  0.00    +0.121 A 
ATOM     19  C   UNL     1       1.735   1.462   0.735  0.00  0.00    +0.047 A 
ATOM     20  C   UNL     1       2.986   2.046   0.704  0.00  0.00    +0.027 A 
ATOM     21  C   UNL     1       3.162   3.279   0.091  0.00  0.00    +0.034 A 
ATOM     22  C   UNL     1       2.079   3.923  -0.495  0.00  0.00    +0.027 A 
ATOM     23  C   UNL     1       0.830   3.336  -0.468  0.00  0.00    +0.047 A 
BRANCH  18  24
ATOM     24  O   UNL     1      -0.575   1.525   0.170  0.00  0.00    -0.489 OA
BRANCH  24  25
ATOM     25  C   UNL     1      -0.703   0.304   0.900  0.00  0.00    +0.170 C 
ATOM     26  C   UNL     1      -0.926   0.616   2.381  0.00  0.00    +0.052 C 
BRANCH  25  28
ATOM     27  C   UNL     1      -1.615  -0.910  -1.084  0.00  0.00    +0.007 C 
ATOM     28  C   UNL     1      -1.894  -0.491   0.361  0.00  0.00    +0.041 C 
ENDBRANCH  25  28
ENDBRANCH  24  25
ENDBRANCH  18  24
ENDBRANCH   1  21
TORSDOF 9
