REMARK  Name = ZINC19539190
REMARK  8 active torsions:
REMARK  status: ('A' for Active; 'I' for Inactive)
REMARK    1  A    between atoms: C_1  and  N_2
REMARK    2  A    between atoms: C_6  and  C_8
REMARK    3  A    between atoms: C_8  and  N_9
REMARK    4  A    between atoms: N_12  and  C_15
REMARK    5  A    between atoms: C_15  and  C_16
REMARK    6  A    between atoms: N_18  and  C_19
REMARK    7  A    between atoms: C_22  and  O_25
REMARK    8  A    between atoms: O_25  and  C_26
REMARK                            x       y       z     vdW  Elec       q    Type
REMARK                         _______ _______ _______ _____ _____    ______ ____
ROOT
ATOM      1  N   UNL     1       5.671   3.514  -1.559  0.00  0.00    -0.298 NA
ATOM      2  C   UNL     1       5.753   3.025  -0.176  0.00  0.00    +0.066 C 
ATOM      3  C   UNL     1       4.784   1.855   0.006  0.00  0.00    -0.063 C 
ATOM      4  N   UNL     1       3.420   2.298  -0.312  0.00  0.00    +0.387 N 
ATOM      5  C   UNL     1       3.337   2.787  -1.696  0.00  0.00    -0.063 C 
ATOM      6  C   UNL     1       4.307   3.958  -1.878  0.00  0.00    +0.066 C 
ATOM      7  H   UNL     1       3.168   3.132   0.359  0.00  0.00    -0.081 HD
ENDROOT
BRANCH   1   8
ATOM      8  C   UNL     1       6.643   4.591  -1.796  0.00  0.00    +0.180 C 
BRANCH   8  14
ATOM      9  C   UNL     1       8.478   7.390  -6.930  0.00  0.00    +0.129 C 
ATOM     10  N   UNL     1       8.418   7.092  -5.497  0.00  0.00    -0.302 N 
ATOM     11  C   UNL     1       7.589   6.132  -5.043  0.00  0.00    +0.306 C 
ATOM     12  O   UNL     1       6.890   5.513  -5.822  0.00  0.00    -0.252 OA
ATOM     13  N   UNL     1       7.534   5.857  -3.724  0.00  0.00    -0.239 N 
ATOM     14  C   UNL     1       6.704   4.897  -3.270  0.00  0.00    +0.234 C 
ATOM     15  O   UNL     1       6.008   4.281  -4.047  0.00  0.00    -0.274 OA
ATOM     16  H   UNL     1       9.051   7.652  -4.792  0.00  0.00    +0.150 HD
ATOM     17  H   UNL     1       8.166   6.417  -3.019  0.00  0.00    +0.159 HD
ENDBRANCH   8  14
ENDBRANCH   1   8
BRANCH   4  18
ATOM     18  C   UNL     1       2.448   1.222  -0.076  0.00  0.00    +0.019 C 
BRANCH  18  19
ATOM     19  C   UNL     1       1.050   1.777  -0.175  0.00  0.00    +0.201 C 
ATOM     20  O   UNL     1       0.880   2.953  -0.417  0.00  0.00    -0.278 OA
ATOM     21  N   UNL     1      -0.011   0.966   0.007  0.00  0.00    -0.287 N 
ATOM     22  H   UNL     1       0.140  -0.115   0.144  0.00  0.00    +0.155 HD
BRANCH  21  23
ATOM     23  C   UNL     1      -1.306   1.500   0.022  0.00  0.00    +0.034 A 
ATOM     24  C   UNL     1      -1.528   2.770   0.536  0.00  0.00    +0.027 A 
ATOM     25  C   UNL     1      -2.804   3.298   0.546  0.00  0.00    +0.048 A 
ATOM     26  C   UNL     1      -3.866   2.555   0.052  0.00  0.00    +0.130 A 
ATOM     27  C   UNL     1      -3.646   1.283  -0.457  0.00  0.00    +0.048 A 
ATOM     28  C   UNL     1      -2.370   0.756  -0.472  0.00  0.00    +0.027 A 
BRANCH  26  29
ATOM     29  O   UNL     1      -5.123   3.073   0.068  0.00  0.00    -0.406 OA
BRANCH  29  30
ATOM     30  C   UNL     1      -5.277   4.387   0.607  0.00  0.00    +0.575 C 
ATOM     31  F   UNL     1      -4.508   5.289  -0.137  0.00  0.00    -0.133 F 
ATOM     32  F   UNL     1      -6.623   4.762   0.545  0.00  0.00    -0.133 F 
ATOM     33  F   UNL     1      -4.850   4.398   1.939  0.00  0.00    -0.133 F 
ENDBRANCH  29  30
ENDBRANCH  26  29
ENDBRANCH  21  23
ENDBRANCH  18  19
ENDBRANCH   4  18
TORSDOF 7
