REMARK  Name = ZINC39500264
REMARK  10 active torsions:
REMARK  status: ('A' for Active; 'I' for Inactive)
REMARK    1  A    between atoms: C_1  and  C_2
REMARK    2  A    between atoms: C_4  and  C_9
REMARK    3  A    between atoms: C_5  and  C_8
REMARK    4  A    between atoms: C_9  and  N_10
REMARK    5  A    between atoms: N_10  and  C_11
REMARK    6  A    between atoms: C_11  and  C_12
REMARK    7  A    between atoms: N_14  and  C_24
REMARK    8  A    between atoms: C_16  and  C_17
REMARK    9  A    between atoms: C_27  and  O_30
REMARK   10  A    between atoms: O_30  and  C_31
REMARK                            x       y       z     vdW  Elec       q    Type
REMARK                         _______ _______ _______ _____ _____    ______ ____
ROOT
ATOM      1  C   UNL     1      -5.149   2.289  -1.238  0.00  0.00    -0.019 A 
ATOM      2  C   UNL     1      -6.264   2.308  -0.477  0.00  0.00    +0.116 A 
ATOM      3  N   UNL     1      -6.648   3.603  -0.331  0.00  0.00    -0.239 N 
ATOM      4  N   UNL     1      -5.736   4.406  -1.028  0.00  0.00    -0.166 NA
ATOM      5  C   UNL     1      -4.829   3.620  -1.570  0.00  0.00    +0.095 A 
ENDROOT
BRANCH   5   6
ATOM      6  C   UNL     1      -3.673   4.061  -2.390  0.00  0.00    +0.005 A 
ATOM      7  C   UNL     1      -3.341   3.373  -3.556  0.00  0.00    +0.010 A 
ATOM      8  C   UNL     1      -2.265   3.786  -4.316  0.00  0.00    +0.003 A 
ATOM      9  C   UNL     1      -1.516   4.880  -3.923  0.00  0.00    +0.038 A 
ATOM     10  C   UNL     1      -1.840   5.567  -2.764  0.00  0.00    +0.124 A 
ATOM     11  C   UNL     1      -2.919   5.165  -1.999  0.00  0.00    +0.048 A 
ATOM     12  F   UNL     1      -1.104   6.634  -2.385  0.00  0.00    -0.205 F 
ENDBRANCH   5   6
BRANCH   3  13
ATOM     13  C   UNL     1      -7.763   4.056   0.389  0.00  0.00    +0.066 A 
ATOM     14  C   UNL     1      -8.585   3.147   1.040  0.00  0.00    +0.031 A 
ATOM     15  C   UNL     1      -9.682   3.594   1.750  0.00  0.00    +0.048 A 
ATOM     16  C   UNL     1      -9.963   4.951   1.812  0.00  0.00    +0.120 A 
ATOM     17  C   UNL     1      -9.141   5.860   1.161  0.00  0.00    +0.048 A 
ATOM     18  C   UNL     1      -8.040   5.415   0.456  0.00  0.00    +0.031 A 
BRANCH  16  19
ATOM     19  O   UNL     1     -11.043   5.391   2.510  0.00  0.00    -0.495 OA
ATOM     20  C   UNL     1     -11.272   6.801   2.531  0.00  0.00    +0.277 C 
ENDBRANCH  16  19
ENDBRANCH   3  13
BRANCH   1  21
ATOM     21  C   UNL     1      -4.379   1.062  -1.653  0.00  0.00    -0.043 C 
BRANCH  21  22
ATOM     22  N   UNL     1      -3.169   0.941  -0.829  0.00  0.00    +0.384 N 
ATOM     23  H   UNL     1      -3.429   0.889   0.144  0.00  0.00    -0.085 HD
ATOM     24  H   UNL     1      -2.579   1.746  -0.977  0.00  0.00    -0.085 HD
BRANCH  22  25
ATOM     25  C   UNL     1      -2.439  -0.277  -1.207  0.00  0.00    -0.047 C 
BRANCH  25  28
ATOM     26  C   UNL     1       0.061   1.756  -0.585  0.00  0.00    +0.039 C 
ATOM     27  C   UNL     1       0.163   0.230  -0.598  0.00  0.00    +0.151 C 
ATOM     28  C   UNL     1      -1.198  -0.401  -0.361  0.00  0.00    -0.038 C 
ATOM     29  C   UNL     1      -1.040  -1.092   0.770  0.00  0.00    +0.060 C 
ATOM     30  N   UNL     1       0.221  -0.961   1.240  0.00  0.00    -0.159 NA
ATOM     31  N   UNL     1       0.958  -0.249   0.545  0.00  0.00    -0.180 NA
ATOM     32  C   UNL     1      -2.120  -1.906   1.434  0.00  0.00    +0.067 C 
ENDBRANCH  25  28
ENDBRANCH  22  25
ENDBRANCH  21  22
ENDBRANCH   1  21
TORSDOF 7
