REMARK  Name = ZINC01811321
REMARK  9 active torsions:
REMARK  status: ('A' for Active; 'I' for Inactive)
REMARK    1  A    between atoms: C_6  and  C_31
REMARK    2  A    between atoms: C_7  and  N_9
REMARK    3  A    between atoms: C_10  and  C_12
REMARK    4  A    between atoms: C_12  and  C_13
REMARK    5  A    between atoms: C_13  and  C_14
REMARK    6  A    between atoms: C_14  and  C_15
REMARK    7  A    between atoms: C_15  and  C_16
REMARK    8  A    between atoms: N_18  and  C_19
REMARK    9  A    between atoms: C_20  and  C_28
REMARK                            x       y       z     vdW  Elec       q    Type
REMARK                         _______ _______ _______ _____ _____    ______ ____
ROOT
ATOM      1  C   UNL     1       4.167  -4.520   6.155  0.00  0.00    +0.010 C 
ENDROOT
BRANCH   1   2
ATOM      2  C   UNL     1       3.068  -4.688   5.103  0.00  0.00    +0.096 C 
BRANCH   2   4
ATOM      3  N   UNL     1       1.957  -3.299   3.384  0.00  0.00    -0.279 N 
ATOM      4  C   UNL     1       2.879  -3.389   4.363  0.00  0.00    +0.218 C 
ATOM      5  O   UNL     1       3.556  -2.424   4.649  0.00  0.00    -0.275 OA
ATOM      6  H   UNL     1       1.416  -4.071   3.155  0.00  0.00    +0.155 HD
BRANCH   3  13
ATOM      7  C   UNL     1      -0.019   1.526   0.010  0.00  0.00    +0.005 C 
ATOM      8  C   UNL     1       1.414   2.067  -0.000  0.00  0.00    +0.005 C 
ATOM      9  C   UNL     1       2.067   1.772   1.358  0.00  0.00    +0.043 C 
ATOM     10  C   UNL     1       1.810   0.337   1.702  0.00  0.00    -0.004 A 
ATOM     11  C   UNL     1       0.907  -0.486   1.127  0.00  0.00    -0.023 A 
ATOM     12  C   UNL     1       0.892  -1.830   1.677  0.00  0.00    +0.068 A 
ATOM     13  C   UNL     1       1.783  -2.104   2.703  0.00  0.00    +0.084 A 
ATOM     14  S   UNL     1       2.603  -0.656   2.932  0.00  0.00    -0.077 S 
ATOM     15  C   UNL     1       0.002  -0.004   0.002  0.00  0.00    +0.037 C 
BRANCH  12  16
ATOM     16  C   UNL     1      -0.026  -2.853   1.169  0.00  0.00    +0.244 C 
ATOM     17  O   UNL     1       0.315  -3.576   0.251  0.00  0.00    -0.270 OA
ATOM     18  N   UNL     1      -1.249  -2.994   1.719  0.00  0.00    -0.325 N 
ATOM     19  H   UNL     1      -1.520  -2.418   2.451  0.00  0.00    +0.145 HD
ATOM     20  H   UNL     1      -1.857  -3.671   1.383  0.00  0.00    +0.145 HD
ENDBRANCH  12  16
ENDBRANCH   3  13
ENDBRANCH   2   4
ENDBRANCH   1   2
BRANCH   1  21
ATOM     21  C   UNL     1       4.359  -5.839   6.907  0.00  0.00    +0.010 C 
BRANCH  21  22
ATOM     22  C   UNL     1       5.457  -5.671   7.958  0.00  0.00    +0.096 C 
BRANCH  22  23
ATOM     23  C   UNL     1       5.646  -6.970   8.699  0.00  0.00    +0.218 C 
ATOM     24  O   UNL     1       4.969  -7.935   8.413  0.00  0.00    -0.275 OA
ATOM     25  N   UNL     1       6.568  -7.060   9.678  0.00  0.00    -0.279 N 
ATOM     26  H   UNL     1       7.109  -6.288   9.906  0.00  0.00    +0.155 HD
BRANCH  25  27
ATOM     27  C   UNL     1       6.742  -8.255  10.359  0.00  0.00    +0.084 A 
ATOM     28  C   UNL     1       7.629  -8.527  11.389  0.00  0.00    +0.068 A 
ATOM     29  C   UNL     1       7.615  -9.872  11.939  0.00  0.00    -0.023 A 
ATOM     30  C   UNL     1       6.717 -10.697  11.359  0.00  0.00    -0.004 A 
ATOM     31  S   UNL     1       5.921  -9.702  10.131  0.00  0.00    -0.077 S 
ATOM     32  C   UNL     1       6.464 -12.133  11.699  0.00  0.00    +0.043 C 
ATOM     33  C   UNL     1       7.636 -12.641  12.550  0.00  0.00    +0.005 C 
ATOM     34  C   UNL     1       7.915 -11.627  13.664  0.00  0.00    +0.005 C 
ATOM     35  C   UNL     1       8.514 -10.351  13.069  0.00  0.00    +0.037 C 
BRANCH  28  36
ATOM     36  C   UNL     1       8.544  -7.502  11.900  0.00  0.00    +0.244 C 
ATOM     37  O   UNL     1       8.197  -6.781  12.817  0.00  0.00    -0.270 OA
ATOM     38  N   UNL     1       9.768  -7.359  11.356  0.00  0.00    -0.325 N 
ATOM     39  H   UNL     1      10.044  -7.934  10.625  0.00  0.00    +0.145 HD
ATOM     40  H   UNL     1      10.373  -6.681  11.694  0.00  0.00    +0.145 HD
ENDBRANCH  28  36
ENDBRANCH  25  27
ENDBRANCH  22  23
ENDBRANCH  21  22
ENDBRANCH   1  21
TORSDOF 9
