REMARK  Name = ZINC16661525
REMARK  7 active torsions:
REMARK  status: ('A' for Active; 'I' for Inactive)
REMARK    1  A    between atoms: C_1  and  C_2
REMARK    2  A    between atoms: C_5  and  N_9
REMARK    3  A    between atoms: N_9  and  S_10
REMARK    4  A    between atoms: S_10  and  C_13
REMARK    5  A    between atoms: C_16  and  N_20
REMARK    6  A    between atoms: C_18  and  C_19
REMARK    7  A    between atoms: C_23  and  C_29
REMARK                            x       y       z     vdW  Elec       q    Type
REMARK                         _______ _______ _______ _____ _____    ______ ____
ROOT
ATOM      1  C   UNL     1       2.440   0.154  -2.428  0.00  0.00    +0.111 A 
ATOM      2  C   UNL     1       3.448  -0.112  -3.337  0.00  0.00    +0.031 A 
ATOM      3  C   UNL     1       3.305   0.266  -4.658  0.00  0.00    +0.027 A 
ATOM      4  C   UNL     1       2.148   0.913  -5.073  0.00  0.00    +0.060 A 
ATOM      5  C   UNL     1       1.138   1.177  -4.158  0.00  0.00    +0.030 A 
ATOM      6  C   UNL     1       1.285   0.793  -2.839  0.00  0.00    -0.022 A 
ATOM      7  C   UNL     1       0.187   1.075  -1.846  0.00  0.00    +0.046 C 
ENDROOT
BRANCH   4   8
ATOM      8  N   UNL     1       2.001   1.296  -6.410  0.00  0.00    -0.144 N 
ATOM      9  C   UNL     1       1.219   2.287  -6.866  0.00  0.00    +0.243 C 
ATOM     10  O   UNL     1       0.576   2.971  -6.099  0.00  0.00    -0.273 OA
ATOM     11  C   UNL     1       1.163   2.531  -8.344  0.00  0.00    +0.097 C 
ATOM     12  C   UNL     1       2.398   1.865  -9.006  0.00  0.00    +0.201 C 
ATOM     13  S   UNL     1       2.763   0.595  -7.726  0.00  0.00    +0.053 S 
ATOM     14  O   UNL     1       4.147   0.581  -7.406  0.00  0.00    -0.155 OA
ATOM     15  O   UNL     1       2.052  -0.607  -7.987  0.00  0.00    -0.155 OA
ATOM     16  C   UNL     1      -0.119   1.918  -8.912  0.00  0.00    +0.019 C 
ENDBRANCH   4   8
BRANCH   1  17
ATOM     17  S   UNL     1       2.626  -0.330  -0.744  0.00  0.00    +0.073 S 
ATOM     18  O   UNL     1       2.295   0.806   0.044  0.00  0.00    -0.150 OA
ATOM     19  O   UNL     1       3.883  -0.984  -0.645  0.00  0.00    -0.150 OA
BRANCH  17  20
ATOM     20  N   UNL     1       1.470  -1.474  -0.433  0.00  0.00    -0.215 N 
ATOM     21  H   UNL     1       0.802  -1.316   0.253  0.00  0.00    +0.174 HD
BRANCH  20  26
ATOM     22  C   UNL     1       1.418  -6.322  -3.377  0.00  0.00    +0.044 C 
ATOM     23  C   UNL     1       1.432  -5.034  -2.594  0.00  0.00    -0.049 A 
ATOM     24  C   UNL     1       2.636  -4.436  -2.270  0.00  0.00    +0.005 A 
ATOM     25  C   UNL     1       2.652  -3.259  -1.548  0.00  0.00    +0.026 A 
ATOM     26  C   UNL     1       1.457  -2.669  -1.157  0.00  0.00    +0.062 A 
ATOM     27  C   UNL     1       0.249  -3.269  -1.489  0.00  0.00    +0.040 A 
ATOM     28  C   UNL     1       0.240  -4.450  -2.207  0.00  0.00    +0.020 A 
ATOM     29 BR   UNL     1      -1.382  -2.471  -0.960  0.00  0.00    -0.048 Br
ENDBRANCH  20  26
ENDBRANCH  17  20
ENDBRANCH   1  17
TORSDOF 4
