REMARK  Name = ZINC14961672
REMARK  8 active torsions:
REMARK  status: ('A' for Active; 'I' for Inactive)
REMARK    1  A    between atoms: C_1  and  C_2
REMARK    2  A    between atoms: C_5  and  C_12
REMARK    3  A    between atoms: C_14  and  O_18
REMARK    4  A    between atoms: O_18  and  C_19
REMARK    5  A    between atoms: C_19  and  C_20
REMARK    6  A    between atoms: C_20  and  C_22
REMARK    7  A    between atoms: C_20  and  N_49
REMARK    8  A    between atoms: C_22  and  C_23
REMARK                            x       y       z     vdW  Elec       q    Type
REMARK                         _______ _______ _______ _____ _____    ______ ____
ROOT
ATOM      1  C   UNL     1      -5.659   1.993   0.025  0.00  0.00    +0.004 A 
ATOM      2  C   UNL     1      -6.943   2.325   0.465  0.00  0.00    +0.057 A 
ATOM      3  C   UNL     1      -7.993   2.227  -0.438  0.00  0.00    +0.139 A 
ATOM      4  C   UNL     1      -7.735   1.795  -1.732  0.00  0.00    +0.156 A 
ATOM      5  N   UNL     1      -6.511   1.485  -2.112  0.00  0.00    -0.259 NA
ATOM      6  C   UNL     1      -5.485   1.569  -1.290  0.00  0.00    +0.119 A 
ENDROOT
BRANCH   1  11
ATOM      7  C   UNL     1      -0.013   1.086   0.008  0.00  0.00    +0.068 C 
ATOM      8  C   UNL     1      -0.718   1.572   1.248  0.00  0.00    +0.067 A 
ATOM      9  C   UNL     1      -2.147   1.844   1.374  0.00  0.00    +0.023 A 
ATOM     10  C   UNL     1      -3.233   1.749   0.499  0.00  0.00    +0.020 A 
ATOM     11  C   UNL     1      -4.500   2.086   0.947  0.00  0.00    -0.016 A 
ATOM     12  C   UNL     1      -4.690   2.514   2.267  0.00  0.00    +0.010 A 
ATOM     13  C   UNL     1      -3.637   2.605   3.128  0.00  0.00    +0.028 A 
ATOM     14  C   UNL     1      -2.353   2.271   2.701  0.00  0.00    +0.066 A 
ATOM     15  N   UNL     1      -1.126   2.260   3.313  0.00  0.00    -0.277 N 
ATOM     16  H   UNL     1      -0.950   2.518   4.263  0.00  0.00    +0.189 HD
ATOM     17  N   UNL     1      -0.161   1.829   2.397  0.00  0.00    -0.178 NA
ENDBRANCH   1  11
BRANCH   3  18
ATOM     18  O   UNL     1      -9.259   2.543  -0.059  0.00  0.00    -0.492 OA
BRANCH  18  19
ATOM     19  C   UNL     1     -10.285   2.410  -1.045  0.00  0.00    +0.213 C 
BRANCH  19  20
ATOM     20  C   UNL     1     -11.631   2.809  -0.437  0.00  0.00    -0.033 C 
BRANCH  20  23
ATOM     21  H   UNL     1     -10.924   4.423   0.626  0.00  0.00    -0.089 HD
ATOM     22  H   UNL     1     -11.442   4.804  -0.907  0.00  0.00    -0.089 HD
ATOM     23  N   UNL     1     -11.633   4.239  -0.082  0.00  0.00    +0.382 N 
ATOM     24  H   UNL     1     -12.554   4.493   0.292  0.00  0.00    -0.089 HD
ENDBRANCH  20  23
BRANCH  20  25
ATOM     25  C   UNL     1     -12.746   2.548  -1.452  0.00  0.00    +0.022 C 
BRANCH  25  26
ATOM     26  C   UNL     1     -14.082   2.824  -0.813  0.00  0.00    -0.047 A 
ATOM     27  C   UNL     1     -14.633   4.090  -0.881  0.00  0.00    +0.005 A 
ATOM     28  C   UNL     1     -15.858   4.345  -0.295  0.00  0.00    +0.022 A 
ATOM     29  C   UNL     1     -16.535   3.332   0.360  0.00  0.00    +0.059 A 
ATOM     30  C   UNL     1     -15.985   2.063   0.428  0.00  0.00    +0.060 A 
ATOM     31  C   UNL     1     -14.760   1.809  -0.164  0.00  0.00    +0.025 A 
ATOM     32 CL   UNL     1     -16.833   0.791   1.249  0.00  0.00    -0.082 Cl
ATOM     33 CL   UNL     1     -18.075   3.651   1.095  0.00  0.00    -0.082 Cl
ENDBRANCH  25  26
ENDBRANCH  20  25
ENDBRANCH  19  20
ENDBRANCH  18  19
ENDBRANCH   3  18
TORSDOF 7
