REMARK  Name = ZINC08605204
REMARK  5 active torsions:
REMARK  status: ('A' for Active; 'I' for Inactive)
REMARK    1  A    between atoms: C_1  and  C_2
REMARK    2  A    between atoms: C_7  and  N_8
REMARK    3  A    between atoms: C_14  and  C_16
REMARK    4  A    between atoms: C_16  and  N_17
REMARK    5  A    between atoms: C_25  and  C_27
REMARK                            x       y       z     vdW  Elec       q    Type
REMARK                         _______ _______ _______ _____ _____    ______ ____
ROOT
ATOM      1  N   UNL     1       0.026  -0.016   2.415  0.00  0.00    -0.327 N 
ATOM      2  C   UNL     1      -1.238   0.332   3.081  0.00  0.00    +0.124 C 
ATOM      3  C   UNL     1      -1.211  -0.231   4.507  0.00  0.00    +0.126 C 
ATOM      4  N   UNL     1       0.055   0.160   5.143  0.00  0.00    -0.297 N 
ATOM      5  C   UNL     1       1.319  -0.187   4.477  0.00  0.00    +0.126 C 
ATOM      6  C   UNL     1       1.292   0.371   3.053  0.00  0.00    +0.124 C 
ATOM      7  C   UNL     1       0.058   0.826   6.315  0.00  0.00    +0.237 C 
ATOM      8  O   UNL     1      -0.991   1.107   6.854  0.00  0.00    -0.274 OA
ENDROOT
BRANCH   1  15
ATOM      9  C   UNL     1      -0.018   1.503   0.010  0.00  0.00    +0.045 C 
ATOM     10  C   UNL     1       0.002  -0.004   0.002  0.00  0.00    -0.029 A 
ATOM     11  C   UNL     1       0.006  -0.689  -1.198  0.00  0.00    +0.006 A 
ATOM     12  C   UNL     1       0.024  -2.071  -1.207  0.00  0.00    +0.020 A 
ATOM     13  C   UNL     1       0.040  -2.774  -0.014  0.00  0.00    +0.043 A 
ATOM     14  C   UNL     1       0.035  -2.095   1.189  0.00  0.00    +0.043 A 
ATOM     15  C   UNL     1       0.023  -0.706   1.201  0.00  0.00    +0.034 A 
ATOM     16 CL   UNL     1       0.063  -4.509  -0.031  0.00  0.00    -0.083 Cl
ENDBRANCH   1  15
BRANCH   7  17
ATOM     17  C   UNL     1       1.364   1.220   6.954  0.00  0.00    +0.243 C 
BRANCH  17  18
ATOM     18  N   UNL     1       1.099   1.927   8.210  0.00  0.00    -0.217 N 
ATOM     19  C   UNL     1       1.007   1.235   9.368  0.00  0.00    +0.292 A 
ATOM     20  O   UNL     1       1.141   0.024   9.388  0.00  0.00    -0.264 OA
ATOM     21  C   UNL     1       0.741   1.986  10.598  0.00  0.00    +0.116 A 
ATOM     22  C   UNL     1       0.590   1.611  11.911  0.00  0.00    +0.048 A 
ATOM     23  C   UNL     1       0.352   2.764  12.645  0.00  0.00    +0.038 A 
ATOM     24  C   UNL     1       0.353   3.870  11.786  0.00  0.00    +0.063 A 
ATOM     25  N   UNL     1       0.597   3.361  10.514  0.00  0.00    -0.291 N 
ATOM     26  C   UNL     1       0.707   3.984   9.287  0.00  0.00    +0.132 A 
ATOM     27  N   UNL     1       0.948   3.317   8.210  0.00  0.00    -0.154 NA
ATOM     28  C   UNL     1       0.549   5.481   9.205  0.00  0.00    +0.088 C 
ATOM     29  C   UNL     1       0.123   5.114  12.393  0.00  0.00    +0.034 A 
ATOM     30  C   UNL     1      -0.081   5.189  13.724  0.00  0.00    +0.048 A 
ATOM     31  S   UNL     1       0.037   3.484  14.236  0.00  0.00    -0.095 S 
ENDBRANCH  17  18
ENDBRANCH   7  17
TORSDOF 3
