REMARK  Name = ZINC44419730
REMARK  4 active torsions:
REMARK  status: ('A' for Active; 'I' for Inactive)
REMARK    1  A    between atoms: C_3  and  S_9
REMARK    2  A    between atoms: C_4  and  N_8
REMARK    3  A    between atoms: S_9  and  C_10
REMARK    4  A    between atoms: C_10  and  C_11
REMARK                            x       y       z     vdW  Elec       q    Type
REMARK                         _______ _______ _______ _____ _____    ______ ____
ROOT
ATOM      1  S   UNL     1       3.894   2.322  -0.023  0.00  0.00    -0.114 S 
ENDROOT
BRANCH   1   4
ATOM      2  C   UNL     1      -0.017   1.379   0.010  0.00  0.00    +0.016 A 
ATOM      3  C   UNL     1       1.169   2.090   0.002  0.00  0.00    +0.017 A 
ATOM      4  C   UNL     1       2.382   1.417  -0.013  0.00  0.00    +0.029 A 
ATOM      5  C   UNL     1       2.401   0.022  -0.021  0.00  0.00    +0.039 A 
ATOM      6  C   UNL     1       1.208  -0.684  -0.013  0.00  0.00    +0.039 A 
ATOM      7  C   UNL     1       0.002  -0.004   0.002  0.00  0.00    +0.020 A 
ATOM      8 BR   UNL     1      -1.624  -0.969   0.013  0.00  0.00    -0.050 Br
BRANCH   5   9
ATOM      9  N   UNL     1       3.621  -0.663  -0.036  0.00  0.00    -0.357 N 
ATOM     10  H   UNL     1       4.455  -0.168  -0.042  0.00  0.00    +0.142 HD
ATOM     11  H   UNL     1       3.633  -1.633  -0.042  0.00  0.00    +0.142 HD
ENDBRANCH   5   9
ENDBRANCH   1   4
BRANCH   1  12
ATOM     12  C   UNL     1       3.367   4.058  -0.009  0.00  0.00    +0.170 C 
BRANCH  12  13
ATOM     13  C   UNL     1       4.581   4.951  -0.017  0.00  0.00    +0.226 C 
ATOM     14  O   UNL     1       5.692   4.464  -0.030  0.00  0.00    -0.275 OA
ATOM     15  N   UNL     1       4.432   6.290  -0.009  0.00  0.00    -0.304 N 
ATOM     16  C   UNL     1       3.095   6.902   0.014  0.00  0.00    +0.089 C 
ATOM     17  C   UNL     1       3.054   7.941   1.139  0.00  0.00    -0.063 C 
ATOM     18  N   UNL     1       4.155   8.896   0.962  0.00  0.00    +0.381 N 
ATOM     19  C   UNL     1       5.444   8.207   1.106  0.00  0.00    -0.063 C 
ATOM     20  C   UNL     1       5.602   7.181  -0.015  0.00  0.00    +0.089 C 
ATOM     21  H   UNL     1       4.097   9.308   0.043  0.00  0.00    -0.086 HD
ATOM     22  H   UNL     1       4.084   9.623   1.659  0.00  0.00    -0.086 HD
ENDBRANCH  12  13
ENDBRANCH   1  12
TORSDOF 4
