REMARK  Name = ZINC16037325
REMARK  6 active torsions:
REMARK  status: ('A' for Active; 'I' for Inactive)
REMARK    1  A    between atoms: C_3  and  C_10
REMARK    2  A    between atoms: C_5  and  N_7
REMARK    3  A    between atoms: C_19  and  N_28
REMARK    4  A    between atoms: C_20  and  C_26
REMARK    5  A    between atoms: C_21  and  C_22
REMARK    6  A    between atoms: C_21  and  C_24
REMARK                            x       y       z     vdW  Elec       q    Type
REMARK                         _______ _______ _______ _____ _____    ______ ____
ROOT
ATOM      1  C   UNL     1      -0.827   2.073  -1.159  0.00  0.00    +0.066 C 
ATOM      2  C   UNL     1       0.083   1.740   0.026  0.00  0.00    +0.031 C 
ATOM      3  C   UNL     1       0.332   0.255   0.145  0.00  0.00    +0.009 C 
ATOM      4  C   UNL     1       1.674  -0.148  -0.462  0.00  0.00    +0.005 C 
ATOM      5  C   UNL     1       2.785   0.619   0.267  0.00  0.00    +0.027 C 
ATOM      6  C   UNL     1       2.549   2.091   0.046  0.00  0.00    -0.021 C 
ATOM      7  C   UNL     1       1.325   2.573  -0.084  0.00  0.00    -0.026 C 
ATOM      8  C   UNL     1       1.145   4.006  -0.407  0.00  0.00    +0.044 C 
ATOM      9  C   UNL     1      -0.056   4.439  -0.875  0.00  0.00    +0.084 C 
ATOM     10  C   UNL     1      -1.241   3.542  -1.067  0.00  0.00    +0.186 C 
ENDROOT
BRANCH   1  13
ATOM     11  C   UNL     1       0.466   0.417  -4.296  0.00  0.00    +0.002 A 
ATOM     12  C   UNL     1      -0.217   0.633  -3.113  0.00  0.00    +0.004 A 
ATOM     13  C   UNL     1      -0.083   1.837  -2.448  0.00  0.00    -0.039 A 
ATOM     14  C   UNL     1       0.729   2.828  -2.968  0.00  0.00    +0.036 A 
ATOM     15  C   UNL     1       1.415   2.611  -4.148  0.00  0.00    +0.126 A 
ATOM     16  C   UNL     1       1.281   1.406  -4.813  0.00  0.00    +0.033 A 
BRANCH  15  17
ATOM     17  N   UNL     1       2.288   3.669  -4.702  0.00  0.00    +0.056 N 
ATOM     18  O   UNL     1       2.890   3.479  -5.744  0.00  0.00    -0.126 OA
ATOM     19  O   UNL     1       2.406   4.731  -4.116  0.00  0.00    -0.126 OA
ENDBRANCH  15  17
ENDBRANCH   1  13
BRANCH   8  20
ATOM     20  N   UNL     1       2.187   4.896  -0.235  0.00  0.00    -0.357 N 
ATOM     21  H   UNL     1       2.047   5.960  -0.477  0.00  0.00    +0.142 HD
ATOM     22  H   UNL     1       3.156   4.540   0.144  0.00  0.00    +0.142 HD
ENDBRANCH   8  20
BRANCH  10  23
ATOM     23  C   UNL     1      -2.162   3.712   0.069  0.00  0.00    +0.090 C 
ATOM     24  N   UNL     1      -2.872   3.843   0.946  0.00  0.00    -0.195 NA
ENDBRANCH  10  23
BRANCH  10  25
ATOM     25  C   UNL     1      -1.935   3.922  -2.308  0.00  0.00    +0.090 C 
ATOM     26  N   UNL     1      -2.471   4.215  -3.266  0.00  0.00    -0.195 NA
ENDBRANCH  10  25
BRANCH   9  27
ATOM     27  C   UNL     1      -0.195   5.826  -1.202  0.00  0.00    +0.099 C 
ATOM     28  N   UNL     1      -0.306   6.926  -1.461  0.00  0.00    -0.191 NA
ENDBRANCH   9  27
TORSDOF 6
