REMARK  Name = ZINC40799258
REMARK  3 active torsions:
REMARK  status: ('A' for Active; 'I' for Inactive)
REMARK    1  A    between atoms: C_14  and  N_28
REMARK    2  A    between atoms: C_15  and  N_19
REMARK    3  A    between atoms: N_19  and  C_20
REMARK                            x       y       z     vdW  Elec       q    Type
REMARK                         _______ _______ _______ _____ _____    ______ ____
ROOT
ATOM      1  C   UNL     1       2.559   1.419   0.047  0.00  0.00    +0.005 A 
ATOM      2  C   UNL     1       1.332   2.068   0.045  0.00  0.00    +0.018 A 
ATOM      3  C   UNL     1       0.171   1.321   0.030  0.00  0.00    +0.084 A 
ATOM      4  N   UNL     1       0.215   0.003   0.016  0.00  0.00    -0.350 N 
ATOM      5  C   UNL     1       1.365  -0.654   0.017  0.00  0.00    +0.099 A 
ATOM      6  C   UNL     1       2.574   0.036   0.032  0.00  0.00    +0.042 A 
ATOM      7  N   UNL     1       1.365  -2.044   0.003  0.00  0.00    -0.314 N 
ATOM      8  C   UNL     1       2.623  -2.790  -0.139  0.00  0.00    +0.125 C 
ATOM      9  C   UNL     1       2.750  -3.765   1.038  0.00  0.00    +0.125 C 
ATOM     10  N   UNL     1       1.492  -4.514   1.165  0.00  0.00    -0.311 N 
ATOM     11  C   UNL     1       0.234  -3.768   1.307  0.00  0.00    +0.125 C 
ATOM     12  C   UNL     1       0.108  -2.793   0.135  0.00  0.00    +0.125 C 
ATOM     13  C   UNL     1       1.492  -5.904   1.151  0.00  0.00    +0.147 A 
ATOM     14  C   UNL     1       1.518  -6.625   2.346  0.00  0.00    +0.106 A 
ATOM     15  C   UNL     1       1.517  -8.019   2.275  0.00  0.00    +0.149 A 
ATOM     16  N   UNL     1       1.491  -8.604   1.079  0.00  0.00    -0.219 NA
ATOM     17  C   UNL     1       1.467  -7.885  -0.025  0.00  0.00    +0.225 A 
ATOM     18  N   UNL     1       1.462  -6.568  -0.002  0.00  0.00    -0.219 NA
ATOM     19  H   UNL     1      -0.615  -0.498   0.005  0.00  0.00    +0.166 HD
ENDROOT
BRANCH  14  20
ATOM     20  N   UNL     1       1.545  -5.966   3.586  0.00  0.00    -0.353 N 
ATOM     21  H   UNL     1       1.472  -5.000   3.623  0.00  0.00    +0.143 HD
ATOM     22  H   UNL     1       1.637  -6.478   4.405  0.00  0.00    +0.143 HD
ENDBRANCH  14  20
BRANCH  15  23
ATOM     23  N   UNL     1       1.542  -8.786   3.435  0.00  0.00    -0.298 N 
ATOM     24  H   UNL     1       1.611  -8.353   4.300  0.00  0.00    +0.154 HD
BRANCH  23  25
ATOM     25  C   UNL     1       1.469 -10.180   3.353  0.00  0.00    +0.035 A 
ATOM     26  C   UNL     1       0.789 -10.899   4.328  0.00  0.00    +0.026 A 
ATOM     27  C   UNL     1       0.718 -12.276   4.247  0.00  0.00    +0.043 A 
ATOM     28  C   UNL     1       1.323 -12.941   3.195  0.00  0.00    +0.159 A 
ATOM     29  C   UNL     1       2.003 -12.226   2.220  0.00  0.00    +0.160 A 
ATOM     30  C   UNL     1       2.072 -10.847   2.295  0.00  0.00    +0.064 A 
ATOM     31  F   UNL     1       2.594 -12.877   1.194  0.00  0.00    -0.202 F 
ATOM     32  F   UNL     1       1.252 -14.288   3.118  0.00  0.00    -0.202 F 
ENDBRANCH  23  25
ENDBRANCH  15  23
TORSDOF 3
