REMARK  Name = ZINC00794229
REMARK  4 active torsions:
REMARK  status: ('A' for Active; 'I' for Inactive)
REMARK    1  A    between atoms: C_1  and  C_2
REMARK    2  A    between atoms: C_3  and  C_18
REMARK    3  A    between atoms: C_10  and  C_11
REMARK    4  A    between atoms: C_18  and  C_20
REMARK                            x       y       z     vdW  Elec       q    Type
REMARK                         _______ _______ _______ _____ _____    ______ ____
ROOT
ATOM      1  C   UNL     1      -0.076   1.501   0.015  0.00  0.00    +0.066 C 
ATOM      2  C   UNL     1      -0.025  -0.005   0.004  0.00  0.00    +0.054 A 
ATOM      3  C   UNL     1      -0.098  -0.703  -1.189  0.00  0.00    +0.056 A 
ATOM      4  C   UNL     1      -0.047  -2.119  -1.158  0.00  0.00    +0.126 A 
ATOM      5  N   UNL     1       0.067  -2.745  -0.014  0.00  0.00    -0.235 NA
ATOM      6  C   UNL     1       0.137  -2.072   1.141  0.00  0.00    +0.163 A 
ATOM      7  N   UNL     1       0.098  -0.701   1.166  0.00  0.00    -0.218 N 
ATOM      8  N   UNL     1       0.199  -0.291   2.500  0.00  0.00    -0.173 NA
ATOM      9  C   UNL     1       0.301  -1.347   3.269  0.00  0.00    +0.145 A 
ATOM     10  C   UNL     1       0.259  -2.496   2.469  0.00  0.00    +0.046 A 
ENDROOT
BRANCH  10  11
ATOM     11  C   UNL     1       0.344  -3.898   2.940  0.00  0.00    -0.013 A 
ATOM     12  C   UNL     1      -0.583  -4.842   2.499  0.00  0.00    +0.010 A 
ATOM     13  C   UNL     1      -0.499  -6.146   2.941  0.00  0.00    +0.020 A 
ATOM     14  C   UNL     1       0.504  -6.519   3.819  0.00  0.00    +0.041 A 
ATOM     15  C   UNL     1       1.428  -5.586   4.260  0.00  0.00    +0.020 A 
ATOM     16  C   UNL     1       1.356  -4.280   3.821  0.00  0.00    +0.010 A 
ATOM     17 CL   UNL     1       0.605  -8.162   4.371  0.00  0.00    -0.084 Cl
ENDBRANCH  10  11
BRANCH   3  18
ATOM     18  C   UNL     1      -0.226   0.011  -2.466  0.00  0.00    +0.163 C 
ATOM     19  O   UNL     1      -0.154   1.222  -2.493  0.00  0.00    -0.292 OA
ATOM     20  C   UNL     1      -0.447  -0.759  -3.742  0.00  0.00    +0.091 C 
ENDBRANCH   3  18
TORSDOF 2
