REMARK  Name = ZINC40229746
REMARK  5 active torsions:
REMARK  status: ('A' for Active; 'I' for Inactive)
REMARK    1  A    between atoms: C_1  and  C_2
REMARK    2  A    between atoms: C_3  and  N_21
REMARK    3  A    between atoms: C_5  and  S_9
REMARK    4  A    between atoms: S_9  and  N_12
REMARK    5  A    between atoms: N_12  and  C_13
REMARK                            x       y       z     vdW  Elec       q    Type
REMARK                         _______ _______ _______ _____ _____    ______ ____
ROOT
ATOM      1  S   UNL     1       0.063  -4.536  -0.016  0.00  0.00    +0.092 S 
ATOM      2  O   UNL     1      -0.476  -4.952   1.231  0.00  0.00    -0.148 OA
ATOM      3  O   UNL     1      -0.488  -4.947  -1.260  0.00  0.00    -0.148 OA
ENDROOT
BRANCH   1   8
ATOM      4  C   UNL     1      -0.018   1.503   0.010  0.00  0.00    +0.047 C 
ATOM      5  C   UNL     1       0.002  -0.004   0.002  0.00  0.00    -0.011 A 
ATOM      6  C   UNL     1       0.006  -0.693  -1.204  0.00  0.00    +0.031 A 
ATOM      7  C   UNL     1       0.025  -2.082  -1.208  0.00  0.00    +0.052 A 
ATOM      8  C   UNL     1       0.040  -2.774  -0.012  0.00  0.00    +0.113 A 
ATOM      9  C   UNL     1       0.035  -2.087   1.187  0.00  0.00    +0.049 A 
ATOM     10  C   UNL     1       0.023  -0.702   1.194  0.00  0.00    +0.047 A 
ATOM     11 CL   UNL     1       0.026   0.157   2.703  0.00  0.00    -0.083 Cl
BRANCH   6  12
ATOM     12  N   UNL     1      -0.010   0.010  -2.411  0.00  0.00    -0.358 N 
ATOM     13  H   UNL     1      -0.023   0.980  -2.408  0.00  0.00    +0.142 HD
ATOM     14  H   UNL     1      -0.007  -0.472  -3.253  0.00  0.00    +0.142 HD
ENDBRANCH   6  12
ENDBRANCH   1   8
BRANCH   1  15
ATOM     15  N   UNL     1       1.652  -5.004  -0.025  0.00  0.00    -0.095 NA
BRANCH  15  16
ATOM     16  C   UNL     1       1.980  -6.363  -0.029  0.00  0.00    +0.112 A 
ATOM     17  C   UNL     1       0.975  -7.322  -0.033  0.00  0.00    +0.030 A 
ATOM     18  C   UNL     1       1.301  -8.664  -0.038  0.00  0.00    +0.005 A 
ATOM     19  C   UNL     1       2.627  -9.056  -0.039  0.00  0.00    +0.041 A 
ATOM     20  C   UNL     1       3.634  -8.105  -0.036  0.00  0.00    +0.160 A 
ATOM     21  C   UNL     1       3.313  -6.758  -0.037  0.00  0.00    +0.183 A 
ATOM     22  F   UNL     1       4.294  -5.829  -0.039  0.00  0.00    -0.200 F 
ATOM     23  F   UNL     1       4.928  -8.492  -0.037  0.00  0.00    -0.202 F 
ENDBRANCH  15  16
ENDBRANCH   1  15
TORSDOF 4
