REMARK  Name = ZINC02142716
REMARK  8 active torsions:
REMARK  status: ('A' for Active; 'I' for Inactive)
REMARK    1  A    between atoms: C_1  and  C_2
REMARK    2  A    between atoms: C_4  and  N_14
REMARK    3  A    between atoms: C_6  and  C_8
REMARK    4  A    between atoms: N_14  and  C_15
REMARK    5  A    between atoms: C_15  and  C_16
REMARK    6  A    between atoms: C_16  and  N_17
REMARK    7  A    between atoms: N_17  and  C_18
REMARK    8  A    between atoms: C_19  and  C_23
REMARK                            x       y       z     vdW  Elec       q    Type
REMARK                         _______ _______ _______ _____ _____    ______ ____
ROOT
ATOM      1  N   UNL     1       6.064   3.156  -0.039  0.00  0.00    -0.326 N 
ATOM      2  H   UNL     1       6.037   2.187  -0.044  0.00  0.00    +0.148 HD
ENDROOT
BRANCH   1   6
ATOM      3  C   UNL     1      10.988   3.062  -0.085  0.00  0.00    +0.067 C 
ATOM      4  C   UNL     1       9.673   3.796  -0.069  0.00  0.00    +0.062 A 
ATOM      5  C   UNL     1       8.480   3.095  -0.056  0.00  0.00    +0.102 A 
ATOM      6  C   UNL     1       7.283   3.817  -0.047  0.00  0.00    +0.141 A 
ATOM      7  N   UNL     1       7.331   5.144  -0.040  0.00  0.00    -0.211 NA
ATOM      8  C   UNL     1       8.495   5.777  -0.048  0.00  0.00    +0.162 A 
ATOM      9  N   UNL     1       9.645   5.120  -0.062  0.00  0.00    -0.231 NA
ATOM     10 CL   UNL     1       8.471   1.359  -0.059  0.00  0.00    -0.078 Cl
BRANCH   8  11
ATOM     11  C   UNL     1       8.510   7.261  -0.040  0.00  0.00    +0.022 A 
ATOM     12  C   UNL     1       7.319   7.992  -0.031  0.00  0.00    +0.031 A 
ATOM     13  C   UNL     1       7.378   9.371  -0.018  0.00  0.00    +0.111 A 
ATOM     14  N   UNL     1       8.539   9.998  -0.025  0.00  0.00    -0.263 NA
ATOM     15  C   UNL     1       9.685   9.347  -0.039  0.00  0.00    +0.111 A 
ATOM     16  C   UNL     1       9.716   7.967  -0.047  0.00  0.00    +0.031 A 
ENDBRANCH   8  11
ENDBRANCH   1   6
BRANCH   1  17
ATOM     17  C   UNL     1       4.816   3.923  -0.023  0.00  0.00    +0.121 C 
BRANCH  17  18
ATOM     18  C   UNL     1       3.626   2.961  -0.017  0.00  0.00    +0.121 C 
BRANCH  18  19
ATOM     19  N   UNL     1       2.378   3.728  -0.001  0.00  0.00    -0.329 N 
ATOM     20  H   UNL     1       2.405   4.698   0.004  0.00  0.00    +0.147 HD
BRANCH  19  21
ATOM     21  C   UNL     1       1.156   3.066   0.007  0.00  0.00    +0.108 A 
ATOM     22  C   UNL     1      -0.026   3.801   0.023  0.00  0.00    +0.093 A 
ATOM     23  C   UNL     1      -1.235   3.129   0.031  0.00  0.00    +0.017 A 
ATOM     24  C   UNL     1      -1.222   1.741   0.017  0.00  0.00    +0.018 A 
ATOM     25  C   UNL     1      -0.013   1.076   0.008  0.00  0.00    +0.084 A 
ATOM     26  N   UNL     1       1.194   1.703  -0.000  0.00  0.00    -0.349 N 
ATOM     27  H   UNL     1       2.079   1.182  -0.011  0.00  0.00    +0.167 HD
BRANCH  22  28
ATOM     28  C   UNL     1       0.011   5.307   0.032  0.00  0.00    +0.421 C 
ATOM     29  F   UNL     1      -1.296   5.806   0.047  0.00  0.00    -0.166 F 
ATOM     30  F   UNL     1       0.693   5.750   1.170  0.00  0.00    -0.166 F 
ATOM     31  F   UNL     1       0.671   5.764  -1.114  0.00  0.00    -0.166 F 
ENDBRANCH  22  28
ENDBRANCH  19  21
ENDBRANCH  18  19
ENDBRANCH  17  18
ENDBRANCH   1  17
TORSDOF 7
