REMARK  Name = ZINC08782921
REMARK  8 active torsions:
REMARK  status: ('A' for Active; 'I' for Inactive)
REMARK    1  A    between atoms: C_1  and  C_2
REMARK    2  A    between atoms: C_5  and  C_16
REMARK    3  A    between atoms: C_5  and  C_31
REMARK    4  A    between atoms: C_6  and  C_9
REMARK    5  A    between atoms: N_18  and  N_19
REMARK    6  A    between atoms: N_19  and  C_20
REMARK    7  A    between atoms: C_25  and  C_29
REMARK    8  A    between atoms: C_25  and  C_30
REMARK                            x       y       z     vdW  Elec       q    Type
REMARK                         _______ _______ _______ _____ _____    ______ ____
ROOT
ATOM      1  C   UNL     1      -3.635   3.244   3.013  0.00  0.00    +0.039 C 
ATOM      2  C   UNL     1      -3.464   3.494   1.537  0.00  0.00    -0.076 C 
ATOM      3  C   UNL     1      -4.425   4.091   0.907  0.00  0.00    -0.026 C 
ATOM      4  C   UNL     1      -4.395   4.416  -0.557  0.00  0.00    +0.055 C 
ATOM      5  C   UNL     1      -3.313   3.592  -1.258  0.00  0.00    +0.159 C 
ATOM      6  C   UNL     1      -2.008   3.728  -0.463  0.00  0.00    +0.049 C 
ATOM      7  C   UNL     1      -2.191   3.034   0.888  0.00  0.00    +0.040 C 
ENDROOT
BRANCH   6   8
ATOM      8  C   UNL     1      -0.883   3.072  -1.221  0.00  0.00    -0.042 A 
ATOM      9  C   UNL     1      -0.830   1.694  -1.324  0.00  0.00    +0.007 A 
ATOM     10  C   UNL     1       0.204   1.092  -2.014  0.00  0.00    +0.038 A 
ATOM     11  C   UNL     1       1.182   1.869  -2.612  0.00  0.00    +0.123 A 
ATOM     12  C   UNL     1       1.125   3.248  -2.513  0.00  0.00    +0.038 A 
ATOM     13  C   UNL     1       0.093   3.849  -1.817  0.00  0.00    +0.007 A 
ATOM     14  F   UNL     1       2.191   1.281  -3.291  0.00  0.00    -0.205 F 
ENDBRANCH   6   8
BRANCH   5  15
ATOM     15  C   UNL     1      -3.729   2.145  -1.306  0.00  0.00    +0.247 C 
ATOM     16  O   UNL     1      -4.527   1.716  -0.499  0.00  0.00    -0.273 OA
ATOM     17  N   UNL     1      -3.216   1.326  -2.245  0.00  0.00    -0.236 N 
ATOM     18  H   UNL     1      -2.578   1.669  -2.891  0.00  0.00    +0.173 HD
BRANCH  17  19
ATOM     19  N   UNL     1      -3.603  -0.019  -2.289  0.00  0.00    -0.271 N 
ATOM     20  H   UNL     1      -4.241  -0.362  -1.644  0.00  0.00    +0.169 HD
BRANCH  19  21
ATOM     21  C   UNL     1      -3.089  -0.839  -3.229  0.00  0.00    +0.110 C 
ATOM     22  C   UNL     1      -3.471  -2.166  -3.273  0.00  0.00    +0.158 C 
ATOM     23  C   UNL     1      -4.437  -2.756  -2.312  0.00  0.00    +0.350 C 
ATOM     24  O   UNL     1      -4.493  -2.408  -1.148  0.00  0.00    -0.245 OA
ATOM     25  O   UNL     1      -5.258  -3.713  -2.833  0.00  0.00    -0.419 OA
ATOM     26  C   UNL     1      -4.598  -4.717  -3.656  0.00  0.00    +0.255 C 
ATOM     27  O   UNL     1      -3.831  -4.062  -4.706  0.00  0.00    -0.419 OA
ATOM     28  C   UNL     1      -2.945  -3.121  -4.280  0.00  0.00    +0.350 C 
ATOM     29  O   UNL     1      -1.803  -3.065  -4.696  0.00  0.00    -0.245 OA
ATOM     30  C   UNL     1      -5.651  -5.630  -4.287  0.00  0.00    +0.104 C 
ATOM     31  C   UNL     1      -3.658  -5.552  -2.784  0.00  0.00    +0.104 C 
ENDBRANCH  19  21
ENDBRANCH  17  19
ENDBRANCH   5  15
BRANCH   5  32
ATOM     32  C   UNL     1      -3.109   4.111  -2.659  0.00  0.00    +0.372 C 
ATOM     33  O   UNL     1      -2.032   4.546  -2.991  0.00  0.00    -0.245 OA
ATOM     34  O   UNL     1      -4.124   4.090  -3.537  0.00  0.00    -0.245 OA
ENDBRANCH   5  32
TORSDOF 5
