REMARK  Name = ZINC33252430
REMARK  6 active torsions:
REMARK  status: ('A' for Active; 'I' for Inactive)
REMARK    1  A    between atoms: C_4  and  C_19
REMARK    2  A    between atoms: C_5  and  C_7
REMARK    3  A    between atoms: C_9  and  C_12
REMARK    4  A    between atoms: N_21  and  C_22
REMARK    5  A    between atoms: C_25  and  S_28
REMARK    6  A    between atoms: S_28  and  N_31
REMARK                            x       y       z     vdW  Elec       q    Type
REMARK                         _______ _______ _______ _____ _____    ______ ____
ROOT
ATOM      1  C   UNL     1      -0.433   1.142  -0.297  0.00  0.00    +0.001 A 
ATOM      2  C   UNL     1       0.811   1.443   0.230  0.00  0.00    +0.001 A 
ATOM      3  C   UNL     1       1.214   2.757   0.366  0.00  0.00    +0.014 A 
ATOM      4  C   UNL     1       0.366   3.790  -0.027  0.00  0.00    +0.049 A 
ATOM      5  C   UNL     1      -0.900   3.484  -0.562  0.00  0.00    +0.052 A 
ATOM      6  C   UNL     1      -1.286   2.152  -0.698  0.00  0.00    +0.014 A 
ENDROOT
BRANCH   5   7
ATOM      7  C   UNL     1      -1.810   4.569  -0.984  0.00  0.00    +0.259 A 
ATOM      8  N   UNL     1      -3.052   4.755  -0.578  0.00  0.00    -0.187 NA
ATOM      9  C   UNL     1      -3.481   5.859  -1.223  0.00  0.00    +0.202 A 
ATOM     10  N   UNL     1      -2.499   6.276  -1.981  0.00  0.00    -0.056 NA
ATOM     11  O   UNL     1      -1.535   5.550  -1.857  0.00  0.00    -0.332 OA
BRANCH   9  12
ATOM     12  C   UNL     1      -4.822   6.483  -1.101  0.00  0.00    +0.023 A 
ATOM     13  C   UNL     1      -5.778   5.925  -0.255  0.00  0.00    +0.014 A 
ATOM     14  C   UNL     1      -7.022   6.510  -0.142  0.00  0.00    +0.039 A 
ATOM     15  C   UNL     1      -7.325   7.647  -0.875  0.00  0.00    +0.123 A 
ATOM     16  C   UNL     1      -6.379   8.202  -1.721  0.00  0.00    +0.039 A 
ATOM     17  C   UNL     1      -5.131   7.626  -1.837  0.00  0.00    +0.014 A 
ATOM     18  F   UNL     1      -8.546   8.214  -0.764  0.00  0.00    -0.205 F 
ENDBRANCH   9  12
ENDBRANCH   5   7
BRANCH   4  19
ATOM     19  C   UNL     1       0.791   5.197   0.118  0.00  0.00    +0.249 C 
ATOM     20  O   UNL     1       0.010   6.097  -0.124  0.00  0.00    -0.270 OA
ATOM     21  N   UNL     1       2.046   5.484   0.517  0.00  0.00    -0.281 N 
ATOM     22  H   UNL     1       2.778   4.674   0.657  0.00  0.00    +0.155 HD
BRANCH  21  23
ATOM     23  C   UNL     1       2.418   6.811   0.754  0.00  0.00    +0.034 A 
ATOM     24  C   UNL     1       3.699   7.243   0.433  0.00  0.00    +0.025 A 
ATOM     25  C   UNL     1       4.061   8.556   0.662  0.00  0.00    +0.030 A 
ATOM     26  C   UNL     1       3.155   9.437   1.223  0.00  0.00    +0.105 A 
ATOM     27  C   UNL     1       1.881   9.008   1.550  0.00  0.00    +0.030 A 
ATOM     28  C   UNL     1       1.510   7.699   1.317  0.00  0.00    +0.025 A 
BRANCH  26  29
ATOM     29  S   UNL     1       3.623  11.109   1.521  0.00  0.00    +0.056 S 
ATOM     30  O   UNL     1       4.688  11.398   0.626  0.00  0.00    -0.153 OA
ATOM     31  O   UNL     1       2.423  11.868   1.548  0.00  0.00    -0.153 OA
BRANCH  29  32
ATOM     32  N   UNL     1       4.259  11.174   3.049  0.00  0.00    -0.204 NA
ATOM     33  H   UNL     1       4.565  12.206   3.275  0.00  0.00    +0.144 HD
ATOM     34  H   UNL     1       5.134  10.510   3.111  0.00  0.00    +0.144 HD
ENDBRANCH  29  32
ENDBRANCH  26  29
ENDBRANCH  21  23
ENDBRANCH   4  19
TORSDOF 6
