REMARK  Name = ZINC52636751
REMARK  4 active torsions:
REMARK  status: ('A' for Active; 'I' for Inactive)
REMARK    1  A    between atoms: C_1  and  C_2
REMARK    2  A    between atoms: N_8  and  S_9
REMARK    3  A    between atoms: S_9  and  C_12
REMARK    4  A    between atoms: C_27  and  C_29
REMARK                            x       y       z     vdW  Elec       q    Type
REMARK                         _______ _______ _______ _____ _____    ______ ____
ROOT
ATOM      1  S   UNL     1       0.846   0.131   2.625  0.00  0.00    +0.060 S 
ATOM      2  O   UNL     1       2.076  -0.376   3.124  0.00  0.00    -0.153 OA
ATOM      3  O   UNL     1       0.702   1.470   2.172  0.00  0.00    -0.153 OA
ENDROOT
BRANCH   1   4
ATOM      4  C   UNL     1      -0.347  -0.100   3.901  0.00  0.00    +0.114 C 
ATOM      5  C   UNL     1      -0.158  -0.709   5.090  0.00  0.00    +0.062 A 
ATOM      6  C   UNL     1       0.997  -1.357   5.729  0.00  0.00    +0.152 A 
ATOM      7  C   UNL     1       0.842  -1.885   6.968  0.00  0.00    +0.152 A 
ATOM      8  N   UNL     1      -0.303  -1.849   7.639  0.00  0.00    -0.232 NA
ATOM      9  C   UNL     1      -1.406  -1.307   7.193  0.00  0.00    +0.180 A 
ATOM     10  C   UNL     1      -1.425  -0.681   5.858  0.00  0.00    +0.092 A 
ATOM     11  N   UNL     1      -2.358  -0.080   5.173  0.00  0.00    -0.376 N 
ATOM     12  C   UNL     1      -1.792   0.352   3.889  0.00  0.00    +0.170 C 
ATOM     13  N   UNL     1      -2.560  -1.320   7.977  0.00  0.00    -0.200 N 
ATOM     14  C   UNL     1      -2.863  -2.198   8.955  0.00  0.00    +0.226 A 
ATOM     15  N   UNL     1      -4.030  -1.869   9.446  0.00  0.00    -0.222 NA
ATOM     16  C   UNL     1      -4.501  -0.795   8.813  0.00  0.00    +0.245 A 
ATOM     17  N   UNL     1      -3.634  -0.418   7.910  0.00  0.00    -0.152 NA
ATOM     18  F   UNL     1       2.188  -1.424   5.095  0.00  0.00    -0.203 F 
ATOM     19  H   UNL     1      -3.272   0.062   5.465  0.00  0.00    +0.160 HD
ENDBRANCH   1   4
BRANCH   1  26
ATOM     20  C   UNL     1      -1.055   1.015   0.727  0.00  0.00    +0.027 C 
ATOM     21  C   UNL     1      -0.626  -0.419   0.410  0.00  0.00    +0.094 C 
ATOM     22  C   UNL     1      -0.047  -0.481  -1.009  0.00  0.00    +0.128 C 
ATOM     23  N   UNL     1       0.592  -1.791  -1.198  0.00  0.00    -0.295 N 
ATOM     24  C   UNL     1       1.629  -2.217  -0.248  0.00  0.00    +0.125 C 
ATOM     25  C   UNL     1       1.050  -2.155   1.171  0.00  0.00    +0.129 C 
ATOM     26  N   UNL     1       0.408  -0.846   1.362  0.00  0.00    -0.171 NA
ATOM     27  C   UNL     1       0.234  -2.587  -2.225  0.00  0.00    +0.247 C 
ATOM     28  O   UNL     1       0.715  -3.699  -2.329  0.00  0.00    -0.270 OA
BRANCH  27  29
ATOM     29  C   UNL     1      -0.745  -2.109  -3.224  0.00  0.00    +0.037 A 
ATOM     30  C   UNL     1      -0.756  -0.767  -3.608  0.00  0.00    +0.013 A 
ATOM     31  C   UNL     1      -1.672  -0.328  -4.542  0.00  0.00    +0.001 A 
ATOM     32  C   UNL     1      -2.578  -1.214  -5.097  0.00  0.00    +0.000 A 
ATOM     33  C   UNL     1      -2.573  -2.545  -4.720  0.00  0.00    +0.001 A 
ATOM     34  C   UNL     1      -1.659  -2.999  -3.792  0.00  0.00    +0.013 A 
ENDBRANCH  27  29
ENDBRANCH   1  26
TORSDOF 3
