REMARK  Name = ZINC28056425
REMARK  2 active torsions:
REMARK  status: ('A' for Active; 'I' for Inactive)
REMARK    1  A    between atoms: C_9  and  C_17
REMARK    2  A    between atoms: C_24  and  C_27
REMARK                            x       y       z     vdW  Elec       q    Type
REMARK                         _______ _______ _______ _____ _____    ______ ____
ROOT
ATOM      1  C   UNL     1      -4.263   2.828   0.444  0.00  0.00    +0.001 A 
ATOM      2  C   UNL     1      -4.018   2.659  -0.908  0.00  0.00    +0.004 A 
ATOM      3  C   UNL     1      -3.322   1.553  -1.362  0.00  0.00    +0.046 A 
ATOM      4  C   UNL     1      -2.867   0.610  -0.460  0.00  0.00    +0.131 A 
ATOM      5  C   UNL     1      -3.117   0.779   0.908  0.00  0.00    +0.038 A 
ATOM      6  C   UNL     1      -3.816   1.892   1.357  0.00  0.00    +0.013 A 
ATOM      7  C   UNL     1      -2.618  -0.254   1.848  0.00  0.00    +0.050 C 
ATOM      8  C   UNL     1      -1.684  -1.105   1.419  0.00  0.00    +0.026 C 
ATOM      9  C   UNL     1      -1.126  -2.200   2.293  0.00  0.00    +0.174 C 
ATOM     10  N   UNL     1      -1.943  -2.354   3.488  0.00  0.00    -0.201 N 
ATOM     11  C   UNL     1      -2.885  -1.458   3.881  0.00  0.00    +0.240 A 
ATOM     12  N   UNL     1      -3.410  -1.904   4.986  0.00  0.00    -0.092 NA
ATOM     13  N   UNL     1      -2.867  -3.026   5.316  0.00  0.00    -0.021 NA
ATOM     14  N   UNL     1      -1.967  -3.364   4.449  0.00  0.00    -0.042 NA
ATOM     15  N   UNL     1      -3.148  -0.316   3.142  0.00  0.00    -0.282 N 
ATOM     16  C   UNL     1      -1.155  -0.969   0.008  0.00  0.00    +0.241 C 
ATOM     17  O   UNL     1      -2.176  -0.486  -0.865  0.00  0.00    -0.479 OA
ATOM     18  H   UNL     1      -3.744   0.522   3.533  0.00  0.00    +0.155 HD
ENDROOT
BRANCH   9  19
ATOM     19  C   UNL     1       0.284  -1.850   2.694  0.00  0.00    -0.016 A 
ATOM     20  C   UNL     1       0.533  -0.689   3.402  0.00  0.00    +0.006 A 
ATOM     21  C   UNL     1       1.825  -0.368   3.775  0.00  0.00    +0.003 A 
ATOM     22  C   UNL     1       2.871  -1.203   3.431  0.00  0.00    +0.038 A 
ATOM     23  C   UNL     1       2.624  -2.364   2.718  0.00  0.00    +0.124 A 
ATOM     24  C   UNL     1       1.328  -2.686   2.349  0.00  0.00    +0.044 A 
ATOM     25  F   UNL     1       3.646  -3.180   2.381  0.00  0.00    -0.205 F 
ENDBRANCH   9  19
BRANCH  16  26
ATOM     26  C   UNL     1       0.002  -0.004   0.002  0.00  0.00    +0.034 A 
ATOM     27  C   UNL     1       1.332  -0.266  -0.012  0.00  0.00    +0.015 A 
ATOM     28  C   UNL     1       2.223   0.790  -0.015  0.00  0.00    +0.008 A 
ATOM     29  C   UNL     1       1.742   2.057  -0.004  0.00  0.00    +0.045 A 
ATOM     30  S   UNL     1      -0.022   1.781   0.012  0.00  0.00    -0.098 S 
ENDBRANCH  16  26
TORSDOF 2
