REMARK  Name = ZINC63375897
REMARK  8 active torsions:
REMARK  status: ('A' for Active; 'I' for Inactive)
REMARK    1  A    between atoms: C_1  and  C_2
REMARK    2  A    between atoms: C_2  and  C_3
REMARK    3  A    between atoms: C_3  and  C_4
REMARK    4  A    between atoms: C_4  and  N_5
REMARK    5  A    between atoms: C_6  and  C_8
REMARK    6  A    between atoms: C_11  and  N_14
REMARK    7  A    between atoms: C_30  and  C_35
REMARK    8  A    between atoms: C_38  and  C_41
REMARK                            x       y       z     vdW  Elec       q    Type
REMARK                         _______ _______ _______ _____ _____    ______ ____
ROOT
ATOM      1  N   UNL     1       4.251  -5.729  -7.330  0.00  0.00    -0.193 N 
ATOM      2  C   UNL     1       4.544  -7.015  -7.612  0.00  0.00    +0.248 C 
ATOM      3  O   UNL     1       4.328  -7.985  -6.917  0.00  0.00    -0.273 OA
ATOM      4  C   UNL     1       5.199  -6.995  -8.975  0.00  0.00    +0.169 C 
ATOM      5  C   UNL     1       6.612  -7.598  -8.889  0.00  0.00    +0.065 C 
ATOM      6  C   UNL     1       7.390  -7.027 -10.052  0.00  0.00    -0.034 C 
ATOM      7  C   UNL     1       8.072  -7.633 -11.018  0.00  0.00    -0.001 A 
ATOM      8  C   UNL     1       8.396  -9.051 -11.245  0.00  0.00    +0.010 A 
ATOM      9  C   UNL     1       9.111  -9.330 -12.368  0.00  0.00    +0.001 A 
ATOM     10  C   UNL     1       9.533  -8.351 -13.274  0.00  0.00    +0.002 A 
ATOM     11  C   UNL     1       9.287  -7.024 -13.138  0.00  0.00    +0.026 A 
ATOM     12  C   UNL     1       8.549  -6.606 -11.993  0.00  0.00    +0.043 A 
ATOM     13  N   UNL     1       8.193  -5.416 -11.609  0.00  0.00    -0.375 N 
ATOM     14  C   UNL     1       7.501  -5.533 -10.325  0.00  0.00    +0.131 C 
ATOM     15  C   UNL     1       6.068  -4.985 -10.404  0.00  0.00    +0.135 C 
ATOM     16  N   UNL     1       5.311  -5.554  -9.277  0.00  0.00    -0.264 N 
ATOM     17  C   UNL     1       4.662  -4.903  -8.302  0.00  0.00    +0.317 C 
ATOM     18  O   UNL     1       4.470  -3.703  -8.299  0.00  0.00    -0.252 OA
ATOM     19  H   UNL     1       8.359  -4.591 -12.092  0.00  0.00    +0.160 HD
ENDROOT
BRANCH  15  20
ATOM     20  C   UNL     1       5.426  -5.409 -11.700  0.00  0.00    -0.025 A 
ATOM     21  C   UNL     1       5.147  -6.744 -11.929  0.00  0.00    +0.006 A 
ATOM     22  C   UNL     1       4.558  -7.132 -13.117  0.00  0.00    +0.004 A 
ATOM     23  C   UNL     1       4.248  -6.187 -14.077  0.00  0.00    -0.050 A 
ATOM     24  C   UNL     1       4.526  -4.852 -13.847  0.00  0.00    +0.004 A 
ATOM     25  C   UNL     1       5.111  -4.463 -12.657  0.00  0.00    +0.006 A 
ATOM     26  C   UNL     1       3.607  -6.611 -15.373  0.00  0.00    +0.044 C 
ENDBRANCH  15  20
BRANCH   1  30
ATOM     27  C   UNL     1       2.294  -4.479  -3.867  0.00  0.00    +0.037 A 
ATOM     28  C   UNL     1       2.798  -3.535  -4.766  0.00  0.00    +0.015 A 
ATOM     29  C   UNL     1       3.444  -3.952  -5.909  0.00  0.00    +0.025 A 
ATOM     30  C   UNL     1       3.595  -5.310  -6.169  0.00  0.00    +0.045 A 
ATOM     31  C   UNL     1       3.094  -6.251  -5.276  0.00  0.00    +0.025 A 
ATOM     32  C   UNL     1       2.453  -5.842  -4.129  0.00  0.00    +0.015 A 
BRANCH  27  34
ATOM     33  N   UNL     1       1.450  -2.720  -2.390  0.00  0.00    -0.311 N 
ATOM     34  C   UNL     1       1.602  -4.036  -2.641  0.00  0.00    +0.244 C 
ATOM     35  O   UNL     1       1.168  -4.858  -1.857  0.00  0.00    -0.270 OA
ATOM     36  H   UNL     1       1.796  -2.064  -3.016  0.00  0.00    +0.149 HD
BRANCH  33  37
ATOM     37  C   UNL     1       0.763  -2.281  -1.174  0.00  0.00    +0.104 C 
BRANCH  37  38
ATOM     38  C   UNL     1       0.727  -0.752  -1.132  0.00  0.00    +0.018 C 
BRANCH  38  40
ATOM     39  C   UNL     1      -0.027   1.236   0.180  0.00  0.00    +0.004 C 
ATOM     40  C   UNL     1       0.009  -0.293   0.139  0.00  0.00    -0.002 C 
ENDBRANCH  38  40
ENDBRANCH  37  38
ENDBRANCH  33  37
ENDBRANCH  27  34
ENDBRANCH   1  30
TORSDOF 6
