REMARK  Name = ZINC29104834
REMARK  6 active torsions:
REMARK  status: ('A' for Active; 'I' for Inactive)
REMARK    1  A    between atoms: C_1  and  C_2
REMARK    2  A    between atoms: C_4  and  N_13
REMARK    3  A    between atoms: C_7  and  N_8
REMARK    4  A    between atoms: C_14  and  C_16
REMARK    5  A    between atoms: C_16  and  C_17
REMARK    6  A    between atoms: C_20  and  C_22
REMARK                            x       y       z     vdW  Elec       q    Type
REMARK                         _______ _______ _______ _____ _____    ______ ____
ROOT
ATOM      1  N   UNL     1       2.184   4.350  -0.603  0.00  0.00    -0.285 N 
ATOM      2  C   UNL     1       2.197   5.667  -0.315  0.00  0.00    +0.223 C 
ATOM      3  O   UNL     1       1.269   6.166   0.285  0.00  0.00    -0.275 OA
ATOM      4  H   UNL     1       3.058   3.882  -1.078  0.00  0.00    +0.155 HD
ENDROOT
BRANCH   1   8
ATOM      5  C   UNL     1      -0.858   0.664  -1.755  0.00  0.00    +0.046 C 
ATOM      6  C   UNL     1      -0.440   1.785  -0.839  0.00  0.00    -0.023 A 
ATOM      7  C   UNL     1       0.672   2.545  -1.141  0.00  0.00    +0.028 A 
ATOM      8  C   UNL     1       1.057   3.579  -0.296  0.00  0.00    +0.034 A 
ATOM      9  C   UNL     1       0.323   3.846   0.852  0.00  0.00    +0.025 A 
ATOM     10  C   UNL     1      -0.788   3.086   1.154  0.00  0.00    +0.030 A 
ATOM     11  C   UNL     1      -1.176   2.056   0.307  0.00  0.00    +0.072 A 
BRANCH  11  12
ATOM     12  N   UNL     1      -2.309   1.287   0.611  0.00  0.00    -0.200 N 
ATOM     13  C   UNL     1      -3.187   1.482   1.618  0.00  0.00    +0.250 A 
ATOM     14  N   UNL     1      -4.090   0.540   1.535  0.00  0.00    -0.116 NA
ATOM     15  N   UNL     1      -3.838  -0.242   0.548  0.00  0.00    -0.023 NA
ATOM     16  N   UNL     1      -2.771   0.143  -0.065  0.00  0.00    -0.039 NA
ENDBRANCH  11  12
ENDBRANCH   1   8
BRANCH   2  17
ATOM     17  C   UNL     1       3.366   6.519  -0.740  0.00  0.00    +0.152 C 
BRANCH  17  18
ATOM     18  C   UNL     1       3.136   7.942  -0.300  0.00  0.00    +0.058 A 
ATOM     19  C   UNL     1       4.061   8.575   0.469  0.00  0.00    +0.071 A 
ATOM     20  S   UNL     1       3.284  10.173   0.671  0.00  0.00    -0.075 S 
ATOM     21  C   UNL     1       1.812   9.821  -0.281  0.00  0.00    +0.109 A 
ATOM     22  N   UNL     1       2.040   8.570  -0.654  0.00  0.00    -0.243 NA
BRANCH  21  23
ATOM     23  C   UNL     1       0.653  10.692  -0.573  0.00  0.00    +0.008 A 
ATOM     24  C   UNL     1      -0.403  10.215  -1.352  0.00  0.00    +0.010 A 
ATOM     25  C   UNL     1      -1.484  11.030  -1.617  0.00  0.00    +0.002 A 
ATOM     26  C   UNL     1      -1.518  12.322  -1.121  0.00  0.00    +0.015 A 
ATOM     27  C   UNL     1      -0.472  12.803  -0.353  0.00  0.00    +0.019 A 
ATOM     28  C   UNL     1       0.613  11.995  -0.076  0.00  0.00    +0.025 A 
ATOM     29 BR   UNL     1      -0.529  14.569   0.319  0.00  0.00    -0.050 Br
ENDBRANCH  21  23
ENDBRANCH  17  18
ENDBRANCH   2  17
TORSDOF 5
