REMARK  Name = ZINC22418405
REMARK  10 active torsions:
REMARK  status: ('A' for Active; 'I' for Inactive)
REMARK    1  A    between atoms: C_1  and  N_2
REMARK    2  A    between atoms: N_2  and  C_3
REMARK    3  A    between atoms: N_2  and  C_4
REMARK    4  A    between atoms: C_7  and  C_10
REMARK    5  A    between atoms: C_10  and  C_12
REMARK    6  A    between atoms: C_10  and  N_26
REMARK    7  A    between atoms: C_12  and  N_13
REMARK    8  A    between atoms: N_16  and  C_17
REMARK    9  A    between atoms: C_22  and  O_23
REMARK   10  A    between atoms: O_23  and  C_24
REMARK                            x       y       z     vdW  Elec       q    Type
REMARK                         _______ _______ _______ _____ _____    ______ ____
ROOT
ATOM      1  C   UNL     1       4.804   8.052  -0.426  0.00  0.00    -0.020 C 
ENDROOT
BRANCH   1   5
ATOM      2  C   UNL     1       3.023  11.863   0.330  0.00  0.00    +0.029 A 
ATOM      3  C   UNL     1       3.483  11.549  -0.943  0.00  0.00    +0.023 A 
ATOM      4  C   UNL     1       4.058  10.317  -1.184  0.00  0.00    +0.004 A 
ATOM      5  C   UNL     1       4.176   9.395  -0.160  0.00  0.00    -0.059 A 
ATOM      6  C   UNL     1       3.714   9.702   1.107  0.00  0.00    +0.004 A 
ATOM      7  C   UNL     1       3.143  10.935   1.356  0.00  0.00    +0.023 A 
BRANCH   2   9
ATOM      8  C   UNL     1       2.205  14.039  -0.530  0.00  0.00    +0.129 C 
ATOM      9  N   UNL     1       2.441  13.108   0.576  0.00  0.00    -0.336 N 
ATOM     10  C   UNL     1       2.066  13.484   1.942  0.00  0.00    +0.129 C 
ENDBRANCH   2   9
ENDBRANCH   1   5
BRANCH   1  11
ATOM     11  N   UNL     1       5.737   7.723   0.660  0.00  0.00    +0.385 N 
ATOM     12  C   UNL     1       6.469   6.463   0.370  0.00  0.00    -0.078 C 
ATOM     13  C   UNL     1       7.714   6.558   1.287  0.00  0.00    -0.020 C 
ATOM     14  C   UNL     1       8.074   8.060   1.228  0.00  0.00    -0.020 C 
ATOM     15  C   UNL     1       6.774   8.768   0.801  0.00  0.00    -0.078 C 
ATOM     16  H   UNL     1       5.122   7.640   1.568  0.00  0.00    -0.081 HD
ENDBRANCH   1  11
BRANCH   1  17
ATOM     17  C   UNL     1       3.711   6.984  -0.499  0.00  0.00    +0.095 C 
BRANCH  17  18
ATOM     18  N   UNL     1       4.309   5.697  -0.866  0.00  0.00    -0.300 N 
ATOM     19  C   UNL     1       3.555   4.580  -0.870  0.00  0.00    +0.304 C 
ATOM     20  O   UNL     1       2.378   4.640  -0.569  0.00  0.00    -0.253 OA
ATOM     21  N   UNL     1       4.105   3.397  -1.208  0.00  0.00    -0.266 N 
ATOM     22  H   UNL     1       5.374   5.643  -1.138  0.00  0.00    +0.150 HD
ATOM     23  H   UNL     1       5.188   3.324  -1.383  0.00  0.00    +0.156 HD
BRANCH  21  24
ATOM     24  C   UNL     1       3.297   2.259  -1.334  0.00  0.00    +0.078 A 
ATOM     25  C   UNL     1       1.931   2.395  -1.535  0.00  0.00    +0.047 A 
ATOM     26  C   UNL     1       1.135   1.271  -1.660  0.00  0.00    +0.043 A 
ATOM     27  C   UNL     1       1.700   0.009  -1.591  0.00  0.00    +0.024 A 
ATOM     28  C   UNL     1       3.059  -0.133  -1.385  0.00  0.00    +0.049 A 
ATOM     29  C   UNL     1       3.863   0.989  -1.259  0.00  0.00    +0.141 A 
ATOM     30 CL   UNL     1      -0.574   1.443  -1.912  0.00  0.00    -0.083 Cl
BRANCH  29  31
ATOM     31  O   UNL     1       5.201   0.850  -1.062  0.00  0.00    -0.493 OA
ATOM     32  C   UNL     1       5.712  -0.483  -0.996  0.00  0.00    +0.277 C 
ENDBRANCH  29  31
ENDBRANCH  21  24
ENDBRANCH  17  18
ENDBRANCH   1  17
TORSDOF 7
