REMARK  Name = ZINC03246160
REMARK  10 active torsions:
REMARK  status: ('A' for Active; 'I' for Inactive)
REMARK    1  A    between atoms: C_1  and  O_2
REMARK    2  A    between atoms: O_2  and  C_3
REMARK    3  A    between atoms: C_3  and  C_4
REMARK    4  A    between atoms: C_4  and  N_5
REMARK    5  A    between atoms: C_6  and  C_8
REMARK    6  A    between atoms: C_9  and  N_33
REMARK    7  A    between atoms: C_10  and  C_21
REMARK    8  A    between atoms: C_12  and  N_13
REMARK    9  A    between atoms: N_13  and  C_14
REMARK   10  A    between atoms: N_23  and  C_24
REMARK                            x       y       z     vdW  Elec       q    Type
REMARK                         _______ _______ _______ _____ _____    ______ ____
ROOT
ATOM      1  C   UNL     1       0.500  -4.628   3.314  0.00  0.00    +0.086 A 
ATOM      2  C   UNL     1      -0.411  -4.868   4.342  0.00  0.00    +0.058 A 
ATOM      3  C   UNL     1       0.138  -5.285   5.549  0.00  0.00    +0.097 A 
ATOM      4  S   UNL     1       1.883  -5.322   5.192  0.00  0.00    -0.066 S 
ATOM      5  C   UNL     1       1.853  -4.832   3.587  0.00  0.00    +0.084 A 
ENDROOT
BRANCH   1   7
ATOM      6  N   UNL     1      -0.056  -2.869   1.722  0.00  0.00    -0.309 N 
ATOM      7  C   UNL     1       0.052  -4.185   1.991  0.00  0.00    +0.248 C 
ATOM      8  O   UNL     1      -0.223  -5.005   1.135  0.00  0.00    -0.270 OA
ATOM      9  H   UNL     1       0.163  -2.215   2.405  0.00  0.00    +0.149 HD
BRANCH   6  10
ATOM     10  C   UNL     1      -0.505  -2.425   0.400  0.00  0.00    +0.132 C 
BRANCH  10  11
ATOM     11  C   UNL     1      -0.539  -0.896   0.359  0.00  0.00    +0.178 C 
BRANCH  11  13
ATOM     12  C   UNL     1       0.868   1.041   0.474  0.00  0.00    +0.194 C 
ATOM     13  O   UNL     1       0.788  -0.386   0.499  0.00  0.00    -0.381 OA
ENDBRANCH  11  13
ENDBRANCH  10  11
ENDBRANCH   6  10
ENDBRANCH   1   7
BRANCH   3  14
ATOM     14  C   UNL     1      -0.522  -5.600   6.755  0.00  0.00    +0.257 C 
ATOM     15  O   UNL     1      -1.736  -5.519   6.825  0.00  0.00    -0.269 OA
ATOM     16  N   UNL     1       0.190  -5.990   7.831  0.00  0.00    -0.280 N 
ATOM     17  H   UNL     1       1.160  -5.974   7.802  0.00  0.00    +0.155 HD
BRANCH  16  18
ATOM     18  C   UNL     1      -0.469  -6.418   8.989  0.00  0.00    +0.054 A 
ATOM     19  C   UNL     1      -1.757  -6.930   8.907  0.00  0.00    +0.046 A 
ATOM     20  C   UNL     1      -2.405  -7.352  10.052  0.00  0.00    +0.061 A 
ATOM     21  C   UNL     1      -1.772  -7.263  11.281  0.00  0.00    +0.061 A 
ATOM     22  C   UNL     1      -0.489  -6.752  11.365  0.00  0.00    +0.043 A 
ATOM     23  C   UNL     1       0.166  -6.335  10.222  0.00  0.00    +0.064 A 
ATOM     24 CL   UNL     1       1.779  -5.701  10.328  0.00  0.00    -0.082 Cl
ATOM     25 CL   UNL     1      -2.590  -7.792  12.718  0.00  0.00    -0.082 Cl
ATOM     26 CL   UNL     1      -4.015  -7.993   9.951  0.00  0.00    -0.082 Cl
ENDBRANCH  16  18
ENDBRANCH   3  14
BRANCH   2  27
ATOM     27  N   UNL     1      -1.778  -4.701   4.171  0.00  0.00    -0.356 N 
ATOM     28  H   UNL     1      -2.127  -4.408   3.315  0.00  0.00    +0.142 HD
ATOM     29  H   UNL     1      -2.383  -4.876   4.908  0.00  0.00    +0.142 HD
ENDBRANCH   2  27
BRANCH   5  30
ATOM     30  N   UNL     1       2.921  -4.666   2.735  0.00  0.00    -0.308 N 
ATOM     31  H   UNL     1       2.768  -4.438   1.804  0.00  0.00    +0.153 HD
BRANCH  30  32
ATOM     32  C   UNL     1       4.226  -4.827   3.210  0.00  0.00    +0.032 A 
ATOM     33  C   UNL     1       4.503  -5.790   4.171  0.00  0.00    +0.024 A 
ATOM     34  C   UNL     1       5.793  -5.947   4.639  0.00  0.00    +0.022 A 
ATOM     35  C   UNL     1       6.809  -5.146   4.150  0.00  0.00    +0.041 A 
ATOM     36  C   UNL     1       6.537  -4.185   3.192  0.00  0.00    +0.022 A 
ATOM     37  C   UNL     1       5.250  -4.028   2.717  0.00  0.00    +0.024 A 
ATOM     38 CL   UNL     1       8.430  -5.346   4.740  0.00  0.00    -0.084 Cl
ENDBRANCH  30  32
ENDBRANCH   5  30
TORSDOF 9
