REMARK  Name = ZINC26179847
REMARK  10 active torsions:
REMARK  status: ('A' for Active; 'I' for Inactive)
REMARK    1  A    between atoms: C_1  and  C_2
REMARK    2  A    between atoms: C_2  and  C_4
REMARK    3  A    between atoms: C_2  and  N_15
REMARK    4  A    between atoms: C_7  and  N_10
REMARK    5  A    between atoms: N_15  and  C_16
REMARK    6  A    between atoms: N_19  and  C_20
REMARK    7  A    between atoms: C_22  and  C_28
REMARK    8  A    between atoms: C_22  and  C_29
REMARK    9  A    between atoms: C_24  and  C_26
REMARK   10  A    between atoms: C_24  and  C_27
REMARK                            x       y       z     vdW  Elec       q    Type
REMARK                         _______ _______ _______ _____ _____    ______ ____
ROOT
ATOM      1  N   UNL     1      -2.015  -0.306  -0.572  0.00  0.00    -0.282 N 
ATOM      2  C   UNL     1      -3.042   0.025   0.420  0.00  0.00    +0.134 C 
ATOM      3  C   UNL     1      -2.314  -1.116  -1.607  0.00  0.00    +0.303 C 
ATOM      4  O   UNL     1      -1.462  -1.391  -2.429  0.00  0.00    -0.253 OA
ATOM      5  N   UNL     1      -3.558  -1.621  -1.730  0.00  0.00    -0.296 N 
ATOM      6  H   UNL     1      -4.237  -1.402  -1.073  0.00  0.00    +0.151 HD
ENDROOT
BRANCH   5   7
ATOM      7  C   UNL     1      -3.883  -2.504  -2.857  0.00  0.00    +0.072 C 
ATOM      8  C   UNL     1      -4.306  -1.652  -4.056  0.00  0.00    +0.009 C 
ATOM      9  C   UNL     1      -4.660  -2.557  -5.235  0.00  0.00    -0.072 C 
ATOM     10  N   UNL     1      -5.659  -3.555  -4.880  0.00  0.00    +0.386 N 
ATOM     11  C   UNL     1      -5.466  -4.292  -3.641  0.00  0.00    -0.072 C 
ATOM     12  C   UNL     1      -5.056  -3.404  -2.471  0.00  0.00    +0.009 C 
ATOM     13  C   UNL     1      -4.457  -5.431  -3.810  0.00  0.00    -0.010 C 
ATOM     14  C   UNL     1      -6.821  -4.941  -3.271  0.00  0.00    -0.010 C 
ATOM     15  C   UNL     1      -3.396  -3.189  -5.815  0.00  0.00    -0.010 C 
ATOM     16  C   UNL     1      -5.270  -1.659  -6.336  0.00  0.00    -0.010 C 
ATOM     17  H   UNL     1      -6.572  -3.096  -4.842  0.00  0.00    -0.084 HD
ATOM     18  H   UNL     1      -5.728  -4.228  -5.647  0.00  0.00    -0.084 HD
ENDBRANCH   5   7
BRANCH   1  20
ATOM     19  C   UNL     1      -0.741   1.768  -0.342  0.00  0.00    +0.033 C 
ATOM     20  C   UNL     1      -0.664   0.243  -0.438  0.00  0.00    +0.104 C 
BRANCH  20  21
ATOM     21  C   UNL     1      -0.019  -0.307   0.808  0.00  0.00    -0.027 A 
ATOM     22  C   UNL     1      -0.355  -1.570   1.259  0.00  0.00    +0.007 A 
ATOM     23  C   UNL     1       0.234  -2.077   2.400  0.00  0.00    +0.028 A 
ATOM     24  C   UNL     1       1.165  -1.317   3.095  0.00  0.00    +0.067 A 
ATOM     25  C   UNL     1       1.501  -0.049   2.640  0.00  0.00    +0.028 A 
ATOM     26  C   UNL     1       0.912   0.450   1.495  0.00  0.00    +0.007 A 
BRANCH  24  27
ATOM     27  N   UNL     1       1.765  -1.829   4.254  0.00  0.00    -0.220 N 
ATOM     28  C   UNL     1       2.675  -1.212   5.033  0.00  0.00    +0.225 A 
ATOM     29  N   UNL     1       2.985  -2.021   6.014  0.00  0.00    -0.222 NA
ATOM     30  C   UNL     1       2.297  -3.157   5.897  0.00  0.00    +0.245 A 
ATOM     31  N   UNL     1       1.533  -3.085   4.839  0.00  0.00    -0.154 NA
ENDBRANCH  24  27
ENDBRANCH  20  21
ENDBRANCH   1  20
TORSDOF 4
