REMARK  Name = ZINC13047102
REMARK  10 active torsions:
REMARK  status: ('A' for Active; 'I' for Inactive)
REMARK    1  A    between atoms: C_1  and  C_2
REMARK    2  A    between atoms: C_5  and  C_9
REMARK    3  A    between atoms: C_9  and  N_10
REMARK    4  A    between atoms: C_11  and  C_13
REMARK    5  A    between atoms: C_13  and  S_14
REMARK    6  A    between atoms: S_14  and  C_15
REMARK    7  A    between atoms: C_19  and  C_29
REMARK    8  A    between atoms: N_25  and  C_26
REMARK    9  A    between atoms: C_26  and  C_27
REMARK   10  A    between atoms: C_27  and  O_28
REMARK                            x       y       z     vdW  Elec       q    Type
REMARK                         _______ _______ _______ _____ _____    ______ ____
ROOT
ATOM      1  C   UNL     1       1.091   2.051   0.003  0.00  0.00    +0.173 A 
ATOM      2  N   UNL     1      -0.016   1.350   0.009  0.00  0.00    -0.223 NA
ATOM      3  C   UNL     1       0.002  -0.004   0.002  0.00  0.00    +0.080 A 
ATOM      4  C   UNL     1      -1.180  -0.750   0.009  0.00  0.00    +0.043 A 
ATOM      5  C   UNL     1      -1.112  -2.137   0.000  0.00  0.00    +0.065 A 
ATOM      6  C   UNL     1       0.129  -2.788  -0.015  0.00  0.00    +0.016 A 
ATOM      7  C   UNL     1       1.290  -2.070  -0.022  0.00  0.00    +0.016 A 
ATOM      8  C   UNL     1       1.245  -0.676  -0.013  0.00  0.00    +0.065 A 
ATOM      9  C   UNL     1       2.472   0.137  -0.021  0.00  0.00    +0.262 A 
ATOM     10  O   UNL     1       3.572  -0.383  -0.035  0.00  0.00    -0.267 OA
ATOM     11  N   UNL     1       2.332   1.482  -0.012  0.00  0.00    -0.285 N 
ENDROOT
BRANCH   5  12
ATOM     12  C   UNL     1      -2.359  -2.934   0.007  0.00  0.00    +0.387 C 
ATOM     13  O   UNL     1      -3.437  -2.374   0.020  0.00  0.00    -0.241 OA
ATOM     14  O   UNL     1      -2.299  -4.279  -0.001  0.00  0.00    -0.241 OA
ENDBRANCH   5  12
BRANCH   1  15
ATOM     15  S   UNL     1       0.972   3.809   0.013  0.00  0.00    -0.078 S 
BRANCH  15  16
ATOM     16  C   UNL     1      -0.828   4.002   0.032  0.00  0.00    +0.173 C 
BRANCH  16  18
ATOM     17  N   UNL     1      -2.467   5.854   0.057  0.00  0.00    -0.311 N 
ATOM     18  C   UNL     1      -1.176   5.468   0.043  0.00  0.00    +0.224 C 
ATOM     19  O   UNL     1      -0.294   6.301   0.039  0.00  0.00    -0.275 OA
ATOM     20  H   UNL     1      -3.172   5.189   0.060  0.00  0.00    +0.149 HD
BRANCH  17  21
ATOM     21  C   UNL     1      -2.805   7.280   0.068  0.00  0.00    +0.139 C 
BRANCH  21  26
ATOM     22  C   UNL     1      -8.552   7.896   0.121  0.00  0.00    +0.047 C 
ATOM     23  C   UNL     1      -7.054   7.736   0.108  0.00  0.00    -0.015 A 
ATOM     24  C   UNL     1      -6.376   7.668  -1.095  0.00  0.00    +0.006 A 
ATOM     25  C   UNL     1      -5.001   7.526  -1.107  0.00  0.00    +0.005 A 
ATOM     26  C   UNL     1      -4.303   7.441   0.083  0.00  0.00    -0.028 A 
ATOM     27  C   UNL     1      -4.978   7.508   1.287  0.00  0.00    +0.043 A 
ATOM     28  C   UNL     1      -6.355   7.656   1.300  0.00  0.00    +0.127 A 
ATOM     29  F   UNL     1      -7.016   7.721   2.477  0.00  0.00    -0.205 F 
ENDBRANCH  21  26
ENDBRANCH  17  21
ENDBRANCH  16  18
ENDBRANCH  15  16
ENDBRANCH   1  15
BRANCH  11  30
ATOM     30  C   UNL     1       3.522   2.336  -0.019  0.00  0.00    +0.155 C 
BRANCH  30  31
ATOM     31  C   UNL     1       3.922   2.642  -1.464  0.00  0.00    +0.177 C 
BRANCH  31  32
ATOM     32  O   UNL     1       2.897   3.416  -2.089  0.00  0.00    -0.393 OA
ATOM     33  H   UNL     1       3.084   3.647  -3.009  0.00  0.00    +0.209 HD
ENDBRANCH  31  32
ENDBRANCH  30  31
ENDBRANCH  11  30
TORSDOF 9
