REMARK  Name = ZINC45850144
REMARK  10 active torsions:
REMARK  status: ('A' for Active; 'I' for Inactive)
REMARK    1  A    between atoms: C_1  and  C_2
REMARK    2  A    between atoms: C_2  and  C_3
REMARK    3  A    between atoms: C_3  and  C_4
REMARK    4  A    between atoms: C_8  and  S_10
REMARK    5  A    between atoms: S_10  and  C_11
REMARK    6  A    between atoms: C_11  and  C_13
REMARK    7  A    between atoms: C_11  and  C_14
REMARK    8  A    between atoms: N_19  and  C_20
REMARK    9  A    between atoms: C_23  and  C_27
REMARK   10  A    between atoms: C_25  and  C_26
REMARK                            x       y       z     vdW  Elec       q    Type
REMARK                         _______ _______ _______ _____ _____    ______ ____
ROOT
ATOM      1  C   UNL     1      -4.088  -4.140   3.394  0.00  0.00    +0.234 C 
ATOM      2  O   UNL     1      -4.112  -5.275   3.819  0.00  0.00    -0.274 OA
ATOM      3  N   UNL     1      -5.218  -3.406   3.366  0.00  0.00    -0.239 N 
ATOM      4  C   UNL     1      -6.375  -3.934   3.809  0.00  0.00    +0.310 C 
ATOM      5  O   UNL     1      -6.401  -5.072   4.235  0.00  0.00    -0.252 OA
ATOM      6  N   UNL     1      -7.505  -3.200   3.781  0.00  0.00    -0.269 N 
ATOM      7  H   UNL     1      -5.197  -2.498   3.026  0.00  0.00    +0.159 HD
ATOM      8  H   UNL     1      -7.471  -2.267   3.518  0.00  0.00    +0.156 HD
ENDROOT
BRANCH   6   9
ATOM      9  C   UNL     1      -8.728  -3.784   4.130  0.00  0.00    +0.038 A 
ATOM     10  C   UNL     1      -8.904  -5.156   4.007  0.00  0.00    +0.024 A 
ATOM     11  C   UNL     1     -10.112  -5.730   4.352  0.00  0.00    +0.005 A 
ATOM     12  C   UNL     1     -11.146  -4.939   4.820  0.00  0.00    -0.050 A 
ATOM     13  C   UNL     1     -10.974  -3.573   4.943  0.00  0.00    +0.008 A 
ATOM     14  C   UNL     1      -9.766  -2.994   4.606  0.00  0.00    -0.029 A 
ATOM     15  C   UNL     1      -9.577  -1.505   4.747  0.00  0.00    +0.045 C 
ATOM     16  C   UNL     1     -12.463  -5.568   5.196  0.00  0.00    +0.044 C 
ENDBRANCH   6   9
BRANCH   1  17
ATOM     17  C   UNL     1      -2.793  -3.549   2.898  0.00  0.00    +0.137 C 
ATOM     18  C   UNL     1      -2.130  -2.754   4.025  0.00  0.00    +0.029 C 
BRANCH  17  19
ATOM     19  S   UNL     1      -1.684  -4.883   2.367  0.00  0.00    -0.075 S 
BRANCH  19  24
ATOM     20  C   UNL     1       0.745  -2.043   1.166  0.00  0.00    +0.049 A 
ATOM     21  C   UNL     1       1.817  -2.711   0.648  0.00  0.00    +0.093 A 
ATOM     22  C   UNL     1       1.812  -4.117   0.660  0.00  0.00    +0.252 A 
ATOM     23  N   UNL     1       0.746  -4.758   1.184  0.00  0.00    -0.302 N 
ATOM     24  C   UNL     1      -0.296  -4.038   1.686  0.00  0.00    +0.170 A 
ATOM     25  N   UNL     1      -0.281  -2.719   1.676  0.00  0.00    -0.228 NA
ATOM     26  O   UNL     1       2.754  -4.745   0.206  0.00  0.00    -0.268 OA
ATOM     27  H   UNL     1       0.721  -5.727   1.202  0.00  0.00    +0.171 HD
BRANCH  20  28
ATOM     28  C   UNL     1       0.726  -0.536   1.165  0.00  0.00    +0.055 C 
BRANCH  28  30
ATOM     29  C   UNL     1      -0.041   1.494  -0.073  0.00  0.00    +0.004 C 
ATOM     30  C   UNL     1      -0.022  -0.036  -0.072  0.00  0.00    +0.003 C 
ENDBRANCH  28  30
ENDBRANCH  20  28
ENDBRANCH  19  24
ENDBRANCH  17  19
ENDBRANCH   1  17
TORSDOF 6
