REMARK  Name = ZINC21685303
REMARK  7 active torsions:
REMARK  status: ('A' for Active; 'I' for Inactive)
REMARK    1  A    between atoms: C_1  and  C_2
REMARK    2  A    between atoms: C_4  and  N_17
REMARK    3  A    between atoms: C_18  and  C_20
REMARK    4  A    between atoms: C_24  and  S_26
REMARK    5  A    between atoms: S_26  and  C_29
REMARK    6  A    between atoms: C_29  and  C_30
REMARK    7  A    between atoms: C_29  and  C_31
REMARK                            x       y       z     vdW  Elec       q    Type
REMARK                         _______ _______ _______ _____ _____    ______ ____
ROOT
ATOM      1  C   UNL     1       0.002  -0.004   0.002  0.00  0.00    +0.067 C 
ATOM      2  C   UNL     1      -0.018   1.503   0.010  0.00  0.00    +0.062 A 
ATOM      3  C   UNL     1       1.105   2.335   0.004  0.00  0.00    +0.068 A 
ATOM      4  C   UNL     1       0.671   3.624   0.015  0.00  0.00    +0.131 A 
ATOM      5  N   UNL     1      -0.692   3.595   0.028  0.00  0.00    -0.194 N 
ATOM      6  N   UNL     1      -1.091   2.252   0.019  0.00  0.00    -0.168 NA
ATOM      7  C   UNL     1      -1.535   4.700   0.042  0.00  0.00    +0.196 A 
ATOM      8  N   UNL     1      -2.846   4.735   0.054  0.00  0.00    -0.221 NA
ATOM      9  C   UNL     1      -3.543   5.892   0.067  0.00  0.00    +0.081 A 
ATOM     10  C   UNL     1      -4.947   6.066   0.081  0.00  0.00    +0.032 A 
ATOM     11  C   UNL     1      -5.497   7.320   0.093  0.00  0.00    +0.040 A 
ATOM     12  C   UNL     1      -4.704   8.461   0.091  0.00  0.00    +0.125 A 
ATOM     13  C   UNL     1      -3.326   8.327   0.077  0.00  0.00    +0.055 A 
ATOM     14  C   UNL     1      -2.767   7.073   0.065  0.00  0.00    +0.044 A 
ATOM     15  S   UNL     1      -1.109   6.436   0.054  0.00  0.00    -0.048 S 
ATOM     16  F   UNL     1      -5.271   9.687   0.103  0.00  0.00    -0.205 F 
ENDROOT
BRANCH   4  17
ATOM     17  N   UNL     1       1.471   4.764   0.014  0.00  0.00    -0.266 N 
ATOM     18  C   UNL     1       2.813   4.645   0.001  0.00  0.00    +0.249 C 
ATOM     19  O   UNL     1       3.326   3.543  -0.011  0.00  0.00    -0.270 OA
ATOM     20  H   UNL     1       1.007   5.762   0.024  0.00  0.00    +0.157 HD
BRANCH  18  21
ATOM     21  C   UNL     1       3.663   5.855  -0.001  0.00  0.00    +0.039 A 
ATOM     22  C   UNL     1       3.078   7.122   0.012  0.00  0.00    +0.013 A 
ATOM     23  C   UNL     1       3.876   8.247   0.011  0.00  0.00    +0.003 A 
ATOM     24  C   UNL     1       5.254   8.121  -0.002  0.00  0.00    +0.027 A 
ATOM     25  C   UNL     1       5.840   6.868  -0.014  0.00  0.00    +0.089 A 
ATOM     26  C   UNL     1       5.053   5.735  -0.009  0.00  0.00    +0.040 A 
BRANCH  25  27
ATOM     27  S   UNL     1       7.596   6.719  -0.031  0.00  0.00    -0.001 S 
ATOM     28  O   UNL     1       7.847   5.462  -0.643  0.00  0.00    -0.169 OA
ATOM     29  O   UNL     1       8.056   7.922  -0.631  0.00  0.00    -0.169 OA
BRANCH  27  30
ATOM     30  C   UNL     1       8.076   6.670   1.718  0.00  0.00    +0.130 C 
ATOM     31  C   UNL     1       7.412   5.469   2.395  0.00  0.00    +0.032 C 
ATOM     32  C   UNL     1       9.597   6.540   1.826  0.00  0.00    +0.032 C 
ENDBRANCH  27  30
ENDBRANCH  25  27
ENDBRANCH  18  21
ENDBRANCH   4  17
TORSDOF 4
