REMARK  Name = ZINC51296296
REMARK  2 active torsions:
REMARK  status: ('A' for Active; 'I' for Inactive)
REMARK    1  A    between atoms: C_6  and  N_7
REMARK    2  A    between atoms: C_12  and  C_14
REMARK                            x       y       z     vdW  Elec       q    Type
REMARK                         _______ _______ _______ _____ _____    ______ ____
ROOT
ATOM      1  C   UNL     1      -0.024   1.279  -0.596  0.00  0.00    +0.023 A 
ATOM      2  C   UNL     1       1.102   1.789  -1.209  0.00  0.00    +0.007 A 
ATOM      3  C   UNL     1       2.288   1.073  -1.204  0.00  0.00    -0.026 A 
ATOM      4  C   UNL     1       2.342  -0.162  -0.576  0.00  0.00    +0.041 A 
ATOM      5  C   UNL     1       1.211  -0.679   0.042  0.00  0.00    +0.046 A 
ATOM      6  C   UNL     1       0.025   0.041   0.032  0.00  0.00    +0.026 A 
ATOM      7  N   UNL     1       3.531  -0.902  -0.549  0.00  0.00    -0.267 N 
ATOM      8  C   UNL     1       4.632  -0.510  -1.439  0.00  0.00    +0.114 C 
ATOM      9  C   UNL     1       4.776   1.016  -1.362  0.00  0.00    +0.024 C 
ATOM     10  C   UNL     1       3.494   1.660  -1.890  0.00  0.00    +0.038 C 
ATOM     11  C   UNL     1       3.663  -1.957   0.280  0.00  0.00    +0.252 C 
ATOM     12  O   UNL     1       2.712  -2.337   0.936  0.00  0.00    -0.270 OA
ENDROOT
BRANCH  11  13
ATOM     13  C   UNL     1       4.962  -2.650   0.392  0.00  0.00    +0.056 A 
ATOM     14  C   UNL     1       6.153  -1.924   0.317  0.00  0.00    +0.017 A 
ATOM     15  C   UNL     1       7.362  -2.576   0.422  0.00  0.00    +0.039 A 
ATOM     16  C   UNL     1       7.399  -3.951   0.602  0.00  0.00    +0.125 A 
ATOM     17  C   UNL     1       6.222  -4.677   0.677  0.00  0.00    +0.059 A 
ATOM     18  C   UNL     1       5.004  -4.035   0.579  0.00  0.00    +0.056 A 
ATOM     19 CL   UNL     1       3.529  -4.944   0.681  0.00  0.00    -0.083 Cl
ATOM     20  F   UNL     1       8.588  -4.584   0.704  0.00  0.00    -0.205 F 
ENDBRANCH  11  13
BRANCH   6  21
ATOM     21  N   UNL     1      -1.115  -0.476   0.652  0.00  0.00    -0.358 N 
ATOM     22  H   UNL     1      -1.918   0.062   0.717  0.00  0.00    +0.142 HD
ATOM     23  H   UNL     1      -1.102  -1.375   1.018  0.00  0.00    +0.142 HD
ENDBRANCH   6  21
TORSDOF 2
