REMARK  Name = ZINC01278792
REMARK  11 active torsions:
REMARK  status: ('A' for Active; 'I' for Inactive)
REMARK    1  A    between atoms: C_1  and  C_2
REMARK    2  A    between atoms: N_4  and  C_5
REMARK    3  A    between atoms: C_8  and  N_11
REMARK    4  A    between atoms: C_12  and  C_14
REMARK    5  A    between atoms: C_14  and  S_15
REMARK    6  A    between atoms: S_15  and  C_16
REMARK    7  A    between atoms: C_17  and  C_42
REMARK    8  A    between atoms: C_18  and  C_28
REMARK    9  A    between atoms: C_31  and  O_34
REMARK   10  A    between atoms: O_34  and  C_35
REMARK   11  A    between atoms: C_35  and  C_36
REMARK                            x       y       z     vdW  Elec       q    Type
REMARK                         _______ _______ _______ _____ _____    ______ ____
ROOT
ATOM      1  C   UNL     1      -3.002 -10.989  -0.249  0.00  0.00    +0.112 C 
ATOM      2  C   UNL     1      -4.069 -11.861  -0.383  0.00  0.00    +0.073 C 
ATOM      3  C   UNL     1      -3.751 -13.345  -0.436  0.00  0.00    +0.097 C 
ATOM      4  C   UNL     1      -2.282 -13.710  -0.337  0.00  0.00    +0.029 C 
ATOM      5  C   UNL     1      -1.908 -14.999  -0.378  0.00  0.00    +0.162 C 
ATOM      6  C   UNL     1      -0.459 -15.396  -0.281  0.00  0.00    +0.080 C 
ATOM      7  C   UNL     1       0.412 -14.277  -0.858  0.00  0.00    +0.014 C 
ATOM      8  C   UNL     1       0.121 -12.980  -0.098  0.00  0.00    +0.056 C 
ATOM      9  C   UNL     1      -1.352 -12.663  -0.203  0.00  0.00    +0.050 C 
ATOM     10  N   UNL     1      -1.739 -11.413  -0.173  0.00  0.00    -0.244 NA
ATOM     11  O   UNL     1      -2.848 -15.956  -0.510  0.00  0.00    -0.292 OA
ENDROOT
BRANCH   3  12
ATOM     12  C   UNL     1      -4.479 -14.023   0.695  0.00  0.00    -0.034 A 
ATOM     13  C   UNL     1      -4.225 -13.649   2.002  0.00  0.00    +0.008 A 
ATOM     14  C   UNL     1      -4.891 -14.270   3.041  0.00  0.00    +0.046 A 
ATOM     15  C   UNL     1      -5.816 -15.269   2.773  0.00  0.00    +0.121 A 
ATOM     16  C   UNL     1      -6.069 -15.642   1.461  0.00  0.00    +0.046 A 
ATOM     17  C   UNL     1      -5.404 -15.014   0.425  0.00  0.00    +0.008 A 
BRANCH  15  18
ATOM     18  O   UNL     1      -6.471 -15.881   3.793  0.00  0.00    -0.487 OA
BRANCH  18  19
ATOM     19  C   UNL     1      -7.409 -16.901   3.443  0.00  0.00    +0.264 C 
BRANCH  19  20
ATOM     20  C   UNL     1      -8.033 -17.461   4.694  0.00  0.00    -0.010 A 
ATOM     21  C   UNL     1      -7.448 -18.536   5.337  0.00  0.00    +0.007 A 
ATOM     22  C   UNL     1      -8.021 -19.050   6.486  0.00  0.00    +0.000 A 
ATOM     23  C   UNL     1      -9.178 -18.489   6.991  0.00  0.00    +0.000 A 
ATOM     24  C   UNL     1      -9.763 -17.414   6.349  0.00  0.00    +0.000 A 
ATOM     25  C   UNL     1      -9.188 -16.897   5.203  0.00  0.00    +0.007 A 
ENDBRANCH  19  20
ENDBRANCH  18  19
ENDBRANCH  15  18
ENDBRANCH   3  12
BRANCH   2  26
ATOM     26  C   UNL     1      -5.416 -11.383  -0.468  0.00  0.00    +0.098 C 
ATOM     27  N   UNL     1      -6.485 -11.005  -0.534  0.00  0.00    -0.191 NA
ENDBRANCH   2  26
BRANCH   1  28
ATOM     28  S   UNL     1      -3.323  -9.257  -0.183  0.00  0.00    -0.096 S 
BRANCH  28  29
ATOM     29  C   UNL     1      -1.678  -8.512  -0.017  0.00  0.00    +0.172 C 
BRANCH  29  31
ATOM     30  N   UNL     1      -0.710  -6.244   0.177  0.00  0.00    -0.285 N 
ATOM     31  C   UNL     1      -1.810  -7.012   0.052  0.00  0.00    +0.227 C 
ATOM     32  O   UNL     1      -2.906  -6.497  -0.006  0.00  0.00    -0.275 OA
ATOM     33  H   UNL     1       0.160  -6.657   0.291  0.00  0.00    +0.155 HD
BRANCH  30  37
ATOM     34  C   UNL     1      -1.047  -2.089   0.076  0.00  0.00    +0.033 A 
ATOM     35  C   UNL     1       0.068  -2.709  -0.474  0.00  0.00    +0.025 A 
ATOM     36  C   UNL     1       0.179  -4.084  -0.440  0.00  0.00    +0.025 A 
ATOM     37  C   UNL     1      -0.823  -4.848   0.143  0.00  0.00    +0.034 A 
ATOM     38  C   UNL     1      -1.938  -4.228   0.693  0.00  0.00    +0.025 A 
ATOM     39  C   UNL     1      -2.047  -2.853   0.664  0.00  0.00    +0.025 A 
BRANCH  34  43
ATOM     40  C   UNL     1      -1.766   1.468   1.081  0.00  0.00    +0.109 C 
ATOM     41  C   UNL     1      -1.737  -0.038   1.069  0.00  0.00    +0.214 C 
ATOM     42  O   UNL     1      -2.232  -0.662   1.984  0.00  0.00    -0.276 OA
ATOM     43  N   UNL     1      -1.161  -0.693   0.042  0.00  0.00    -0.286 N 
ATOM     44  H   UNL     1      -0.824  -0.198  -0.722  0.00  0.00    +0.155 HD
ENDBRANCH  34  43
ENDBRANCH  30  37
ENDBRANCH  29  31
ENDBRANCH  28  29
ENDBRANCH   1  28
TORSDOF 10
