REMARK  Name = ZINC13070283
REMARK  13 active torsions:
REMARK  status: ('A' for Active; 'I' for Inactive)
REMARK    1  A    between atoms: C_1  and  C_2
REMARK    2  A    between atoms: C_7  and  C_8
REMARK    3  A    between atoms: C_8  and  C_10
REMARK    4  A    between atoms: C_8  and  N_11
REMARK    5  A    between atoms: C_12  and  C_14
REMARK    6  A    between atoms: C_14  and  N_59
REMARK    7  A    between atoms: C_15  and  N_59
REMARK    8  A    between atoms: C_16  and  C_17
REMARK    9  A    between atoms: C_16  and  N_59
REMARK   10  A    between atoms: N_19  and  C_20
REMARK   11  A    between atoms: C_21  and  C_28
REMARK   12  A    between atoms: C_23  and  C_27
REMARK   13  A    between atoms: C_25  and  C_26
REMARK                            x       y       z     vdW  Elec       q    Type
REMARK                         _______ _______ _______ _____ _____    ______ ____
ROOT
ATOM      1  C   UNL     1       2.755  -5.236  -2.945  0.00  0.00    -0.095 C 
ATOM      2  N   UNL     1       3.854  -4.646  -3.737  0.00  0.00    +0.389 N 
ATOM      3  H   UNL     1       3.504  -4.417  -4.675  0.00  0.00    -0.081 HD
ENDROOT
BRANCH   2   4
ATOM      4  C   UNL     1       4.335  -3.408  -3.089  0.00  0.00    +0.019 C 
BRANCH   4   6
ATOM      5  N   UNL     1       3.462  -1.133  -2.663  0.00  0.00    -0.310 N 
ATOM      6  C   UNL     1       3.252  -2.363  -3.172  0.00  0.00    +0.197 C 
ATOM      7  O   UNL     1       2.192  -2.629  -3.698  0.00  0.00    -0.278 OA
ATOM      8  H   UNL     1       4.310  -0.920  -2.242  0.00  0.00    +0.149 HD
BRANCH   5   9
ATOM      9  C   UNL     1       2.409  -0.117  -2.744  0.00  0.00    +0.100 C 
ATOM     10  C   UNL     1       1.486  -0.241  -1.530  0.00  0.00    +0.033 C 
BRANCH   9  17
ATOM     11  C   UNL     1       1.034   2.082  -4.016  0.00  0.00    +0.044 C 
ATOM     12  C   UNL     1       2.377   2.306  -3.370  0.00  0.00    -0.046 A 
ATOM     13  C   UNL     1       2.950   3.564  -3.385  0.00  0.00    +0.004 A 
ATOM     14  C   UNL     1       4.181   3.769  -2.792  0.00  0.00    +0.000 A 
ATOM     15  C   UNL     1       4.840   2.717  -2.184  0.00  0.00    +0.000 A 
ATOM     16  C   UNL     1       4.267   1.459  -2.169  0.00  0.00    +0.006 A 
ATOM     17  C   UNL     1       3.035   1.254  -2.761  0.00  0.00    -0.025 A 
ENDBRANCH   9  17
ENDBRANCH   5   9
ENDBRANCH   4   6
ENDBRANCH   2   4
BRANCH   2  18
ATOM     18  C   UNL     1       4.963  -5.615  -3.862  0.00  0.00    +0.019 C 
BRANCH  18  19
ATOM     19  C   UNL     1       4.506  -6.769  -4.716  0.00  0.00    +0.201 C 
ATOM     20  O   UNL     1       3.376  -6.788  -5.156  0.00  0.00    -0.278 OA
ATOM     21  N   UNL     1       5.354  -7.780  -4.992  0.00  0.00    -0.287 N 
ATOM     22  H   UNL     1       6.229  -7.806  -4.575  0.00  0.00    +0.155 HD
BRANCH  21  23
ATOM     23  C   UNL     1       4.970  -8.793  -5.879  0.00  0.00    +0.039 A 
ATOM     24  C   UNL     1       3.817  -9.527  -5.639  0.00  0.00    -0.029 A 
ATOM     25  C   UNL     1       3.439 -10.523  -6.519  0.00  0.00    +0.008 A 
ATOM     26  C   UNL     1       4.213 -10.795  -7.632  0.00  0.00    -0.050 A 
ATOM     27  C   UNL     1       5.365 -10.068  -7.870  0.00  0.00    +0.008 A 
ATOM     28  C   UNL     1       5.746  -9.068  -6.997  0.00  0.00    -0.029 A 
ATOM     29  C   UNL     1       7.002  -8.277  -7.258  0.00  0.00    +0.045 C 
ATOM     30  C   UNL     1       3.801 -11.885  -8.587  0.00  0.00    +0.044 C 
ATOM     31  C   UNL     1       2.975  -9.235  -4.424  0.00  0.00    +0.045 C 
ENDBRANCH  21  23
ENDBRANCH  18  19
ENDBRANCH   2  18
TORSDOF 7
