REMARK  Name = ZINC35889559
REMARK  7 active torsions:
REMARK  status: ('A' for Active; 'I' for Inactive)
REMARK    1  A    between atoms: C_1  and  C_2
REMARK    2  A    between atoms: C_2  and  C_3
REMARK    3  A    between atoms: C_4  and  C_37
REMARK    4  A    between atoms: C_6  and  C_27
REMARK    5  A    between atoms: C_8  and  N_9
REMARK    6  A    between atoms: C_15  and  C_17
REMARK    7  A    between atoms: C_31  and  C_33
REMARK                            x       y       z     vdW  Elec       q    Type
REMARK                         _______ _______ _______ _____ _____    ______ ____
ROOT
ATOM      1  C   UNL     1       1.878   0.060  -2.223  0.00  0.00    +0.013 A 
ATOM      2  C   UNL     1       1.050  -0.237  -3.289  0.00  0.00    +0.047 A 
ATOM      3  N   UNL     1       0.559  -1.461  -3.407  0.00  0.00    -0.232 NA
ATOM      4  C   UNL     1       0.851  -2.401  -2.518  0.00  0.00    +0.162 A 
ATOM      5  N   UNL     1       1.641  -2.156  -1.482  0.00  0.00    -0.212 NA
ATOM      6  C   UNL     1       2.172  -0.951  -1.306  0.00  0.00    +0.129 A 
ATOM      7  C   UNL     1       0.708   0.821  -4.307  0.00  0.00    +0.066 C 
ENDROOT
BRANCH   6   8
ATOM      8  N   UNL     1       3.002  -0.700  -0.225  0.00  0.00    -0.312 N 
ATOM      9  C   UNL     1       2.438  -0.333   1.081  0.00  0.00    +0.125 C 
ATOM     10  C   UNL     1       2.968  -1.312   2.136  0.00  0.00    +0.126 C 
ATOM     11  N   UNL     1       4.428  -1.408   1.997  0.00  0.00    -0.298 N 
ATOM     12  C   UNL     1       4.991  -1.776   0.691  0.00  0.00    +0.126 C 
ATOM     13  C   UNL     1       4.462  -0.802  -0.363  0.00  0.00    +0.125 C 
ATOM     14  C   UNL     1       5.235  -1.164   3.049  0.00  0.00    +0.222 C 
ATOM     15  O   UNL     1       4.757  -0.951   4.143  0.00  0.00    -0.275 OA
BRANCH  14  16
ATOM     16  C   UNL     1       6.730  -1.154   2.864  0.00  0.00    +0.048 C 
ATOM     17  C   UNL     1       7.197  -2.540   2.413  0.00  0.00    +0.019 C 
ATOM     18  C   UNL     1       8.715  -2.530   2.225  0.00  0.00    -0.009 C 
ATOM     19  C   UNL     1       9.390  -2.172   3.551  0.00  0.00    +0.007 C 
ATOM     20  C   UNL     1       8.924  -0.786   4.002  0.00  0.00    -0.009 C 
ATOM     21  C   UNL     1       7.405  -0.796   4.189  0.00  0.00    +0.019 C 
ATOM     22  C   UNL     1       9.300   0.250   2.941  0.00  0.00    +0.007 C 
ATOM     23  C   UNL     1       8.625  -0.109   1.616  0.00  0.00    -0.009 C 
ATOM     24  C   UNL     1       9.092  -1.494   1.164  0.00  0.00    +0.007 C 
ATOM     25  C   UNL     1       7.107  -0.118   1.803  0.00  0.00    +0.019 C 
ENDBRANCH  14  16
ENDBRANCH   6   8
BRANCH   4  26
ATOM     26  C   UNL     1       0.280  -3.759  -2.687  0.00  0.00    +0.020 A 
ATOM     27  C   UNL     1       0.570  -4.760  -1.761  0.00  0.00    +0.011 A 
ATOM     28  C   UNL     1       0.036  -6.022  -1.923  0.00  0.00    +0.001 A 
ATOM     29  C   UNL     1      -0.786  -6.295  -3.002  0.00  0.00    +0.012 A 
ATOM     30  C   UNL     1      -1.077  -5.305  -3.924  0.00  0.00    +0.055 A 
ATOM     31  C   UNL     1      -0.553  -4.038  -3.768  0.00  0.00    +0.024 A 
BRANCH  30  32
ATOM     32  C   UNL     1      -1.973  -5.610  -5.097  0.00  0.00    +0.417 C 
ATOM     33  F   UNL     1      -2.381  -6.947  -5.037  0.00  0.00    -0.166 F 
ATOM     34  F   UNL     1      -3.096  -4.777  -5.055  0.00  0.00    -0.166 F 
ATOM     35  F   UNL     1      -1.272  -5.389  -6.288  0.00  0.00    -0.166 F 
ENDBRANCH  30  32
ENDBRANCH   4  26
BRANCH   1  37
ATOM     36  C   UNL     1       3.842   1.496  -2.700  0.00  0.00    +0.009 C 
ATOM     37  C   UNL     1       2.455   1.442  -2.058  0.00  0.00    +0.037 C 
ENDBRANCH   1  37
TORSDOF 5
