REMARK  Name = ZINC13424741
REMARK  12 active torsions:
REMARK  status: ('A' for Active; 'I' for Inactive)
REMARK    1  A    between atoms: C_3  and  O_22
REMARK    2  A    between atoms: C_4  and  O_21
REMARK    3  A    between atoms: C_6  and  C_7
REMARK    4  A    between atoms: C_8  and  O_20
REMARK    5  A    between atoms: C_12  and  O_19
REMARK    6  A    between atoms: C_14  and  O_18
REMARK    7  A    between atoms: O_22  and  C_23
REMARK    8  A    between atoms: C_25  and  O_38
REMARK    9  A    between atoms: C_27  and  O_37
REMARK   10  A    between atoms: C_29  and  O_36
REMARK   11  A    between atoms: C_31  and  C_34
REMARK   12  A    between atoms: C_34  and  O_35
REMARK                            x       y       z     vdW  Elec       q    Type
REMARK                         _______ _______ _______ _____ _____    ______ ____
ROOT
ATOM      1  C   UNL     1       3.352   2.614   6.031  0.00  0.00    +0.015 A 
ATOM      2  C   UNL     1       4.053   2.928   7.176  0.00  0.00    +0.050 A 
ATOM      3  C   UNL     1       5.350   3.412   7.088  0.00  0.00    +0.165 A 
ATOM      4  C   UNL     1       5.953   3.579   5.842  0.00  0.00    +0.159 A 
ATOM      5  C   UNL     1       5.259   3.261   4.691  0.00  0.00    +0.060 A 
ATOM      6  C   UNL     1       3.952   2.773   4.779  0.00  0.00    +0.025 A 
ENDROOT
BRANCH   6   7
ATOM      7  C   UNL     1       3.206   2.433   3.554  0.00  0.00    +0.181 A 
ATOM      8  C   UNL     1       2.561   1.234   3.489  0.00  0.00    +0.208 A 
ATOM      9  C   UNL     1       1.839   0.892   2.317  0.00  0.00    +0.238 A 
ATOM     10  O   UNL     1       1.250  -0.173   2.223  0.00  0.00    -0.283 OA
ATOM     11  C   UNL     1       1.828   1.872   1.218  0.00  0.00    +0.109 A 
ATOM     12  C   UNL     1       1.139   1.617   0.025  0.00  0.00    +0.135 A 
ATOM     13  C   UNL     1       1.148   2.565  -0.981  0.00  0.00    +0.091 A 
ATOM     14  C   UNL     1       1.839   3.760  -0.810  0.00  0.00    +0.124 A 
ATOM     15  C   UNL     1       2.527   4.016   0.366  0.00  0.00    +0.092 A 
ATOM     16  C   UNL     1       2.530   3.078   1.387  0.00  0.00    +0.147 A 
ATOM     17  O   UNL     1       3.195   3.313   2.537  0.00  0.00    -0.451 OA
BRANCH  14  18
ATOM     18  O   UNL     1       1.841   4.684  -1.805  0.00  0.00    -0.507 OA
ATOM     19  H   UNL     1       1.116   5.322  -1.750  0.00  0.00    +0.292 HD
ENDBRANCH  14  18
BRANCH  12  20
ATOM     20  O   UNL     1       0.464   0.452  -0.140  0.00  0.00    -0.506 OA
ATOM     21  H   UNL     1       0.994  -0.257  -0.531  0.00  0.00    +0.292 HD
ENDBRANCH  12  20
BRANCH   8  22
ATOM     22  O   UNL     1       2.611   0.371   4.540  0.00  0.00    -0.501 OA
ATOM     23  H   UNL     1       3.351  -0.250   4.505  0.00  0.00    +0.292 HD
ENDBRANCH   8  22
ENDBRANCH   6   7
BRANCH   4  24
ATOM     24  O   UNL     1       7.225   4.054   5.761  0.00  0.00    -0.503 OA
ATOM     25  H   UNL     1       7.281   5.017   5.697  0.00  0.00    +0.292 HD
ENDBRANCH   4  24
BRANCH   3  26
ATOM     26  O   UNL     1       6.035   3.724   8.220  0.00  0.00    -0.457 OA
BRANCH  26  27
ATOM     27  C   UNL     1       5.358   3.529   9.463  0.00  0.00    +0.339 C 
ATOM     28  C   UNL     1       6.320   3.813  10.619  0.00  0.00    +0.214 C 
ATOM     29  C   UNL     1       5.571   3.661  11.946  0.00  0.00    +0.180 C 
ATOM     30  C   UNL     1       4.363   4.603  11.949  0.00  0.00    +0.177 C 
ATOM     31  C   UNL     1       3.476   4.288  10.742  0.00  0.00    +0.179 C 
ATOM     32  O   UNL     1       4.243   4.419   9.543  0.00  0.00    -0.331 OA
BRANCH  30  33
ATOM     33  O   UNL     1       3.615   4.417  13.153  0.00  0.00    -0.386 OA
ATOM     34  H   UNL     1       4.116   4.600  13.959  0.00  0.00    +0.210 HD
ENDBRANCH  30  33
BRANCH  29  35
ATOM     35  O   UNL     1       5.124   2.311  12.090  0.00  0.00    -0.386 OA
ATOM     36  H   UNL     1       5.838   1.659  12.096  0.00  0.00    +0.210 HD
ENDBRANCH  29  35
BRANCH  28  37
ATOM     37  O   UNL     1       6.822   5.146  10.505  0.00  0.00    -0.383 OA
ATOM     38  H   UNL     1       7.305   5.316   9.684  0.00  0.00    +0.210 HD
ENDBRANCH  28  37
BRANCH  31  39
ATOM     39  C   UNL     1       2.299   5.265  10.704  0.00  0.00    +0.190 C 
BRANCH  39  40
ATOM     40  O   UNL     1       1.411   4.900   9.646  0.00  0.00    -0.392 OA
ATOM     41  H   UNL     1       0.640   5.477   9.563  0.00  0.00    +0.210 HD
ENDBRANCH  39  40
ENDBRANCH  31  39
ENDBRANCH  26  27
ENDBRANCH   3  26
TORSDOF 12
