REMARK  Name = ZINC39304270
REMARK  6 active torsions:
REMARK  status: ('A' for Active; 'I' for Inactive)
REMARK    1  A    between atoms: C_1  and  C_2
REMARK    2  A    between atoms: C_6  and  N_8
REMARK    3  A    between atoms: C_9  and  C_11
REMARK    4  A    between atoms: C_11  and  N_12
REMARK    5  A    between atoms: C_15  and  C_18
REMARK    6  A    between atoms: C_15  and  O_25
REMARK                            x       y       z     vdW  Elec       q    Type
REMARK                         _______ _______ _______ _____ _____    ______ ____
ROOT
ATOM      1  N   UNL     1       0.369  -1.953   5.978  0.00  0.00    +0.386 N 
ATOM      2  C   UNL     1       1.603  -1.168   5.856  0.00  0.00    -0.075 C 
ATOM      3  C   UNL     1       1.663  -0.127   6.976  0.00  0.00    +0.021 C 
ATOM      4  C   UNL     1       1.642  -0.841   8.331  0.00  0.00    +0.088 C 
ATOM      5  C   UNL     1       0.387  -1.715   8.417  0.00  0.00    +0.021 C 
ATOM      6  C   UNL     1       0.375  -2.697   7.244  0.00  0.00    -0.075 C 
ATOM      7  H   UNL     1      -0.426  -1.331   5.958  0.00  0.00    -0.081 HD
ENDROOT
BRANCH   4   8
ATOM      8  C   UNL     1       1.621   0.181   9.439  0.00  0.00    -0.016 A 
ATOM      9  C   UNL     1       1.019   1.408   9.236  0.00  0.00    +0.007 A 
ATOM     10  C   UNL     1       0.999   2.345  10.252  0.00  0.00    +0.015 A 
ATOM     11  C   UNL     1       1.583   2.054  11.472  0.00  0.00    +0.018 A 
ATOM     12  C   UNL     1       2.186   0.826  11.674  0.00  0.00    +0.015 A 
ATOM     13  C   UNL     1       2.200  -0.112  10.659  0.00  0.00    +0.007 A 
ATOM     14 BR   UNL     1       1.557   3.336  12.862  0.00  0.00    -0.050 Br
ENDBRANCH   4   8
BRANCH   4  15
ATOM     15  O   UNL     1       2.805  -1.661   8.457  0.00  0.00    -0.384 OA
ATOM     16  H   UNL     1       2.857  -2.144   9.293  0.00  0.00    +0.211 HD
ENDBRANCH   4  15
BRANCH   1  17
ATOM     17  C   UNL     1       0.279  -2.897   4.857  0.00  0.00    +0.019 C 
BRANCH  17  19
ATOM     18  N   UNL     1       0.050  -2.796   2.396  0.00  0.00    -0.285 N 
ATOM     19  C   UNL     1       0.149  -2.133   3.565  0.00  0.00    +0.201 C 
ATOM     20  O   UNL     1       0.134  -0.920   3.577  0.00  0.00    -0.278 OA
ATOM     21  H   UNL     1      -0.002  -3.765   2.391  0.00  0.00    +0.155 HD
BRANCH  18  27
ATOM     22  C   UNL     1      -1.307   1.190  -0.143  0.00  0.00    +0.044 C 
ATOM     23  C   UNL     1      -0.627  -0.153  -0.071  0.00  0.00    -0.049 A 
ATOM     24  C   UNL     1      -0.029  -0.686  -1.198  0.00  0.00    +0.006 A 
ATOM     25  C   UNL     1       0.596  -1.918  -1.137  0.00  0.00    +0.040 A 
ATOM     26  C   UNL     1       0.624  -2.621   0.053  0.00  0.00    +0.144 A 
ATOM     27  C   UNL     1       0.024  -2.087   1.188  0.00  0.00    +0.069 A 
ATOM     28  C   UNL     1      -0.597  -0.848   1.123  0.00  0.00    +0.029 A 
ATOM     29  F   UNL     1       1.234  -3.825   0.114  0.00  0.00    -0.204 F 
ENDBRANCH  18  27
ENDBRANCH  17  19
ENDBRANCH   1  17
TORSDOF 5
