REMARK  Name = ZINC16309620
REMARK  2 active torsions:
REMARK  status: ('A' for Active; 'I' for Inactive)
REMARK    1  A    between atoms: C_4  and  N_7
REMARK    2  A    between atoms: C_9  and  C_10
REMARK                            x       y       z     vdW  Elec       q    Type
REMARK                         _______ _______ _______ _____ _____    ______ ____
ROOT
ATOM      1  N   UNL     1       3.559  -0.731  -0.555  0.00  0.00    -0.224 N 
ATOM      2  C   UNL     1       3.479  -2.084  -0.526  0.00  0.00    +0.102 C 
ATOM      3  C   UNL     1       2.396  -2.687   0.160  0.00  0.00    +0.053 C 
ATOM      4  N   UNL     1       4.386  -2.877  -1.124  0.00  0.00    -0.302 N 
ATOM      5  C   UNL     1       5.460  -2.333  -1.805  0.00  0.00    +0.044 A 
ATOM      6  C   UNL     1       6.406  -3.136  -2.428  0.00  0.00    +0.024 A 
ATOM      7  C   UNL     1       7.463  -2.557  -3.098  0.00  0.00    +0.002 A 
ATOM      8  C   UNL     1       7.591  -1.177  -3.158  0.00  0.00    +0.001 A 
ATOM      9  C   UNL     1       6.663  -0.361  -2.546  0.00  0.00    +0.015 A 
ATOM     10  C   UNL     1       5.590  -0.933  -1.865  0.00  0.00    +0.059 A 
ATOM     11  C   UNL     1       4.568  -0.106  -1.200  0.00  0.00    +0.258 C 
ATOM     12  O   UNL     1       4.633   1.108  -1.228  0.00  0.00    -0.269 OA
ATOM     13  H   UNL     1       4.287  -3.840  -1.076  0.00  0.00    +0.153 HD
ENDROOT
BRANCH   3  14
ATOM     14  C   UNL     1       2.378  -4.034   0.354  0.00  0.00    +0.049 C 
ATOM     15  C   UNL     1       3.528  -4.934   0.578  0.00  0.00    +0.009 A 
ATOM     16  C   UNL     1       4.901  -4.735   0.660  0.00  0.00    +0.025 A 
ATOM     17  C   UNL     1       5.737  -5.814   0.884  0.00  0.00    +0.019 A 
ATOM     18  C   UNL     1       5.210  -7.087   1.027  0.00  0.00    +0.017 A 
ATOM     19  C   UNL     1       3.848  -7.301   0.947  0.00  0.00    +0.025 A 
ATOM     20  C   UNL     1       2.982  -6.228   0.722  0.00  0.00    +0.042 A 
ATOM     21  N   UNL     1       1.628  -6.168   0.604  0.00  0.00    -0.281 N 
ATOM     22  C   UNL     1       1.191  -4.941   0.397  0.00  0.00    +0.249 C 
ATOM     23  O   UNL     1       0.025  -4.606   0.261  0.00  0.00    -0.270 OA
ATOM     24 BR   UNL     1       7.607  -5.550   0.997  0.00  0.00    -0.050 Br
ATOM     25  H   UNL     1       1.047  -6.942   0.670  0.00  0.00    +0.155 HD
ENDBRANCH   3  14
BRANCH   1  29
ATOM     26  C   UNL     1       0.637   1.535   1.364  0.00  0.00    +0.000 A 
ATOM     27  C   UNL     1       0.460   1.153   0.047  0.00  0.00    +0.002 A 
ATOM     28  C   UNL     1       1.426   0.402  -0.592  0.00  0.00    +0.024 A 
ATOM     29  C   UNL     1       2.578   0.030   0.089  0.00  0.00    +0.043 A 
ATOM     30  C   UNL     1       2.754   0.416   1.412  0.00  0.00    +0.024 A 
ATOM     31  C   UNL     1       1.783   1.167   2.046  0.00  0.00    +0.002 A 
ENDBRANCH   1  29
TORSDOF 2
