REMARK  Name = ZINC65331333
REMARK  2 active torsions:
REMARK  status: ('A' for Active; 'I' for Inactive)
REMARK    1  A    between atoms: C_6  and  N_7
REMARK    2  A    between atoms: C_12  and  C_18
REMARK                            x       y       z     vdW  Elec       q    Type
REMARK                         _______ _______ _______ _____ _____    ______ ____
ROOT
ATOM      1  N   UNL     1      -1.202  -0.723   0.010  0.00  0.00    -0.218 N 
ATOM      2  C   UNL     1      -1.433  -1.896  -0.614  0.00  0.00    +0.132 A 
ATOM      3  C   UNL     1      -2.729  -2.256  -0.351  0.00  0.00    +0.020 A 
ATOM      4  C   UNL     1      -3.292  -1.273   0.449  0.00  0.00    +0.141 A 
ATOM      5  N   UNL     1      -2.383  -0.354   0.675  0.00  0.00    -0.173 NA
ATOM      6  C   UNL     1      -3.334  -3.527  -0.889  0.00  0.00    +0.063 C 
ATOM      7  C   UNL     1      -2.215  -4.558  -1.062  0.00  0.00    +0.109 C 
ATOM      8  C   UNL     1      -0.993  -3.945  -1.684  0.00  0.00    +0.219 C 
ATOM      9  O   UNL     1      -0.341  -4.604  -2.466  0.00  0.00    -0.275 OA
ATOM     10  N   UNL     1      -0.597  -2.684  -1.404  0.00  0.00    -0.270 N 
ATOM     11  H   UNL     1       0.243  -2.338  -1.742  0.00  0.00    +0.156 HD
ENDROOT
BRANCH   6  12
ATOM     12  C   UNL     1      -3.985  -3.256  -2.221  0.00  0.00    -0.036 A 
ATOM     13  C   UNL     1      -3.227  -2.782  -3.276  0.00  0.00    +0.008 A 
ATOM     14  C   UNL     1      -3.820  -2.532  -4.499  0.00  0.00    +0.050 A 
ATOM     15  C   UNL     1      -5.177  -2.755  -4.671  0.00  0.00    +0.166 A 
ATOM     16  C   UNL     1      -5.940  -3.232  -3.608  0.00  0.00    +0.167 A 
ATOM     17  C   UNL     1      -5.338  -3.486  -2.386  0.00  0.00    +0.053 A 
ATOM     18  O   UNL     1      -7.233  -3.367  -4.026  0.00  0.00    -0.453 OA
ATOM     19  C   UNL     1      -7.332  -2.584  -5.229  0.00  0.00    +0.466 C 
ATOM     20  O   UNL     1      -5.991  -2.592  -5.754  0.00  0.00    -0.453 OA
ENDBRANCH   6  12
BRANCH   1  26
ATOM     21  C   UNL     1      -0.017   1.384   0.010  0.00  0.00    +0.029 A 
ATOM     22  C   UNL     1       1.170   2.090   0.002  0.00  0.00    +0.022 A 
ATOM     23  C   UNL     1       2.378   1.414  -0.013  0.00  0.00    +0.041 A 
ATOM     24  C   UNL     1       2.400   0.031  -0.022  0.00  0.00    +0.022 A 
ATOM     25  C   UNL     1       1.215  -0.679  -0.014  0.00  0.00    +0.029 A 
ATOM     26  C   UNL     1       0.002  -0.004   0.002  0.00  0.00    +0.068 A 
ATOM     27 CL   UNL     1       3.869   2.304  -0.024  0.00  0.00    -0.084 Cl
ENDBRANCH   1  26
TORSDOF 2
