REMARK  Name = ZINC59416583
REMARK  5 active torsions:
REMARK  status: ('A' for Active; 'I' for Inactive)
REMARK    1  A    between atoms: C_1  and  C_2
REMARK    2  A    between atoms: N_5  and  C_7
REMARK    3  A    between atoms: C_15  and  N_27
REMARK    4  A    between atoms: C_16  and  C_25
REMARK    5  A    between atoms: C_17  and  C_19
REMARK                            x       y       z     vdW  Elec       q    Type
REMARK                         _______ _______ _______ _____ _____    ______ ____
ROOT
ATOM      1  C   UNL     1      -0.018   1.503   0.010  0.00  0.00    +0.068 C 
ATOM      2  C   UNL     1       0.002  -0.004   0.002  0.00  0.00    +0.068 A 
ATOM      3  C   UNL     1       0.008  -0.811  -1.128  0.00  0.00    +0.050 A 
ATOM      4  C   UNL     1       0.029  -2.115  -0.717  0.00  0.00    +0.230 A 
ATOM      5  N   UNL     1       0.034  -2.116   0.634  0.00  0.00    -0.200 N 
ATOM      6  N   UNL     1       0.023  -0.779   1.061  0.00  0.00    -0.168 NA
ATOM      7  O   UNL     1       0.042  -3.157  -1.585  0.00  0.00    -0.423 OA
ATOM      8  C   UNL     1       0.311  -2.888  -2.879  0.00  0.00    +0.200 C 
ATOM      9  C   UNL     1       0.308  -1.643  -3.405  0.00  0.00    +0.098 C 
ATOM     10  C   UNL     1      -0.005  -0.418  -2.582  0.00  0.00    +0.101 C 
ENDROOT
BRANCH   5  11
ATOM     11  C   UNL     1       0.052  -3.248   1.460  0.00  0.00    +0.069 A 
ATOM     12  C   UNL     1      -0.619  -4.401   1.075  0.00  0.00    +0.029 A 
ATOM     13  C   UNL     1      -0.599  -5.515   1.891  0.00  0.00    +0.017 A 
ATOM     14  C   UNL     1       0.088  -5.483   3.091  0.00  0.00    +0.018 A 
ATOM     15  C   UNL     1       0.758  -4.335   3.478  0.00  0.00    +0.017 A 
ATOM     16  C   UNL     1       0.746  -3.220   2.662  0.00  0.00    +0.029 A 
ATOM     17 BR   UNL     1       0.113  -7.010   4.206  0.00  0.00    -0.050 Br
ENDBRANCH   5  11
BRANCH  10  18
ATOM     18  C   UNL     1      -1.368   0.109  -2.954  0.00  0.00    -0.035 A 
ATOM     19  C   UNL     1      -2.482  -0.697  -2.815  0.00  0.00    +0.004 A 
ATOM     20  C   UNL     1      -3.732  -0.214  -3.156  0.00  0.00    +0.000 A 
ATOM     21  C   UNL     1      -3.867   1.076  -3.635  0.00  0.00    +0.000 A 
ATOM     22  C   UNL     1      -2.752   1.882  -3.773  0.00  0.00    +0.000 A 
ATOM     23  C   UNL     1      -1.504   1.400  -3.429  0.00  0.00    +0.004 A 
ENDBRANCH  10  18
BRANCH   8  24
ATOM     24  N   UNL     1       0.605  -3.940  -3.710  0.00  0.00    -0.328 N 
ATOM     25  H   UNL     1       0.616  -4.845  -3.362  0.00  0.00    +0.145 HD
ATOM     26  H   UNL     1       0.803  -3.778  -4.646  0.00  0.00    +0.145 HD
ENDBRANCH   8  24
BRANCH   9  27
ATOM     27  C   UNL     1       0.614  -1.480  -4.794  0.00  0.00    +0.101 C 
ATOM     28  N   UNL     1       0.857  -1.352  -5.896  0.00  0.00    -0.191 NA
ENDBRANCH   9  27
TORSDOF 4
