REMARK  Name = ZINC21318724
REMARK  8 active torsions:
REMARK  status: ('A' for Active; 'I' for Inactive)
REMARK    1  A    between atoms: C_1  and  C_2
REMARK    2  A    between atoms: C_7  and  N_8
REMARK    3  A    between atoms: C_9  and  C_11
REMARK    4  A    between atoms: C_11  and  S_12
REMARK    5  A    between atoms: S_12  and  C_13
REMARK    6  A    between atoms: N_17  and  N_18
REMARK    7  A    between atoms: N_19  and  N_20
REMARK    8  A    between atoms: C_21  and  C_22
REMARK                            x       y       z     vdW  Elec       q    Type
REMARK                         _______ _______ _______ _____ _____    ______ ____
ROOT
ATOM      1  C   UNL     1       4.866   8.518  -0.462  0.00  0.00    +0.210 A 
ATOM      2  N   UNL     1       6.016   7.886  -0.471  0.00  0.00    -0.119 NA
ATOM      3  N   UNL     1       7.033   8.841  -0.599  0.00  0.00    -0.109 NA
ATOM      4  C   UNL     1       6.473  10.025  -0.654  0.00  0.00    +0.254 A 
ATOM      5  N   UNL     1       5.119   9.856  -0.571  0.00  0.00    -0.211 N 
ATOM      6  N   UNL     1       7.138  11.236  -0.775  0.00  0.00    -0.204 N 
ATOM      7  H   UNL     1       6.567  12.176  -0.812  0.00  0.00    +0.177 HD
ENDROOT
BRANCH   5   8
ATOM      8  N   UNL     1       4.183  10.851  -0.593  0.00  0.00    -0.294 N 
ATOM      9  H   UNL     1       4.498  11.901  -0.684  0.00  0.00    +0.163 HD
ATOM     10  H   UNL     1       3.114  10.602  -0.520  0.00  0.00    +0.163 HD
ENDBRANCH   5   8
BRANCH   6  11
ATOM     11  N   UNL     1       8.537  11.264  -0.850  0.00  0.00    -0.187 NA
ATOM     12  C   UNL     1       9.159  12.398  -0.964  0.00  0.00    +0.142 C 
BRANCH  12  13
ATOM     13  C   UNL     1      10.630  12.426  -1.043  0.00  0.00    +0.044 A 
ATOM     14  C   UNL     1      11.304  13.644  -1.165  0.00  0.00    +0.033 A 
ATOM     15  C   UNL     1      12.682  13.665  -1.238  0.00  0.00    +0.043 A 
ATOM     16  C   UNL     1      13.401  12.481  -1.191  0.00  0.00    +0.044 A 
ATOM     17  C   UNL     1      12.745  11.269  -1.070  0.00  0.00    +0.090 A 
ATOM     18  C   UNL     1      11.362  11.232  -0.990  0.00  0.00    +0.206 A 
ATOM     19  O   UNL     1      10.717  10.043  -0.866  0.00  0.00    -0.286 OA
ATOM     20 CL   UNL     1      13.656   9.793  -1.013  0.00  0.00    -0.080 Cl
ATOM     21 CL   UNL     1      13.517  15.179  -1.390  0.00  0.00    -0.083 Cl
ENDBRANCH  12  13
ENDBRANCH   6  11
BRANCH   1  22
ATOM     22  S   UNL     1       3.276   7.772  -0.325  0.00  0.00    -0.075 S 
BRANCH  22  23
ATOM     23  C   UNL     1       3.631   5.997  -0.218  0.00  0.00    +0.173 C 
BRANCH  23  25
ATOM     24  N   UNL     1       2.357   3.888  -0.001  0.00  0.00    -0.285 N 
ATOM     25  C   UNL     1       2.338   5.232  -0.095  0.00  0.00    +0.227 C 
ATOM     26  O   UNL     1       1.281   5.826  -0.082  0.00  0.00    -0.275 OA
ATOM     27  H   UNL     1       3.316   3.355   0.079  0.00  0.00    +0.155 HD
BRANCH  24  34
ATOM     28  C   UNL     1       2.322   1.324   1.234  0.00  0.00    +0.045 C 
ATOM     29  C   UNL     1       1.095   1.915   0.588  0.00  0.00    -0.029 A 
ATOM     30  C   UNL     1      -0.092   1.207   0.583  0.00  0.00    +0.006 A 
ATOM     31  C   UNL     1      -1.217   1.745  -0.014  0.00  0.00    +0.020 A 
ATOM     32  C   UNL     1      -1.161   2.998  -0.599  0.00  0.00    +0.043 A 
ATOM     33  C   UNL     1       0.024   3.710  -0.598  0.00  0.00    +0.043 A 
ATOM     34  C   UNL     1       1.156   3.170  -0.003  0.00  0.00    +0.038 A 
ATOM     35 CL   UNL     1      -2.577   3.672  -1.343  0.00  0.00    -0.083 Cl
ENDBRANCH  24  34
ENDBRANCH  23  25
ENDBRANCH  22  23
ENDBRANCH   1  22
TORSDOF 7
