REMARK  Name = ZINC14607030
REMARK  3 active torsions:
REMARK  status: ('A' for Active; 'I' for Inactive)
REMARK    1  A    between atoms: C_6  and  N_7
REMARK    2  A    between atoms: C_18  and  C_21
REMARK    3  A    between atoms: N_23  and  C_24
REMARK                            x       y       z     vdW  Elec       q    Type
REMARK                         _______ _______ _______ _____ _____    ______ ____
ROOT
ATOM      1  N   UNL     1      -1.686  -6.555  -0.021  0.00  0.00    -0.327 N 
ATOM      2  C   UNL     1      -1.265  -6.205   1.342  0.00  0.00    +0.124 C 
ATOM      3  C   UNL     1      -1.490  -4.707   1.574  0.00  0.00    +0.126 C 
ATOM      4  N   UNL     1      -0.811  -3.962   0.503  0.00  0.00    -0.302 N 
ATOM      5  C   UNL     1      -1.083  -4.344  -0.891  0.00  0.00    +0.126 C 
ATOM      6  C   UNL     1      -0.870  -5.860  -1.026  0.00  0.00    +0.124 C 
ATOM      7  C   UNL     1       0.042  -2.940   0.794  0.00  0.00    +0.175 C 
ATOM      8  N   UNL     1       0.269  -2.609   2.055  0.00  0.00    -0.151 NA
ATOM      9  C   UNL     1       1.104  -1.638   2.395  0.00  0.00    +0.241 C 
ATOM     10  O   UNL     1       1.251  -1.363   3.570  0.00  0.00    -0.274 OA
ATOM     11  C   UNL     1       1.875  -0.866   1.355  0.00  0.00    +0.129 C 
ATOM     12  C   UNL     1       1.081  -0.873   0.042  0.00  0.00    +0.168 C 
ATOM     13  N   UNL     1       0.662  -2.261  -0.217  0.00  0.00    -0.307 N 
ATOM     14  H   UNL     1       0.821  -2.680  -1.077  0.00  0.00    +0.149 HD
ENDROOT
BRANCH   1  20
ATOM     15  C   UNL     1      -1.246  -8.777   0.815  0.00  0.00    +0.026 A 
ATOM     16  C   UNL     1      -1.216 -10.144   0.621  0.00  0.00    +0.040 A 
ATOM     17  C   UNL     1      -1.579 -10.679  -0.604  0.00  0.00    +0.124 A 
ATOM     18  C   UNL     1      -1.977  -9.845  -1.635  0.00  0.00    +0.040 A 
ATOM     19  C   UNL     1      -2.013  -8.477  -1.444  0.00  0.00    +0.026 A 
ATOM     20  C   UNL     1      -1.650  -7.939  -0.216  0.00  0.00    +0.030 A 
ATOM     21  F   UNL     1      -1.544 -12.016  -0.793  0.00  0.00    -0.205 F 
ENDBRANCH   1  20
BRANCH  12  22
ATOM     22  C   UNL     1      -0.133   0.011   0.173  0.00  0.00    +0.238 C 
ATOM     23  O   UNL     1      -1.214  -0.477   0.426  0.00  0.00    -0.273 OA
ATOM     24  N   UNL     1      -0.016   1.344   0.009  0.00  0.00    -0.284 N 
ATOM     25  H   UNL     1       0.859   1.742  -0.119  0.00  0.00    +0.155 HD
BRANCH  24  26
ATOM     26  C   UNL     1      -1.160   2.153   0.019  0.00  0.00    +0.037 A 
ATOM     27  C   UNL     1      -1.093   3.443   0.528  0.00  0.00    +0.027 A 
ATOM     28  C   UNL     1      -2.221   4.241   0.539  0.00  0.00    +0.051 A 
ATOM     29  C   UNL     1      -3.422   3.757   0.042  0.00  0.00    +0.162 A 
ATOM     30  C   UNL     1      -3.490   2.467  -0.472  0.00  0.00    +0.164 A 
ATOM     31  C   UNL     1      -2.358   1.668  -0.486  0.00  0.00    +0.072 A 
ATOM     32  O   UNL     1      -4.658   1.978  -0.972  0.00  0.00    -0.485 OA
ATOM     33  C   UNL     1      -5.856   2.669  -0.602  0.00  0.00    +0.270 C 
ATOM     34  C   UNL     1      -5.616   4.175  -0.777  0.00  0.00    +0.270 C 
ATOM     35  O   UNL     1      -4.525   4.556   0.068  0.00  0.00    -0.485 OA
ENDBRANCH  24  26
ENDBRANCH  12  22
TORSDOF 3
