REMARK  Name = ZINC39324828
REMARK  9 active torsions:
REMARK  status: ('A' for Active; 'I' for Inactive)
REMARK    1  A    between atoms: C_1  and  C_2
REMARK    2  A    between atoms: C_7  and  C_14
REMARK    3  A    between atoms: C_14  and  N_15
REMARK    4  A    between atoms: N_15  and  C_16
REMARK    5  A    between atoms: N_15  and  S_25
REMARK    6  A    between atoms: C_16  and  C_17
REMARK    7  A    between atoms: C_17  and  C_18
REMARK    8  A    between atoms: C_23  and  C_24
REMARK    9  A    between atoms: S_25  and  C_28
REMARK                            x       y       z     vdW  Elec       q    Type
REMARK                         _______ _______ _______ _____ _____    ______ ____
ROOT
ATOM      1  N   UNL     1      -1.238  -6.543   2.740  0.00  0.00    -0.175 NA
ENDROOT
BRANCH   1   2
ATOM      2  S   UNL     1      -0.407  -7.970   2.871  0.00  0.00    +0.063 S 
ATOM      3  O   UNL     1      -1.036  -8.712   3.907  0.00  0.00    -0.153 OA
ATOM      4  O   UNL     1      -0.262  -8.477   1.551  0.00  0.00    -0.153 OA
BRANCH   2   5
ATOM      5  C   UNL     1       1.213  -7.579   3.442  0.00  0.00    +0.133 A 
ATOM      6  C   UNL     1       1.617  -7.996   4.665  0.00  0.00    +0.031 A 
ATOM      7  C   UNL     1       2.892  -7.706   5.149  0.00  0.00    +0.004 A 
ATOM      8  C   UNL     1       3.781  -6.994   4.418  0.00  0.00    +0.031 A 
ATOM      9  C   UNL     1       3.427  -6.523   3.125  0.00  0.00    +0.102 A 
ATOM     10  C   UNL     1       2.095  -6.832   2.616  0.00  0.00    +0.126 A 
ATOM     11  N   UNL     1       1.875  -6.346   1.393  0.00  0.00    -0.189 NA
ATOM     12  S   UNL     1       3.235  -5.595   0.973  0.00  0.00    +0.117 S 
ATOM     13  N   UNL     1       4.164  -5.814   2.269  0.00  0.00    -0.191 NA
ENDBRANCH   2   5
ENDBRANCH   1   2
BRANCH   1  14
ATOM     14  C   UNL     1      -1.324  -5.862   1.446  0.00  0.00    +0.126 C 
BRANCH  14  21
ATOM     15  C   UNL     1      -4.206  -7.868  -5.179  0.00  0.00    +0.044 C 
ATOM     16  C   UNL     1      -3.839  -7.168  -3.895  0.00  0.00    -0.049 A 
ATOM     17  C   UNL     1      -3.603  -5.793  -3.926  0.00  0.00    +0.004 A 
ATOM     18  C   UNL     1      -3.269  -5.107  -2.803  0.00  0.00    +0.010 A 
ATOM     19  C   UNL     1      -3.159  -5.836  -1.538  0.00  0.00    -0.007 A 
ATOM     20  C   UNL     1      -2.827  -5.189  -0.385  0.00  0.00    -0.003 C 
ATOM     21  C   UNL     1      -2.736  -6.022   0.878  0.00  0.00    +0.114 C 
ATOM     22  C   UNL     1      -3.020  -7.503   0.756  0.00  0.00    +0.225 C 
ATOM     23  O   UNL     1      -2.962  -8.219   1.738  0.00  0.00    -0.275 OA
ATOM     24  N   UNL     1      -3.333  -8.016  -0.422  0.00  0.00    -0.284 N 
ATOM     25  C   UNL     1      -3.414  -7.287  -1.535  0.00  0.00    +0.041 A 
ATOM     26  C   UNL     1      -3.758  -7.900  -2.754  0.00  0.00    +0.027 A 
ATOM     27  H   UNL     1      -3.512  -8.967  -0.479  0.00  0.00    +0.155 HD
ENDBRANCH  14  21
ENDBRANCH   1  14
BRANCH   1  28
ATOM     28  C   UNL     1      -1.886  -5.962   3.918  0.00  0.00    +0.114 C 
BRANCH  28  29
ATOM     29  C   UNL     1      -3.340  -6.433   3.984  0.00  0.00    +0.052 C 
BRANCH  29  30
ATOM     30  C   UNL     1      -4.007  -5.835   5.197  0.00  0.00    -0.043 A 
ATOM     31  C   UNL     1      -4.062  -6.550   6.378  0.00  0.00    +0.004 A 
ATOM     32  C   UNL     1      -4.673  -6.002   7.490  0.00  0.00    +0.000 A 
ATOM     33  C   UNL     1      -5.230  -4.738   7.420  0.00  0.00    +0.000 A 
ATOM     34  C   UNL     1      -5.174  -4.023   6.239  0.00  0.00    +0.003 A 
ATOM     35  C   UNL     1      -4.558  -4.569   5.128  0.00  0.00    -0.047 A 
ATOM     36  C   UNL     1      -4.493  -3.787   3.842  0.00  0.00    +0.044 C 
ENDBRANCH  29  30
ENDBRANCH  28  29
ENDBRANCH   1  28
TORSDOF 7
