REMARK  Name = ZINC10680380
REMARK  13 active torsions:
REMARK  status: ('A' for Active; 'I' for Inactive)
REMARK    1  A    between atoms: C_1  and  C_2
REMARK    2  A    between atoms: C_2  and  C_3
REMARK    3  A    between atoms: C_3  and  C_5
REMARK    4  A    between atoms: C_3  and  C_6
REMARK    5  A    between atoms: C_11  and  O_12
REMARK    6  A    between atoms: O_12  and  C_13
REMARK    7  A    between atoms: C_13  and  C_15
REMARK    8  A    between atoms: C_13  and  C_17
REMARK    9  A    between atoms: C_15  and  C_16
REMARK   10  A    between atoms: N_19  and  C_20
REMARK   11  A    between atoms: C_23  and  O_26
REMARK   12  A    between atoms: O_26  and  C_27
REMARK   13  A    between atoms: C_27  and  C_28
REMARK                            x       y       z     vdW  Elec       q    Type
REMARK                         _______ _______ _______ _____ _____    ______ ____
ROOT
ATOM      1  C   UNL     1      -1.306   7.154   0.702  0.00  0.00    +0.258 C 
ATOM      2  O   UNL     1      -0.286   7.540   1.232  0.00  0.00    -0.271 OA
ATOM      3  N   UNL     1      -2.392   7.952   0.668  0.00  0.00    -0.282 N 
ATOM      4  H   UNL     1      -3.230   7.615   0.314  0.00  0.00    +0.155 HD
ENDROOT
BRANCH   3   5
ATOM      5  C   UNL     1      -2.310   9.266   1.145  0.00  0.00    +0.034 A 
ATOM      6  C   UNL     1      -3.414   9.858   1.745  0.00  0.00    +0.027 A 
ATOM      7  C   UNL     1      -3.331  11.152   2.220  0.00  0.00    +0.047 A 
ATOM      8  C   UNL     1      -2.149  11.865   2.086  0.00  0.00    +0.121 A 
ATOM      9  C   UNL     1      -1.047  11.277   1.482  0.00  0.00    +0.047 A 
ATOM     10  C   UNL     1      -1.127   9.981   1.012  0.00  0.00    +0.027 A 
BRANCH   8  11
ATOM     11  O   UNL     1      -2.069  13.142   2.548  0.00  0.00    -0.487 OA
BRANCH  11  12
ATOM     12  C   UNL     1      -3.242  13.684   3.159  0.00  0.00    +0.264 C 
BRANCH  12  13
ATOM     13  C   UNL     1      -2.967  15.097   3.606  0.00  0.00    -0.010 A 
ATOM     14  C   UNL     1      -2.480  15.337   4.878  0.00  0.00    +0.007 A 
ATOM     15  C   UNL     1      -2.223  16.633   5.286  0.00  0.00    +0.000 A 
ATOM     16  C   UNL     1      -2.463  17.689   4.427  0.00  0.00    +0.000 A 
ATOM     17  C   UNL     1      -2.955  17.449   3.158  0.00  0.00    +0.000 A 
ATOM     18  C   UNL     1      -3.207  16.153   2.747  0.00  0.00    +0.007 A 
ENDBRANCH  12  13
ENDBRANCH  11  12
ENDBRANCH   8  11
ENDBRANCH   3   5
BRANCH   1  19
ATOM     19  C   UNL     1      -1.360   5.781   0.082  0.00  0.00    +0.259 C 
BRANCH  19  20
ATOM     20  C   UNL     1      -1.556   5.912  -1.430  0.00  0.00    +0.051 C 
ATOM     21  C   UNL     1      -1.735   4.522  -2.043  0.00  0.00    +0.008 C 
ENDBRANCH  19  20
BRANCH  19  22
ATOM     22  O   UNL     1      -0.137   5.091   0.346  0.00  0.00    -0.479 OA
BRANCH  22  28
ATOM     23  C   UNL     1       0.948   2.999   0.671  0.00  0.00    -0.003 A 
ATOM     24  C   UNL     1       0.870   1.628   0.826  0.00  0.00    +0.007 A 
ATOM     25  C   UNL     1      -0.360   0.997   0.808  0.00  0.00    +0.001 A 
ATOM     26  C   UNL     1      -1.515   1.736   0.630  0.00  0.00    +0.004 A 
ATOM     27  C   UNL     1      -1.444   3.107   0.481  0.00  0.00    +0.046 A 
ATOM     28  C   UNL     1      -0.211   3.742   0.498  0.00  0.00    +0.125 A 
BRANCH  23  29
ATOM     29  C   UNL     1       2.289   3.685   0.690  0.00  0.00    +0.019 C 
ATOM     30  C   UNL     1       2.976   3.426   2.032  0.00  0.00    +0.012 C 
BRANCH  29  32
ATOM     31  C   UNL     1       4.472   3.919  -0.502  0.00  0.00    +0.004 C 
ATOM     32  C   UNL     1       3.159   3.136  -0.443  0.00  0.00    +0.004 C 
ENDBRANCH  29  32
ENDBRANCH  23  29
ENDBRANCH  22  28
ENDBRANCH  19  22
ENDBRANCH   1  19
TORSDOF 10
