REMARK  Name = ZINC02725481
REMARK  4 active torsions:
REMARK  status: ('A' for Active; 'I' for Inactive)
REMARK    1  A    between atoms: C_6  and  C_7
REMARK    2  A    between atoms: C_7  and  N_8
REMARK    3  A    between atoms: N_11  and  C_12
REMARK    4  A    between atoms: C_12  and  C_23
REMARK                            x       y       z     vdW  Elec       q    Type
REMARK                         _______ _______ _______ _____ _____    ______ ____
ROOT
ATOM      1  N   UNL     1       6.051  -1.072   1.227  0.00  0.00    -0.295 N 
ATOM      2  C   UNL     1       7.355  -1.234   1.527  0.00  0.00    +0.306 C 
ATOM      3  O   UNL     1       7.747  -1.035   2.661  0.00  0.00    -0.253 OA
ATOM      4  N   UNL     1       8.224  -1.618   0.571  0.00  0.00    -0.220 N 
ATOM      5  H   UNL     1       5.738  -1.230   0.323  0.00  0.00    +0.151 HD
ATOM      6  H   UNL     1       7.911  -1.776  -0.333  0.00  0.00    +0.158 HD
ENDROOT
BRANCH   4   7
ATOM      7  C   UNL     1       9.641  -1.794   0.898  0.00  0.00    +0.436 C 
ATOM      8  O   UNL     1       9.799  -2.753   1.960  0.00  0.00    -0.426 OA
ATOM      9  C   UNL     1       9.790  -2.018   3.115  0.00  0.00    +0.170 A 
ATOM     10  C   UNL     1       9.592  -2.387   4.436  0.00  0.00    +0.071 A 
ATOM     11  C   UNL     1       9.634  -1.431   5.435  0.00  0.00    +0.063 A 
ATOM     12  C   UNL     1       9.872  -0.105   5.118  0.00  0.00    +0.063 A 
ATOM     13  C   UNL     1      10.070   0.269   3.801  0.00  0.00    +0.071 A 
ATOM     14  C   UNL     1      10.030  -0.684   2.796  0.00  0.00    +0.170 A 
ATOM     15  O   UNL     1      10.190  -0.581   1.444  0.00  0.00    -0.426 OA
ATOM     16 CL   UNL     1       9.924   1.091   6.375  0.00  0.00    -0.082 Cl
ATOM     17 CL   UNL     1       9.387  -1.896   7.089  0.00  0.00    -0.082 Cl
BRANCH   7  18
ATOM     18  C   UNL     1      10.426  -2.230  -0.341  0.00  0.00    +0.490 C 
ATOM     19  F   UNL     1      10.308  -1.253  -1.335  0.00  0.00    -0.162 F 
ATOM     20  F   UNL     1      11.774  -2.392  -0.005  0.00  0.00    -0.162 F 
ATOM     21  F   UNL     1       9.914  -3.443  -0.815  0.00  0.00    -0.162 F 
ENDBRANCH   7  18
ENDBRANCH   4   7
BRANCH   1  22
ATOM     22  C   UNL     1       5.106  -0.655   2.266  0.00  0.00    +0.141 C 
BRANCH  22  28
ATOM     23  C   UNL     1       2.886  -1.646   1.677  0.00  0.00    +0.009 A 
ATOM     24  C   UNL     1       1.617  -1.552   1.135  0.00  0.00    +0.050 A 
ATOM     25  C   UNL     1       1.183  -0.356   0.589  0.00  0.00    +0.166 A 
ATOM     26  C   UNL     1       2.029   0.752   0.587  0.00  0.00    +0.167 A 
ATOM     27  C   UNL     1       3.298   0.650   1.131  0.00  0.00    +0.054 A 
ATOM     28  C   UNL     1       3.724  -0.547   1.675  0.00  0.00    -0.027 A 
ATOM     29  O   UNL     1       1.376   1.797  -0.001  0.00  0.00    -0.453 OA
ATOM     30  C   UNL     1      -0.018   1.436   0.010  0.00  0.00    +0.466 C 
ATOM     31  O   UNL     1       0.002  -0.004   0.002  0.00  0.00    -0.453 OA
ENDBRANCH  22  28
ENDBRANCH   1  22
TORSDOF 4
