REMARK  Name = ZINC32417467
REMARK  6 active torsions:
REMARK  status: ('A' for Active; 'I' for Inactive)
REMARK    1  A    between atoms: C_1  and  C_2
REMARK    2  A    between atoms: C_7  and  S_8
REMARK    3  A    between atoms: S_8  and  N_11
REMARK    4  A    between atoms: N_11  and  C_12
REMARK    5  A    between atoms: C_12  and  C_13
REMARK    6  A    between atoms: C_18  and  N_19
REMARK                            x       y       z     vdW  Elec       q    Type
REMARK                         _______ _______ _______ _____ _____    ______ ____
ROOT
ATOM      1  C   UNL     1       1.210   2.283   2.049  0.00  0.00    +0.144 C 
ENDROOT
BRANCH   1   2
ATOM      2  C   UNL     1       2.189   3.242   2.675  0.00  0.00    +0.006 A 
ATOM      3  C   UNL     1       1.748   4.231   3.536  0.00  0.00    +0.009 A 
ATOM      4  C   UNL     1       2.685   5.093   4.090  0.00  0.00    +0.018 A 
ATOM      5  C   UNL     1       4.019   4.940   3.768  0.00  0.00    +0.084 A 
ATOM      6  N   UNL     1       4.410   3.988   2.943  0.00  0.00    -0.349 N 
ATOM      7  C   UNL     1       3.548   3.142   2.399  0.00  0.00    +0.103 A 
ATOM      8  H   UNL     1       5.354   3.902   2.733  0.00  0.00    +0.167 HD
BRANCH   7   9
ATOM      9  N   UNL     1       4.005   2.149   1.540  0.00  0.00    -0.312 N 
ATOM     10  C   UNL     1       4.194   2.417   0.105  0.00  0.00    +0.134 C 
ATOM     11  C   UNL     1       5.599   1.951  -0.293  0.00  0.00    +0.178 C 
ATOM     12  O   UNL     1       5.783   0.598   0.130  0.00  0.00    -0.377 OA
ATOM     13  C   UNL     1       5.715   0.412   1.546  0.00  0.00    +0.178 C 
ATOM     14  C   UNL     1       4.321   0.802   2.039  0.00  0.00    +0.134 C 
ENDBRANCH   7   9
ENDBRANCH   1   2
BRANCH   1  15
ATOM     15  N   UNL     1       1.187   1.036   2.819  0.00  0.00    -0.186 NA
ATOM     16  H   UNL     1       1.925   0.818   3.410  0.00  0.00    +0.148 HD
BRANCH  15  17
ATOM     17  S   UNL     1      -0.097   0.000   2.680  0.00  0.00    +0.059 S 
ATOM     18  O   UNL     1      -1.271   0.788   2.817  0.00  0.00    -0.153 OA
ATOM     19  O   UNL     1       0.181  -1.107   3.526  0.00  0.00    -0.153 OA
BRANCH  17  26
ATOM     20  C   UNL     1       2.033  -1.826   1.552  0.00  0.00    +0.046 C 
ATOM     21  C   UNL     1       0.926  -1.446   0.603  0.00  0.00    -0.024 A 
ATOM     22  C   UNL     1       0.926  -1.935  -0.690  0.00  0.00    +0.008 A 
ATOM     23  C   UNL     1      -0.089  -1.588  -1.561  0.00  0.00    +0.039 A 
ATOM     24  C   UNL     1      -1.108  -0.751  -1.137  0.00  0.00    +0.125 A 
ATOM     25  C   UNL     1      -1.107  -0.263   0.158  0.00  0.00    +0.067 A 
ATOM     26  C   UNL     1      -0.093  -0.615   1.029  0.00  0.00    +0.111 A 
ATOM     27  F   UNL     1      -2.101  -0.410  -1.988  0.00  0.00    -0.205 F 
ENDBRANCH  17  26
ENDBRANCH  15  17
ENDBRANCH   1  15
TORSDOF 5
