REMARK  Name = ZINC63573045
REMARK  7 active torsions:
REMARK  status: ('A' for Active; 'I' for Inactive)
REMARK    1  A    between atoms: C_1  and  C_2
REMARK    2  A    between atoms: C_3  and  N_9
REMARK    3  A    between atoms: C_18  and  O_35
REMARK    4  A    between atoms: C_25  and  C_27
REMARK    5  A    between atoms: C_30  and  O_33
REMARK    6  A    between atoms: O_33  and  C_34
REMARK    7  A    between atoms: O_35  and  C_36
REMARK                            x       y       z     vdW  Elec       q    Type
REMARK                         _______ _______ _______ _____ _____    ______ ____
ROOT
ATOM      1  N   UNL     1      -1.779   0.006  -2.988  0.00  0.00    -0.269 N 
ATOM      2  C   UNL     1      -1.068  -0.650  -3.927  0.00  0.00    +0.307 C 
ATOM      3  O   UNL     1      -0.951  -1.859  -3.865  0.00  0.00    -0.252 OA
ATOM      4  N   UNL     1      -0.489   0.033  -4.933  0.00  0.00    -0.276 N 
ATOM      5  C   UNL     1      -0.531   1.498  -4.934  0.00  0.00    +0.114 C 
ATOM      6  C   UNL     1       0.905   2.053  -4.975  0.00  0.00    +0.052 C 
ATOM      7  C   UNL     1       1.644   1.263  -6.027  0.00  0.00    -0.035 C 
ATOM      8  C   UNL     1       2.364   1.651  -7.071  0.00  0.00    +0.003 A 
ATOM      9  C   UNL     1       2.797   2.981  -7.527  0.00  0.00    +0.055 A 
ATOM     10  C   UNL     1       3.526   3.026  -8.676  0.00  0.00    +0.121 A 
ATOM     11  C   UNL     1       3.874   1.895  -9.428  0.00  0.00    +0.047 A 
ATOM     12  C   UNL     1       3.534   0.623  -9.097  0.00  0.00    +0.029 A 
ATOM     13  C   UNL     1       2.752   0.444  -7.866  0.00  0.00    +0.043 A 
ATOM     14  N   UNL     1       2.311  -0.636  -7.297  0.00  0.00    -0.375 N 
ATOM     15  C   UNL     1       1.648  -0.262  -6.047  0.00  0.00    +0.131 C 
ATOM     16  C   UNL     1       0.185  -0.700  -6.017  0.00  0.00    +0.134 C 
ATOM     17  H   UNL     1      -1.933   0.960  -3.076  0.00  0.00    +0.156 HD
ATOM     18  H   UNL     1       2.405  -1.538  -7.641  0.00  0.00    +0.160 HD
ENDROOT
BRANCH   1  21
ATOM     19  C   UNL     1      -2.099   1.419  -0.539  0.00  0.00    +0.047 C 
ATOM     20  C   UNL     1      -2.466  -0.037  -0.673  0.00  0.00    -0.011 A 
ATOM     21  C   UNL     1      -2.294  -0.688  -1.887  0.00  0.00    +0.039 A 
ATOM     22  C   UNL     1      -2.633  -2.029  -2.007  0.00  0.00    +0.024 A 
ATOM     23  C   UNL     1      -3.142  -2.712  -0.920  0.00  0.00    +0.003 A 
ATOM     24  C   UNL     1      -3.313  -2.062   0.288  0.00  0.00    +0.020 A 
ATOM     25  C   UNL     1      -2.970  -0.727   0.413  0.00  0.00    +0.046 A 
ATOM     26 CL   UNL     1      -3.179   0.084   1.934  0.00  0.00    -0.083 Cl
ENDBRANCH   1  21
BRANCH  16  27
ATOM     27  C   UNL     1       0.105  -2.183  -5.758  0.00  0.00    -0.024 A 
ATOM     28  C   UNL     1       0.892  -2.755  -4.775  0.00  0.00    +0.009 A 
ATOM     29  C   UNL     1       0.820  -4.113  -4.535  0.00  0.00    +0.046 A 
ATOM     30  C   UNL     1      -0.042  -4.904  -5.281  0.00  0.00    +0.120 A 
ATOM     31  C   UNL     1      -0.831  -4.327  -6.266  0.00  0.00    +0.046 A 
ATOM     32  C   UNL     1      -0.759  -2.967  -6.499  0.00  0.00    +0.009 A 
BRANCH  30  33
ATOM     33  O   UNL     1      -0.114  -6.241  -5.048  0.00  0.00    -0.495 OA
ATOM     34  C   UNL     1      -1.023  -6.992  -5.854  0.00  0.00    +0.277 C 
ENDBRANCH  30  33
ENDBRANCH  16  27
BRANCH  10  35
ATOM     35  O   UNL     1       3.941   4.241  -9.122  0.00  0.00    -0.495 OA
ATOM     36  C   UNL     1       4.704   4.263 -10.330  0.00  0.00    +0.277 C 
ENDBRANCH  10  35
TORSDOF 4
