REMARK  Name = ZINC65414331
REMARK  10 active torsions:
REMARK  status: ('A' for Active; 'I' for Inactive)
REMARK    1  A    between atoms: C_1  and  C_2
REMARK    2  A    between atoms: C_4  and  C_8
REMARK    3  A    between atoms: C_5  and  C_7
REMARK    4  A    between atoms: C_8  and  C_9
REMARK    5  A    between atoms: C_8  and  N_10
REMARK    6  A    between atoms: N_13  and  C_14
REMARK    7  A    between atoms: C_17  and  N_20
REMARK    8  A    between atoms: N_20  and  C_21
REMARK    9  A    between atoms: N_20  and  C_22
REMARK   10  A    between atoms: N_25  and  C_28
REMARK                            x       y       z     vdW  Elec       q    Type
REMARK                         _______ _______ _______ _____ _____    ______ ____
ROOT
ATOM      1  C   UNL     1      -5.426  -4.896  -2.185  0.00  0.00    +0.035 A 
ATOM      2  C   UNL     1      -4.920  -6.186  -2.107  0.00  0.00    +0.025 A 
ATOM      3  C   UNL     1      -5.655  -7.247  -2.596  0.00  0.00    +0.025 A 
ATOM      4  C   UNL     1      -6.902  -7.024  -3.166  0.00  0.00    +0.030 A 
ATOM      5  C   UNL     1      -7.408  -5.734  -3.244  0.00  0.00    +0.025 A 
ATOM      6  C   UNL     1      -6.675  -4.673  -2.750  0.00  0.00    +0.025 A 
ENDROOT
BRANCH   1  10
ATOM      7  N   UNL     1      -4.584  -1.788  -0.541  0.00  0.00    -0.292 N 
ATOM      8  C   UNL     1      -5.305  -2.779  -1.101  0.00  0.00    +0.304 C 
ATOM      9  O   UNL     1      -6.520  -2.736  -1.077  0.00  0.00    -0.252 OA
ATOM     10  N   UNL     1      -4.680  -3.818  -1.688  0.00  0.00    -0.269 N 
ATOM     11  H   UNL     1      -3.615  -1.822  -0.561  0.00  0.00    +0.151 HD
ATOM     12  H   UNL     1      -3.713  -3.821  -1.768  0.00  0.00    +0.156 HD
BRANCH   7  13
ATOM     13  C   UNL     1      -5.264  -0.658   0.098  0.00  0.00    +0.105 C 
ATOM     14  C   UNL     1      -5.612   0.392  -0.960  0.00  0.00    +0.033 C 
BRANCH  13  18
ATOM     15  C   UNL     1      -1.115   0.779   2.682  0.00  0.00    +0.086 C 
ATOM     16  C   UNL     1      -2.544   0.573   2.247  0.00  0.00    +0.103 A 
ATOM     17  C   UNL     1      -2.944  -0.101   1.154  0.00  0.00    +0.050 A 
ATOM     18  C   UNL     1      -4.356  -0.045   1.133  0.00  0.00    +0.013 A 
ATOM     19  C   UNL     1      -4.735   0.659   2.215  0.00  0.00    +0.107 A 
ATOM     20  O   UNL     1      -3.633   1.026   2.889  0.00  0.00    -0.465 OA
ATOM     21  C   UNL     1      -6.155   0.977   2.607  0.00  0.00    +0.086 C 
ENDBRANCH  13  18
ENDBRANCH   7  13
ENDBRANCH   1  10
BRANCH   4  22
ATOM     22  N   UNL     1      -7.647  -8.100  -3.662  0.00  0.00    -0.330 N 
ATOM     23  C   UNL     1      -7.163  -9.471  -3.482  0.00  0.00    +0.129 C 
BRANCH  22  24
ATOM     24  C   UNL     1      -8.910  -7.855  -4.362  0.00  0.00    +0.070 C 
ATOM     25  C   UNL     1     -10.029  -8.663  -3.697  0.00  0.00    +0.004 C 
ATOM     26  C   UNL     1     -11.328  -8.465  -4.480  0.00  0.00    -0.077 C 
ATOM     27  N   UNL     1     -11.146  -8.924  -5.862  0.00  0.00    +0.378 N 
ATOM     28  C   UNL     1     -10.125  -8.106  -6.528  0.00  0.00    -0.077 C 
ATOM     29  C   UNL     1      -8.779  -8.290  -5.824  0.00  0.00    +0.004 C 
ATOM     30  C   UNL     1     -12.417  -8.804  -6.588  0.00  0.00    -0.096 C 
ATOM     31  H   UNL     1     -10.852  -9.889  -5.859  0.00  0.00    -0.082 HD
ENDBRANCH  22  24
ENDBRANCH   4  22
TORSDOF 5
