REMARK  Name = ZINC09087583
REMARK  4 active torsions:
REMARK  status: ('A' for Active; 'I' for Inactive)
REMARK    1  A    between atoms: C_8  and  C_26
REMARK    2  A    between atoms: C_10  and  C_17
REMARK    3  A    between atoms: C_21  and  N_23
REMARK    4  A    between atoms: C_26  and  C_28
REMARK                            x       y       z     vdW  Elec       q    Type
REMARK                         _______ _______ _______ _____ _____    ______ ____
ROOT
ATOM      1  C   UNL     1       8.061   4.204   0.480  0.00  0.00    +0.000 A 
ATOM      2  C   UNL     1       8.327   5.325   1.245  0.00  0.00    +0.002 A 
ATOM      3  C   UNL     1       7.293   6.100   1.727  0.00  0.00    +0.023 A 
ATOM      4  C   UNL     1       5.972   5.759   1.448  0.00  0.00    +0.036 A 
ATOM      5  C   UNL     1       5.717   4.627   0.679  0.00  0.00    -0.027 A 
ATOM      6  C   UNL     1       6.752   3.857   0.199  0.00  0.00    +0.004 A 
ATOM      7  C   UNL     1       4.222   4.539   0.564  0.00  0.00    +0.052 C 
ATOM      8  C   UNL     1       3.689   3.216   1.126  0.00  0.00    +0.069 C 
ATOM      9  C   UNL     1       3.653   2.274  -0.099  0.00  0.00    +0.016 C 
ATOM     10  C   UNL     1       3.810   3.194  -1.312  0.00  0.00    -0.047 C 
ATOM     11  C   UNL     1       2.447   5.220  -0.882  0.00  0.00    -0.005 C 
ATOM     12  S   UNL     1       1.473   4.139  -2.002  0.00  0.00    -0.181 S 
ATOM     13  C   UNL     1       2.760   2.904  -2.393  0.00  0.00    +0.052 C 
ATOM     14  C   UNL     1       3.698   5.719   1.335  0.00  0.00    +0.212 C 
ATOM     15  O   UNL     1       2.534   6.022   1.494  0.00  0.00    -0.277 OA
ATOM     16  N   UNL     1       4.773   6.375   1.815  0.00  0.00    -0.286 N 
ATOM     17  H   UNL     1       4.720   7.180   2.353  0.00  0.00    +0.155 HD
ATOM     18  N   UNL     1       3.807   4.586  -0.815  0.00  0.00    +0.401 N 
ATOM     19  H   UNL     1       4.467   5.146  -1.367  0.00  0.00    -0.078 HD
ENDROOT
BRANCH   9  20
ATOM     20  C   UNL     1       2.335   1.546  -0.162  0.00  0.00    -0.043 A 
ATOM     21  C   UNL     1       1.155   2.260  -0.253  0.00  0.00    +0.004 A 
ATOM     22  C   UNL     1      -0.054   1.592  -0.310  0.00  0.00    +0.002 A 
ATOM     23  C   UNL     1      -0.082   0.210  -0.276  0.00  0.00    +0.033 A 
ATOM     24  C   UNL     1       1.098  -0.503  -0.185  0.00  0.00    +0.126 A 
ATOM     25  C   UNL     1       2.307   0.165  -0.127  0.00  0.00    +0.036 A 
BRANCH  24  26
ATOM     26  N   UNL     1       1.067  -1.983  -0.148  0.00  0.00    +0.056 N 
ATOM     27  O   UNL     1       0.002  -2.571  -0.199  0.00  0.00    -0.126 OA
ATOM     28  O   UNL     1       2.107  -2.612  -0.068  0.00  0.00    -0.126 OA
ENDBRANCH  24  26
ENDBRANCH   9  20
BRANCH   8  29
ATOM     29  C   UNL     1       2.304   3.402   1.690  0.00  0.00    +0.173 C 
ATOM     30  O   UNL     1       1.535   4.184   1.168  0.00  0.00    -0.291 OA
BRANCH  29  31
ATOM     31  C   UNL     1       1.899   2.666   2.825  0.00  0.00    +0.055 A 
ATOM     32  C   UNL     1       0.682   2.691   3.499  0.00  0.00    +0.019 A 
ATOM     33  C   UNL     1       0.552   1.862   4.582  0.00  0.00    +0.008 A 
ATOM     34  C   UNL     1       1.602   1.077   4.948  0.00  0.00    +0.046 A 
ATOM     35  S   UNL     1       2.817   1.467   3.775  0.00  0.00    -0.094 S 
ENDBRANCH  29  31
ENDBRANCH   8  29
TORSDOF 4
