REMARK  Name = ZINC59795666
REMARK  9 active torsions:
REMARK  status: ('A' for Active; 'I' for Inactive)
REMARK    1  A    between atoms: C_4  and  N_7
REMARK    2  A    between atoms: C_8  and  C_28
REMARK    3  A    between atoms: C_11  and  S_12
REMARK    4  A    between atoms: S_12  and  C_13
REMARK    5  A    between atoms: C_13  and  C_14
REMARK    6  A    between atoms: C_14  and  C_15
REMARK    7  A    between atoms: N_17  and  C_18
REMARK    8  A    between atoms: C_21  and  S_24
REMARK    9  A    between atoms: S_24  and  N_27
REMARK                            x       y       z     vdW  Elec       q    Type
REMARK                         _______ _______ _______ _____ _____    ______ ____
ROOT
ATOM      1  S   UNL     1       4.406   0.243   2.597  0.00  0.00    -0.085 S 
ENDROOT
BRANCH   1   6
ATOM      2  N   UNL     1       3.223  -1.008   0.390  0.00  0.00    -0.270 N 
ATOM      3  C   UNL     1       3.549  -2.048  -0.453  0.00  0.00    +0.169 A 
ATOM      4  N   UNL     1       4.707  -2.519  -0.052  0.00  0.00    -0.128 NA
ATOM      5  N   UNL     1       5.123  -1.856   0.967  0.00  0.00    -0.122 NA
ATOM      6  C   UNL     1       4.259  -0.916   1.279  0.00  0.00    +0.196 A 
BRANCH   3   7
ATOM      7  C   UNL     1       2.746  -2.541  -1.592  0.00  0.00    +0.020 A 
ATOM      8  C   UNL     1       1.742  -1.741  -2.139  0.00  0.00    +0.013 A 
ATOM      9  C   UNL     1       0.996  -2.206  -3.203  0.00  0.00    +0.021 A 
ATOM     10  C   UNL     1       1.242  -3.464  -3.726  0.00  0.00    +0.041 A 
ATOM     11  C   UNL     1       2.237  -4.262  -3.188  0.00  0.00    +0.021 A 
ATOM     12  C   UNL     1       2.994  -3.805  -2.129  0.00  0.00    +0.013 A 
ATOM     13 CL   UNL     1       0.299  -4.043  -5.064  0.00  0.00    -0.084 Cl
ENDBRANCH   3   7
BRANCH   2  17
ATOM     14  C   UNL     1      -0.197   1.372   0.250  0.00  0.00    +0.000 A 
ATOM     15  C   UNL     1       1.038   1.921  -0.044  0.00  0.00    +0.002 A 
ATOM     16  C   UNL     1       2.173   1.135   0.002  0.00  0.00    +0.026 A 
ATOM     17  C   UNL     1       2.073  -0.207   0.343  0.00  0.00    +0.051 A 
ATOM     18  C   UNL     1       0.831  -0.755   0.637  0.00  0.00    +0.026 A 
ATOM     19  C   UNL     1      -0.300   0.035   0.590  0.00  0.00    +0.002 A 
ENDBRANCH   2  17
ENDBRANCH   1   6
BRANCH   1  20
ATOM     20  C   UNL     1       5.990  -0.175   3.375  0.00  0.00    +0.086 C 
BRANCH  20  21
ATOM     21  C   UNL     1       6.245   0.769   4.552  0.00  0.00    +0.107 C 
BRANCH  21  22
ATOM     22  C   UNL     1       7.562   0.421   5.198  0.00  0.00    +0.218 C 
ATOM     23  O   UNL     1       8.230  -0.491   4.760  0.00  0.00    -0.275 OA
ATOM     24  N   UNL     1       7.997   1.125   6.263  0.00  0.00    -0.285 N 
ATOM     25  H   UNL     1       7.432   1.808   6.656  0.00  0.00    +0.155 HD
BRANCH  24  26
ATOM     26  C   UNL     1       9.263   0.869   6.800  0.00  0.00    +0.033 A 
ATOM     27  C   UNL     1       9.479   1.000   8.166  0.00  0.00    +0.025 A 
ATOM     28  C   UNL     1      10.729   0.747   8.693  0.00  0.00    +0.030 A 
ATOM     29  C   UNL     1      11.767   0.363   7.864  0.00  0.00    +0.105 A 
ATOM     30  C   UNL     1      11.556   0.232   6.503  0.00  0.00    +0.030 A 
ATOM     31  C   UNL     1      10.305   0.478   5.970  0.00  0.00    +0.025 A 
BRANCH  29  32
ATOM     32  S   UNL     1      13.361   0.042   8.541  0.00  0.00    +0.056 S 
ATOM     33  O   UNL     1      14.296   0.228   7.486  0.00  0.00    -0.153 OA
ATOM     34  O   UNL     1      13.437   0.764   9.762  0.00  0.00    -0.153 OA
BRANCH  32  35
ATOM     35  N   UNL     1      13.409  -1.566   8.937  0.00  0.00    -0.204 NA
ATOM     36  H   UNL     1      12.635  -2.128   8.778  0.00  0.00    +0.144 HD
ATOM     37  H   UNL     1      14.212  -1.945   9.329  0.00  0.00    +0.144 HD
ENDBRANCH  32  35
ENDBRANCH  29  32
ENDBRANCH  24  26
ENDBRANCH  21  22
ENDBRANCH  20  21
ENDBRANCH   1  20
TORSDOF 9
