REMARK  Name = ZINC64965979
REMARK  6 active torsions:
REMARK  status: ('A' for Active; 'I' for Inactive)
REMARK    1  A    between atoms: C_1  and  C_2
REMARK    2  A    between atoms: C_5  and  C_9
REMARK    3  A    between atoms: C_6  and  C_8
REMARK    4  A    between atoms: C_11  and  C_27
REMARK    5  A    between atoms: N_15  and  C_20
REMARK    6  A    between atoms: N_18  and  C_19
REMARK                            x       y       z     vdW  Elec       q    Type
REMARK                         _______ _______ _______ _____ _____    ______ ____
ROOT
ATOM      1  C   UNL     1       0.174  -4.252  -0.153  0.00  0.00    +0.163 A 
ATOM      2  N   UNL     1       0.333  -4.931   0.971  0.00  0.00    -0.220 NA
ATOM      3  C   UNL     1       0.584  -6.241   0.951  0.00  0.00    +0.155 A 
ATOM      4  C   UNL     1       0.677  -6.884  -0.284  0.00  0.00    +0.120 A 
ATOM      5  C   UNL     1       0.501  -6.122  -1.454  0.00  0.00    +0.170 A 
ATOM      6  N   UNL     1       0.250  -4.829  -1.347  0.00  0.00    -0.208 NA
ATOM      7  N   UNL     1       0.642  -6.994  -2.519  0.00  0.00    -0.245 N 
ATOM      8  C   UNL     1       0.891  -8.225  -2.032  0.00  0.00    +0.336 A 
ATOM      9  O   UNL     1       1.065  -9.222  -2.706  0.00  0.00    -0.246 OA
ATOM     10  N   UNL     1       0.917  -8.185  -0.686  0.00  0.00    -0.291 N 
ATOM     11  C   UNL     1       1.158  -9.326   0.202  0.00  0.00    +0.154 C 
ENDROOT
BRANCH   1  16
ATOM     12  C   UNL     1      -0.909   1.397   0.140  0.00  0.00    +0.044 C 
ATOM     13  C   UNL     1      -0.625  -0.081   0.064  0.00  0.00    -0.050 A 
ATOM     14  C   UNL     1       0.343  -0.553  -0.805  0.00  0.00    +0.004 A 
ATOM     15  C   UNL     1       0.606  -1.905  -0.879  0.00  0.00    +0.012 A 
ATOM     16  C   UNL     1      -0.105  -2.797  -0.077  0.00  0.00    +0.022 A 
ATOM     17  C   UNL     1      -1.079  -2.316   0.796  0.00  0.00    -0.040 A 
ATOM     18  C   UNL     1      -1.330  -0.960   0.866  0.00  0.00    +0.007 A 
ATOM     19  C   UNL     1      -1.852  -3.273   1.666  0.00  0.00    +0.044 C 
ENDBRANCH   1  16
BRANCH   7  20
ATOM     20  C   UNL     1       0.542  -6.654  -3.876  0.00  0.00    +0.053 A 
ATOM     21  C   UNL     1       0.285  -5.341  -4.246  0.00  0.00    +0.029 A 
ATOM     22  C   UNL     1       0.187  -5.008  -5.583  0.00  0.00    +0.040 A 
ATOM     23  C   UNL     1       0.344  -5.983  -6.554  0.00  0.00    +0.124 A 
ATOM     24  C   UNL     1       0.600  -7.294  -6.186  0.00  0.00    +0.040 A 
ATOM     25  C   UNL     1       0.705  -7.629  -4.851  0.00  0.00    +0.029 A 
ATOM     26  F   UNL     1       0.248  -5.656  -7.861  0.00  0.00    -0.205 F 
ENDBRANCH   7  20
BRANCH   3  27
ATOM     27  C   UNL     1       0.762  -6.997   2.212  0.00  0.00    +0.262 C 
ATOM     28  O   UNL     1      -0.128  -7.717   2.619  0.00  0.00    -0.269 OA
ATOM     29  N   UNL     1       1.910  -6.886   2.908  0.00  0.00    -0.324 N 
ATOM     30  H   UNL     1       2.621  -6.311   2.583  0.00  0.00    +0.145 HD
ATOM     31  H   UNL     1       2.027  -7.380   3.735  0.00  0.00    +0.145 HD
ENDBRANCH   3  27
TORSDOF 3
