REMARK  Name = ZINC13251307
REMARK  12 active torsions:
REMARK  status: ('A' for Active; 'I' for Inactive)
REMARK    1  A    between atoms: C_1  and  C_2
REMARK    2  A    between atoms: C_2  and  O_3
REMARK    3  A    between atoms: O_3  and  C_4
REMARK    4  A    between atoms: C_7  and  N_10
REMARK    5  A    between atoms: N_10  and  S_11
REMARK    6  A    between atoms: S_11  and  C_14
REMARK    7  A    between atoms: C_16  and  N_21
REMARK    8  A    between atoms: C_19  and  C_20
REMARK    9  A    between atoms: C_22  and  C_24
REMARK   10  A    between atoms: C_24  and  C_25
REMARK   11  A    between atoms: C_25  and  C_27
REMARK   12  A    between atoms: C_25  and  C_33
REMARK                            x       y       z     vdW  Elec       q    Type
REMARK                         _______ _______ _______ _____ _____    ______ ____
ROOT
ATOM      1  C   UNL     1      -1.226   1.552  -5.958  0.00  0.00    +0.113 A 
ATOM      2  C   UNL     1      -0.376   0.940  -5.058  0.00  0.00    +0.052 A 
ATOM      3  C   UNL     1      -0.543   1.149  -3.695  0.00  0.00    +0.035 A 
ATOM      4  C   UNL     1      -1.569   1.969  -3.242  0.00  0.00    +0.023 A 
ATOM      5  C   UNL     1      -2.412   2.582  -4.147  0.00  0.00    +0.007 A 
ATOM      6  C   UNL     1      -2.243   2.372  -5.504  0.00  0.00    -0.024 A 
ATOM      7  C   UNL     1      -3.168   3.038  -6.489  0.00  0.00    +0.046 C 
ENDROOT
BRANCH   3   8
ATOM      8  N   UNL     1       0.317   0.531  -2.780  0.00  0.00    -0.285 N 
ATOM      9  C   UNL     1       0.641   1.157  -1.631  0.00  0.00    +0.218 C 
ATOM     10  O   UNL     1       0.264   2.292  -1.432  0.00  0.00    -0.275 OA
ATOM     11  H   UNL     1       0.679  -0.348  -2.973  0.00  0.00    +0.155 HD
BRANCH   9  12
ATOM     12  C   UNL     1       1.472   0.445  -0.595  0.00  0.00    +0.115 C 
BRANCH  12  13
ATOM     13  C   UNL     1       1.695   1.371   0.603  0.00  0.00    +0.141 C 
BRANCH  13  14
ATOM     14  C   UNL     1       2.626   0.707   1.584  0.00  0.00    -0.033 A 
ATOM     15  C   UNL     1       2.276  -0.500   2.161  0.00  0.00    +0.004 A 
ATOM     16  C   UNL     1       3.132  -1.111   3.058  0.00  0.00    +0.000 A 
ATOM     17  C   UNL     1       4.334  -0.511   3.385  0.00  0.00    +0.000 A 
ATOM     18  C   UNL     1       4.681   0.698   2.812  0.00  0.00    +0.000 A 
ATOM     19  C   UNL     1       3.827   1.307   1.912  0.00  0.00    +0.004 A 
ENDBRANCH  13  14
BRANCH  13  20
ATOM     20  C   UNL     1       0.374   1.651   1.274  0.00  0.00    +0.364 C 
ATOM     21  O   UNL     1      -0.640   1.161   0.838  0.00  0.00    -0.246 OA
ATOM     22  O   UNL     1       0.326   2.445   2.355  0.00  0.00    -0.246 OA
ENDBRANCH  13  20
ENDBRANCH  12  13
ENDBRANCH   9  12
ENDBRANCH   3   8
BRANCH   1  23
ATOM     23  S   UNL     1      -1.015   1.288  -7.687  0.00  0.00    +0.073 S 
ATOM     24  O   UNL     1       0.120   0.446  -7.834  0.00  0.00    -0.150 OA
ATOM     25  O   UNL     1      -2.293   0.940  -8.204  0.00  0.00    -0.150 OA
BRANCH  23  26
ATOM     26  N   UNL     1      -0.613   2.746  -8.360  0.00  0.00    -0.216 N 
ATOM     27  H   UNL     1      -1.227   3.184  -8.970  0.00  0.00    +0.174 HD
BRANCH  26  31
ATOM     28  C   UNL     1       3.035   4.535  -7.432  0.00  0.00    +0.121 A 
ATOM     29  C   UNL     1       2.608   4.475  -8.750  0.00  0.00    +0.047 A 
ATOM     30  C   UNL     1       1.399   3.883  -9.058  0.00  0.00    +0.028 A 
ATOM     31  C   UNL     1       0.612   3.347  -8.048  0.00  0.00    +0.048 A 
ATOM     32  C   UNL     1       1.038   3.411  -6.728  0.00  0.00    +0.028 A 
ATOM     33  C   UNL     1       2.250   3.999  -6.422  0.00  0.00    +0.047 A 
BRANCH  28  34
ATOM     34  O   UNL     1       4.226   5.119  -7.129  0.00  0.00    -0.492 OA
BRANCH  34  36
ATOM     35  C   UNL     1       5.961   5.836  -5.607  0.00  0.00    +0.048 C 
ATOM     36  C   UNL     1       4.604   5.145  -5.751  0.00  0.00    +0.225 C 
ENDBRANCH  34  36
ENDBRANCH  28  34
ENDBRANCH  26  31
ENDBRANCH  23  26
ENDBRANCH   1  23
TORSDOF 10
