REMARK  Name = ZINC16044969
REMARK  5 active torsions:
REMARK  status: ('A' for Active; 'I' for Inactive)
REMARK    1  A    between atoms: C_1  and  C_2
REMARK    2  A    between atoms: C_5  and  C_8
REMARK    3  A    between atoms: C_11  and  C_14
REMARK    4  A    between atoms: C_19  and  C_21
REMARK    5  A    between atoms: C_21  and  N_22
REMARK                            x       y       z     vdW  Elec       q    Type
REMARK                         _______ _______ _______ _____ _____    ______ ____
ROOT
ATOM      1  C   UNL     1       2.192   0.518  -0.016  0.00  0.00    +0.069 C 
ATOM      2  N   UNL     1       1.327  -0.436  -0.013  0.00  0.00    -0.181 NA
ATOM      3  N   UNL     1       0.002  -0.004   0.002  0.00  0.00    -0.181 N 
ATOM      4  C   UNL     1      -0.018   1.467   0.010  0.00  0.00    +0.173 C 
ATOM      5  C   UNL     1       1.476   1.849  -0.002  0.00  0.00    +0.090 C 
ATOM      6  C   UNL     1      -1.083  -0.803   0.009  0.00  0.00    +0.253 C 
ATOM      7  O   UNL     1      -2.195  -0.316   0.022  0.00  0.00    -0.272 OA
ENDROOT
BRANCH   1  12
ATOM      8  C   UNL     1       7.901  -0.180  -0.076  0.00  0.00    +0.044 C 
ATOM      9  C   UNL     1       6.405   0.003  -0.061  0.00  0.00    -0.050 A 
ATOM     10  C   UNL     1       5.576  -1.105  -0.058  0.00  0.00    +0.004 A 
ATOM     11  C   UNL     1       4.206  -0.945  -0.044  0.00  0.00    +0.010 A 
ATOM     12  C   UNL     1       3.656   0.339  -0.032  0.00  0.00    -0.002 A 
ATOM     13  C   UNL     1       4.499   1.453  -0.040  0.00  0.00    +0.010 A 
ATOM     14  C   UNL     1       5.867   1.278  -0.049  0.00  0.00    +0.004 A 
ENDBRANCH   1  12
BRANCH   4  15
ATOM     15  C   UNL     1      -0.687   1.982   1.259  0.00  0.00    +0.128 A 
ATOM     16  C   UNL     1      -1.506   3.046   1.331  0.00  0.00    +0.046 A 
ATOM     17  C   UNL     1      -1.902   3.168   2.683  0.00  0.00    +0.041 A 
ATOM     18  C   UNL     1      -1.300   2.171   3.356  0.00  0.00    +0.195 A 
ATOM     19  O   UNL     1      -0.570   1.452   2.487  0.00  0.00    -0.466 OA
ENDBRANCH   4  15
BRANCH   6  20
ATOM     20  C   UNL     1      -0.917  -2.301  -0.001  0.00  0.00    +0.215 C 
BRANCH  20  21
ATOM     21  N   UNL     1      -2.236  -2.939   0.009  0.00  0.00    -0.215 N 
ATOM     22  C   UNL     1      -2.929  -3.263  -1.102  0.00  0.00    +0.251 C 
ATOM     23  O   UNL     1      -2.593  -3.088  -2.254  0.00  0.00    -0.272 OA
ATOM     24  C   UNL     1      -4.214  -3.890  -0.609  0.00  0.00    +0.138 C 
ATOM     25  C   UNL     1      -4.317  -5.332  -1.089  0.00  0.00    +0.040 C 
ATOM     26  C   UNL     1      -4.631  -5.323  -2.590  0.00  0.00    +0.008 C 
ATOM     27  C   UNL     1      -6.052  -4.799  -2.784  0.00  0.00    +0.035 C 
ATOM     28  C   UNL     1      -6.240  -3.491  -2.062  0.00  0.00    -0.042 A 
ATOM     29  C   UNL     1      -5.394  -3.074  -1.056  0.00  0.00    -0.012 A 
ATOM     30  C   UNL     1      -5.625  -1.860  -0.424  0.00  0.00    +0.006 A 
ATOM     31  C   UNL     1      -6.692  -1.067  -0.796  0.00  0.00    +0.000 A 
ATOM     32  C   UNL     1      -7.538  -1.484  -1.806  0.00  0.00    +0.000 A 
ATOM     33  C   UNL     1      -7.311  -2.691  -2.435  0.00  0.00    +0.004 A 
ATOM     34  N   UNL     1      -4.091  -3.845   0.855  0.00  0.00    -0.281 N 
ATOM     35  C   UNL     1      -2.899  -3.277   1.121  0.00  0.00    +0.310 C 
ATOM     36  O   UNL     1      -2.475  -3.090   2.244  0.00  0.00    -0.252 OA
ATOM     37  H   UNL     1      -4.738  -4.166   1.502  0.00  0.00    +0.152 HD
ENDBRANCH  20  21
ENDBRANCH   6  20
TORSDOF 4
