REMARK  Name = ZINC02429702
REMARK  1 active torsions:
REMARK  status: ('A' for Active; 'I' for Inactive)
REMARK    1  A    between atoms: N_20  and  C_23
REMARK                            x       y       z     vdW  Elec       q    Type
REMARK                         _______ _______ _______ _____ _____    ______ ____
ROOT
ATOM      1  C   UNL     1      -0.008   1.056   0.114  0.00  0.00    +0.022 A 
ATOM      2  C   UNL     1      -1.217   1.719   0.152  0.00  0.00    +0.025 A 
ATOM      3  C   UNL     1      -1.255   3.111   0.145  0.00  0.00    +0.036 A 
ATOM      4  C   UNL     1      -0.057   3.817   0.088  0.00  0.00    -0.026 A 
ATOM      5  C   UNL     1       1.148   3.153   0.044  0.00  0.00    +0.024 A 
ATOM      6  C   UNL     1       1.177   1.768   0.058  0.00  0.00    +0.041 A 
ATOM      7 CL   UNL     1       2.696   0.929   0.003  0.00  0.00    -0.084 Cl
ATOM      8  C   UNL     1      -0.436   5.272   0.088  0.00  0.00    +0.053 C 
ATOM      9  C   UNL     1       0.175   6.011   1.284  0.00  0.00    +0.089 C 
ATOM     10  C   UNL     1       1.437   6.696   0.715  0.00  0.00    +0.074 C 
ATOM     11  C   UNL     1       1.461   6.341  -0.783  0.00  0.00    -0.054 C 
ATOM     12  C   UNL     1      -0.654   7.250  -1.285  0.00  0.00    -0.076 C 
ATOM     13  C   UNL     1       0.363   8.186  -1.968  0.00  0.00    -0.020 C 
ATOM     14  C   UNL     1       1.746   7.600  -1.622  0.00  0.00    -0.016 C 
ATOM     15  C   UNL     1       1.115   8.164   0.878  0.00  0.00    +0.228 C 
ATOM     16  O   UNL     1       1.840   9.080   0.557  0.00  0.00    -0.275 OA
ATOM     17  N   UNL     1      -0.114   8.318   1.399  0.00  0.00    -0.210 N 
ATOM     18  C   UNL     1      -0.721   7.161   1.685  0.00  0.00    +0.229 C 
ATOM     19  O   UNL     1      -1.819   7.051   2.187  0.00  0.00    -0.275 OA
ATOM     20  C   UNL     1      -1.940   5.282   0.150  0.00  0.00    +0.212 C 
ATOM     21  O   UNL     1      -2.656   6.260   0.170  0.00  0.00    -0.277 OA
ATOM     22  N   UNL     1      -2.335   3.995   0.180  0.00  0.00    -0.286 N 
ATOM     23  H   UNL     1      -3.263   3.715   0.222  0.00  0.00    +0.155 HD
ATOM     24  N   UNL     1       0.090   5.991  -1.076  0.00  0.00    +0.395 N 
ATOM     25  H   UNL     1       0.033   5.401  -1.914  0.00  0.00    -0.079 HD
ENDROOT
BRANCH  17  26
ATOM     26  C   UNL     1      -0.700   9.566   1.656  0.00  0.00    +0.047 A 
ATOM     27  C   UNL     1      -0.157  10.403   2.620  0.00  0.00    +0.044 A 
ATOM     28  C   UNL     1      -0.735  11.635   2.868  0.00  0.00    +0.044 A 
ATOM     29  C   UNL     1      -1.858  12.029   2.163  0.00  0.00    +0.040 A 
ATOM     30  C   UNL     1      -2.403  11.193   1.204  0.00  0.00    +0.044 A 
ATOM     31  C   UNL     1      -1.827   9.962   0.949  0.00  0.00    +0.044 A 
ATOM     32 CL   UNL     1      -3.813  11.690   0.321  0.00  0.00    -0.083 Cl
ATOM     33 CL   UNL     1      -0.053  12.686   4.070  0.00  0.00    -0.083 Cl
ENDBRANCH  17  26
TORSDOF 1
