REMARK  Name = ZINC63350786
REMARK  4 active torsions:
REMARK  status: ('A' for Active; 'I' for Inactive)
REMARK    1  A    between atoms: C_1  and  C_2
REMARK    2  A    between atoms: N_19  and  N_22
REMARK    3  A    between atoms: C_23  and  C_24
REMARK    4  A    between atoms: C_29  and  O_30
REMARK                            x       y       z     vdW  Elec       q    Type
REMARK                         _______ _______ _______ _____ _____    ______ ____
ROOT
ATOM      1  C   UNL     1      -0.019   1.526   0.010  0.00  0.00    +0.044 C 
ATOM      2  C   UNL     1       0.002  -0.004   0.002  0.00  0.00    +0.136 C 
ATOM      3  C   UNL     1      -1.440  -0.519   0.067  0.00  0.00    +0.139 C 
ATOM      4  C   UNL     1      -1.961  -0.174   1.456  0.00  0.00    -0.034 C 
ATOM      5  C   UNL     1      -3.071   0.531   1.276  0.00  0.00    -0.001 A 
ATOM      6  C   UNL     1      -4.052   1.076   2.228  0.00  0.00    +0.010 A 
ATOM      7  C   UNL     1      -5.086   1.775   1.690  0.00  0.00    +0.001 A 
ATOM      8  C   UNL     1      -5.241   1.984   0.316  0.00  0.00    +0.002 A 
ATOM      9  C   UNL     1      -4.391   1.515  -0.631  0.00  0.00    +0.026 A 
ATOM     10  C   UNL     1      -3.266   0.760  -0.188  0.00  0.00    +0.043 A 
ATOM     11  N   UNL     1      -2.311   0.171  -0.886  0.00  0.00    -0.375 N 
ATOM     12  C   UNL     1      -1.216  -0.548   2.714  0.00  0.00    +0.052 C 
ATOM     13  C   UNL     1       0.234  -0.068   2.529  0.00  0.00    +0.113 C 
ATOM     14  N   UNL     1       0.713  -0.474   1.192  0.00  0.00    -0.284 N 
ATOM     15  C   UNL     1       1.791  -1.262   1.123  0.00  0.00    +0.236 C 
ATOM     16  O   UNL     1       2.293  -1.621   2.167  0.00  0.00    -0.274 OA
ATOM     17  C   UNL     1       2.422  -1.734  -0.145  0.00  0.00    +0.230 C 
ATOM     18  N   UNL     1       1.731  -1.231  -1.321  0.00  0.00    -0.182 N 
ATOM     19  C   UNL     1       0.639  -0.471  -1.264  0.00  0.00    +0.261 C 
ATOM     20  O   UNL     1       0.138  -0.123  -2.313  0.00  0.00    -0.271 OA
ATOM     21  H   UNL     1      -2.196   0.190  -1.849  0.00  0.00    +0.160 HD
ENDROOT
BRANCH  18  22
ATOM     22  N   UNL     1       2.231  -1.580  -2.582  0.00  0.00    -0.184 NA
ATOM     23  C   UNL     1       3.284  -2.333  -2.677  0.00  0.00    +0.142 C 
BRANCH  23  24
ATOM     24  C   UNL     1       3.810  -2.701  -4.004  0.00  0.00    +0.037 A 
ATOM     25  C   UNL     1       4.939  -3.516  -4.111  0.00  0.00    +0.028 A 
ATOM     26  C   UNL     1       5.426  -3.856  -5.356  0.00  0.00    +0.019 A 
ATOM     27  C   UNL     1       4.799  -3.393  -6.501  0.00  0.00    +0.019 A 
ATOM     28  C   UNL     1       3.681  -2.586  -6.408  0.00  0.00    +0.047 A 
ATOM     29  C   UNL     1       3.176  -2.239  -5.166  0.00  0.00    +0.126 A 
ATOM     30 BR   UNL     1       6.955  -4.959  -5.500  0.00  0.00    -0.050 Br
BRANCH  29  31
ATOM     31  O   UNL     1       2.075  -1.450  -5.074  0.00  0.00    -0.506 OA
ATOM     32  H   UNL     1       2.270  -0.503  -5.042  0.00  0.00    +0.292 HD
ENDBRANCH  29  31
ENDBRANCH  23  24
ENDBRANCH  18  22
TORSDOF 3
