REMARK  Name = ZINC34834857
REMARK  13 active torsions:
REMARK  status: ('A' for Active; 'I' for Inactive)
REMARK    1  A    between atoms: C_1  and  C_2
REMARK    2  A    between atoms: C_3  and  C_21
REMARK    3  A    between atoms: C_4  and  N_14
REMARK    4  A    between atoms: N_5  and  C_7
REMARK    5  A    between atoms: N_17  and  C_20
REMARK    6  A    between atoms: C_21  and  N_22
REMARK    7  A    between atoms: N_22  and  C_23
REMARK    8  A    between atoms: N_22  and  S_28
REMARK    9  A    between atoms: C_23  and  C_24
REMARK   10  A    between atoms: C_24  and  C_25
REMARK   11  A    between atoms: C_25  and  C_26
REMARK   12  A    between atoms: C_25  and  C_27
REMARK   13  A    between atoms: S_28  and  C_31
REMARK                            x       y       z     vdW  Elec       q    Type
REMARK                         _______ _______ _______ _____ _____    ______ ____
ROOT
ATOM      1  C   UNL     1       1.351   1.240  -0.697  0.00  0.00    +0.068 C 
ATOM      2  C   UNL     1       0.962  -0.195  -0.450  0.00  0.00    +0.067 A 
ATOM      3  C   UNL     1       0.196  -0.993  -1.306  0.00  0.00    +0.031 A 
ATOM      4  C   UNL     1       0.066  -2.219  -0.729  0.00  0.00    +0.129 A 
ATOM      5  N   UNL     1       0.734  -2.186   0.456  0.00  0.00    -0.218 N 
ATOM      6  N   UNL     1       1.288  -0.907   0.598  0.00  0.00    -0.170 NA
ENDROOT
BRANCH   4   7
ATOM      7  N   UNL     1      -0.624  -3.307  -1.255  0.00  0.00    -0.318 N 
ATOM      8  C   UNL     1      -2.079  -3.437  -1.081  0.00  0.00    +0.088 C 
ATOM      9  C   UNL     1      -2.710  -3.709  -2.450  0.00  0.00    -0.060 C 
ATOM     10  N   UNL     1      -2.067  -4.880  -3.060  0.00  0.00    +0.380 N 
ATOM     11  C   UNL     1      -0.653  -4.590  -3.328  0.00  0.00    -0.060 C 
ATOM     12  C   UNL     1       0.080  -4.358  -2.007  0.00  0.00    +0.088 C 
ATOM     13  C   UNL     1      -2.745  -5.207  -4.321  0.00  0.00    -0.096 C 
ATOM     14  H   UNL     1      -2.135  -5.665  -2.431  0.00  0.00    -0.082 HD
ENDBRANCH   4   7
BRANCH   5  15
ATOM     15  C   UNL     1       0.851  -3.243   1.368  0.00  0.00    +0.070 A 
ATOM     16  C   UNL     1      -0.255  -4.026   1.671  0.00  0.00    +0.028 A 
ATOM     17  C   UNL     1      -0.138  -5.067   2.571  0.00  0.00    +0.005 A 
ATOM     18  C   UNL     1       1.080  -5.332   3.170  0.00  0.00    +0.038 A 
ATOM     19  C   UNL     1       2.186  -4.554   2.870  0.00  0.00    +0.125 A 
ATOM     20  C   UNL     1       2.075  -3.513   1.966  0.00  0.00    +0.066 A 
ATOM     21  F   UNL     1       3.374  -4.815   3.457  0.00  0.00    -0.205 F 
ENDBRANCH   5  15
BRANCH   3  22
ATOM     22  C   UNL     1      -0.383  -0.569  -2.632  0.00  0.00    +0.149 C 
BRANCH  22  23
ATOM     23  N   UNL     1      -0.196   0.873  -2.808  0.00  0.00    -0.172 NA
BRANCH  23  24
ATOM     24  S   UNL     1      -1.444   1.914  -2.488  0.00  0.00    +0.061 S 
ATOM     25  O   UNL     1      -1.104   3.153  -3.096  0.00  0.00    -0.153 OA
ATOM     26  O   UNL     1      -2.643   1.218  -2.797  0.00  0.00    -0.153 OA
BRANCH  24  27
ATOM     27  C   UNL     1      -1.457   2.193  -0.749  0.00  0.00    +0.106 A 
ATOM     28  C   UNL     1      -2.088   1.294   0.090  0.00  0.00    +0.031 A 
ATOM     29  C   UNL     1      -2.098   1.511   1.455  0.00  0.00    +0.040 A 
ATOM     30  C   UNL     1      -1.477   2.631   1.982  0.00  0.00    +0.124 A 
ATOM     31  C   UNL     1      -0.845   3.531   1.141  0.00  0.00    +0.040 A 
ATOM     32  C   UNL     1      -0.831   3.308  -0.223  0.00  0.00    +0.031 A 
ATOM     33  F   UNL     1      -1.487   2.844   3.316  0.00  0.00    -0.205 F 
ENDBRANCH  24  27
ENDBRANCH  23  24
BRANCH  23  34
ATOM     34  C   UNL     1       1.094   1.394  -3.267  0.00  0.00    +0.110 C 
BRANCH  34  35
ATOM     35  C   UNL     1       1.131   1.391  -4.796  0.00  0.00    +0.020 C 
BRANCH  35  36
ATOM     36  C   UNL     1       2.522   1.809  -5.274  0.00  0.00    -0.016 C 
ATOM     37  C   UNL     1       2.611   1.646  -6.792  0.00  0.00    +0.007 C 
ATOM     38  C   UNL     1       2.771   3.273  -4.903  0.00  0.00    +0.007 C 
ENDBRANCH  35  36
ENDBRANCH  34  35
ENDBRANCH  23  34
ENDBRANCH  22  23
ENDBRANCH   3  22
TORSDOF 9
