REMARK  Name = ZINC39480363
REMARK  5 active torsions:
REMARK  status: ('A' for Active; 'I' for Inactive)
REMARK    1  A    between atoms: C_1  and  C_2
REMARK    2  A    between atoms: C_2  and  C_3
REMARK    3  A    between atoms: C_2  and  S_4
REMARK    4  A    between atoms: S_4  and  C_7
REMARK    5  A    between atoms: N_16  and  C_26
REMARK                            x       y       z     vdW  Elec       q    Type
REMARK                         _______ _______ _______ _____ _____    ______ ____
ROOT
ATOM      1  C   UNL     1      -0.038   0.027   2.837  0.00  0.00    +0.159 C 
ATOM      2  N   UNL     1      -0.906  -0.704   3.367  0.00  0.00    -0.227 NA
ATOM      3  C   UNL     1      -1.772  -0.860   4.359  0.00  0.00    +0.142 A 
ATOM      4  C   UNL     1      -1.901  -0.050   5.503  0.00  0.00    +0.156 A 
ATOM      5  N   UNL     1      -2.750  -0.397   6.466  0.00  0.00    -0.218 NA
ATOM      6  C   UNL     1      -3.525  -1.454   6.348  0.00  0.00    +0.225 A 
ATOM      7  N   UNL     1      -3.488  -2.212   5.270  0.00  0.00    -0.222 NA
ATOM      8  C   UNL     1      -2.650  -1.962   4.283  0.00  0.00    +0.160 A 
ATOM      9 CL   UNL     1      -2.627  -2.992   2.886  0.00  0.00    -0.060 Cl
ATOM     10  N   UNL     1      -1.208   1.138   5.628  0.00  0.00    -0.284 N 
ATOM     11  C   UNL     1       0.183   1.147   5.789  0.00  0.00    +0.074 A 
ATOM     12  C   UNL     1       0.950   1.327   4.655  0.00  0.00    -0.015 A 
ATOM     13  C   UNL     1       2.325   1.380   4.748  0.00  0.00    +0.020 A 
ATOM     14  C   UNL     1       2.931   1.232   5.985  0.00  0.00    +0.016 A 
ATOM     15  C   UNL     1       2.165   1.032   7.120  0.00  0.00    +0.054 A 
ATOM     16  C   UNL     1       0.783   0.989   7.028  0.00  0.00    +0.146 A 
ATOM     17  F   UNL     1       0.030   0.796   8.133  0.00  0.00    -0.203 F 
ATOM     18  I   UNL     1       5.019   1.310   6.138  0.00  0.00    -0.044 I 
ATOM     19  C   UNL     1       0.258   1.426   3.324  0.00  0.00    +0.112 C 
ATOM     20  C   UNL     1      -1.938   2.407   5.590  0.00  0.00    +0.137 C 
ENDROOT
BRANCH   1  21
ATOM     21  S   UNL     1       0.879  -0.605   1.472  0.00  0.00    +0.013 S 
ATOM     22  O   UNL     1       0.754  -2.017   1.573  0.00  0.00    -0.168 OA
ATOM     23  O   UNL     1       2.152   0.018   1.571  0.00  0.00    -0.168 OA
BRANCH  21  25
ATOM     24  C   UNL     1      -0.019   1.526   0.010  0.00  0.00    +0.032 C 
ATOM     25  C   UNL     1       0.002  -0.004   0.002  0.00  0.00    +0.131 C 
ATOM     26  C   UNL     1       0.718  -0.497  -1.257  0.00  0.00    +0.032 C 
ENDBRANCH  21  25
ENDBRANCH   1  21
TORSDOF 2
