REMARK  Name = ZINC23437882
REMARK  9 active torsions:
REMARK  status: ('A' for Active; 'I' for Inactive)
REMARK    1  A    between atoms: C_1  and  C_2
REMARK    2  A    between atoms: C_2  and  C_3
REMARK    3  A    between atoms: C_2  and  C_4
REMARK    4  A    between atoms: C_4  and  C_6
REMARK    5  A    between atoms: C_4  and  N_23
REMARK    6  A    between atoms: N_11  and  C_14
REMARK    7  A    between atoms: C_14  and  C_15
REMARK    8  A    between atoms: C_18  and  C_21
REMARK    9  A    between atoms: C_24  and  C_26
REMARK                            x       y       z     vdW  Elec       q    Type
REMARK                         _______ _______ _______ _____ _____    ______ ____
ROOT
ATOM      1  C   UNL     1       0.605   4.844  -1.636  0.00  0.00    +0.236 C 
ATOM      2  O   UNL     1       1.570   5.334  -1.089  0.00  0.00    -0.274 OA
ATOM      3  N   UNL     1       0.182   3.615  -1.281  0.00  0.00    -0.298 N 
ATOM      4  C   UNL     1       0.939   2.805  -0.314  0.00  0.00    +0.123 C 
ATOM      5  C   UNL     1       1.176   1.418  -0.921  0.00  0.00    +0.103 C 
ATOM      6  N   UNL     1      -0.109   0.844  -1.340  0.00  0.00    -0.295 NA
ATOM      7  C   UNL     1      -0.734   1.650  -2.397  0.00  0.00    +0.103 C 
ATOM      8  C   UNL     1      -1.049   3.047  -1.851  0.00  0.00    +0.123 C 
ENDROOT
BRANCH   1   9
ATOM      9  C   UNL     1      -0.121   5.610  -2.712  0.00  0.00    +0.162 C 
BRANCH   9  10
ATOM     10  N   UNL     1      -0.079   7.042  -2.405  0.00  0.00    -0.300 N 
ATOM     11  C   UNL     1      -1.031   7.863  -2.889  0.00  0.00    +0.245 C 
ATOM     12  O   UNL     1      -1.926   7.416  -3.580  0.00  0.00    -0.270 OA
ATOM     13  H   UNL     1       0.731   7.447  -1.780  0.00  0.00    +0.150 HD
BRANCH  11  14
ATOM     14  C   UNL     1      -0.988   9.308  -2.580  0.00  0.00    +0.037 A 
ATOM     15  C   UNL     1       0.035   9.824  -1.782  0.00  0.00    +0.014 A 
ATOM     16  C   UNL     1       0.073  11.174  -1.502  0.00  0.00    +0.021 A 
ATOM     17  C   UNL     1      -0.908  12.015  -2.001  0.00  0.00    +0.041 A 
ATOM     18  C   UNL     1      -1.928  11.508  -2.788  0.00  0.00    +0.021 A 
ATOM     19  C   UNL     1      -1.974  10.161  -3.080  0.00  0.00    +0.014 A 
ATOM     20 CL   UNL     1      -0.857  13.712  -1.638  0.00  0.00    -0.084 Cl
ENDBRANCH  11  14
ENDBRANCH   9  10
BRANCH   9  22
ATOM     21  C   UNL     1       1.986   5.894  -4.024  0.00  0.00    +0.009 C 
ATOM     22  C   UNL     1       0.554   5.357  -4.061  0.00  0.00    +0.012 C 
ATOM     23  C   UNL     1       0.580   3.854  -4.345  0.00  0.00    +0.009 C 
ENDBRANCH   9  22
ENDBRANCH   1   9
BRANCH   6  24
ATOM     24  C   UNL     1       0.052  -0.552  -1.768  0.00  0.00    +0.119 C 
BRANCH  24  25
ATOM     25  C   UNL     1      -1.304  -1.180  -1.954  0.00  0.00    -0.033 A 
ATOM     26  C   UNL     1      -1.917  -1.824  -0.894  0.00  0.00    +0.006 A 
ATOM     27  C   UNL     1      -3.161  -2.397  -1.056  0.00  0.00    +0.019 A 
ATOM     28  C   UNL     1      -3.798  -2.336  -2.297  0.00  0.00    +0.052 A 
ATOM     29  C   UNL     1      -3.172  -1.690  -3.365  0.00  0.00    +0.019 A 
ATOM     30  C   UNL     1      -1.930  -1.116  -3.187  0.00  0.00    +0.006 A 
BRANCH  28  31
ATOM     31  C   UNL     1      -5.087  -2.934  -2.474  0.00  0.00    +0.099 C 
ATOM     32  N   UNL     1      -6.110  -3.408  -2.614  0.00  0.00    -0.191 NA
ENDBRANCH  28  31
ENDBRANCH  24  25
ENDBRANCH   6  24
TORSDOF 7
