REMARK  Name = ZINC16286669
REMARK  5 active torsions:
REMARK  status: ('A' for Active; 'I' for Inactive)
REMARK    1  A    between atoms: C_3  and  C_6
REMARK    2  A    between atoms: C_6  and  C_8
REMARK    3  A    between atoms: C_10  and  C_22
REMARK    4  A    between atoms: C_16  and  C_17
REMARK    5  A    between atoms: C_16  and  O_21
REMARK                            x       y       z     vdW  Elec       q    Type
REMARK                         _______ _______ _______ _____ _____    ______ ____
ROOT
ATOM      1  C   UNL     1       1.697   3.292  -0.729  0.00  0.00    +0.144 C 
ATOM      2  C   UNL     1       0.295   3.821  -1.048  0.00  0.00    +0.118 C 
ATOM      3  N   UNL     1       0.028   3.642  -2.476  0.00  0.00    -0.319 N 
ATOM      4  C   UNL     1       0.594   2.645  -3.172  0.00  0.00    +0.133 C 
ATOM      5  S   UNL     1       0.223   2.490  -4.836  0.00  0.00    -0.019 S 
ATOM      6  N   UNL     1       1.441   1.764  -2.616  0.00  0.00    -0.291 N 
ATOM      7  C   UNL     1       1.788   1.836  -1.196  0.00  0.00    +0.241 C 
ATOM      8  H   UNL     1      -0.571   4.256  -2.928  0.00  0.00    +0.148 HD
ATOM      9  H   UNL     1       1.831   1.066  -3.166  0.00  0.00    +0.151 HD
ENDROOT
BRANCH   2  10
ATOM     10  C   UNL     1       0.216   5.285  -0.699  0.00  0.00    -0.023 A 
ATOM     11  C   UNL     1      -0.244   5.674   0.545  0.00  0.00    +0.009 A 
ATOM     12  C   UNL     1      -0.312   7.015   0.872  0.00  0.00    +0.050 A 
ATOM     13  C   UNL     1       0.071   7.974  -0.052  0.00  0.00    +0.166 A 
ATOM     14  C   UNL     1       0.530   7.582  -1.307  0.00  0.00    +0.167 A 
ATOM     15  C   UNL     1       0.600   6.236  -1.626  0.00  0.00    +0.055 A 
ATOM     16  O   UNL     1       0.841   8.700  -2.026  0.00  0.00    -0.453 OA
ATOM     17  C   UNL     1       0.184   9.788  -1.349  0.00  0.00    +0.466 C 
ATOM     18  O   UNL     1       0.095   9.337   0.016  0.00  0.00    -0.453 OA
ENDBRANCH   2  10
BRANCH   7  19
ATOM     19  C   UNL     1       3.215   1.321  -0.992  0.00  0.00    +0.436 C 
ATOM     20  F   UNL     1       3.297  -0.007  -1.422  0.00  0.00    -0.166 F 
ATOM     21  F   UNL     1       4.104   2.107  -1.732  0.00  0.00    -0.166 F 
ATOM     22  F   UNL     1       3.546   1.394   0.365  0.00  0.00    -0.166 F 
ENDBRANCH   7  19
BRANCH   1  23
ATOM     23  C   UNL     1       2.730   4.121  -1.449  0.00  0.00    +0.179 C 
ATOM     24  O   UNL     1       2.575   4.400  -2.620  0.00  0.00    -0.291 OA
BRANCH  23  27
ATOM     25  C   UNL     1       5.936   5.636  -0.343  0.00  0.00    +0.008 A 
ATOM     26  C   UNL     1       4.939   5.338  -1.234  0.00  0.00    +0.019 A 
ATOM     27  C   UNL     1       3.879   4.571  -0.761  0.00  0.00    +0.055 A 
ATOM     28  S   UNL     1       4.344   4.313   0.942  0.00  0.00    -0.094 S 
ATOM     29  C   UNL     1       5.845   5.180   0.935  0.00  0.00    +0.046 A 
ENDBRANCH  23  27
ENDBRANCH   1  23
BRANCH   7  30
ATOM     30  O   UNL     1       0.878   1.034  -0.441  0.00  0.00    -0.364 OA
ATOM     31  H   UNL     1       0.881   0.099  -0.686  0.00  0.00    +0.212 HD
ENDBRANCH   7  30
TORSDOF 5
