REMARK  Name = ZINC48342711
REMARK  8 active torsions:
REMARK  status: ('A' for Active; 'I' for Inactive)
REMARK    1  A    between atoms: C_1  and  C_2
REMARK    2  A    between atoms: C_2  and  C_4
REMARK    3  A    between atoms: C_2  and  N_22
REMARK    4  A    between atoms: C_4  and  N_5
REMARK    5  A    between atoms: C_6  and  C_8
REMARK    6  A    between atoms: C_8  and  C_9
REMARK    7  A    between atoms: C_12  and  C_18
REMARK    8  A    between atoms: C_14  and  N_15
REMARK                            x       y       z     vdW  Elec       q    Type
REMARK                         _______ _______ _______ _____ _____    ______ ____
ROOT
ATOM      1  N   UNL     1      -1.548  -1.964  -0.418  0.00  0.00    -0.317 N 
ATOM      2  C   UNL     1      -2.817  -2.387  -0.260  0.00  0.00    +0.217 C 
ATOM      3  O   UNL     1      -3.729  -1.588  -0.276  0.00  0.00    -0.275 OA
ATOM      4  H   UNL     1      -0.818  -2.603  -0.405  0.00  0.00    +0.149 HD
ENDROOT
BRANCH   1   5
ATOM      5  C   UNL     1      -1.269  -0.539  -0.609  0.00  0.00    +0.089 C 
BRANCH   5   7
ATOM      6  C   UNL     1       0.529   1.152  -1.002  0.00  0.00    -0.012 C 
ATOM      7  C   UNL     1       0.242  -0.325  -0.720  0.00  0.00    -0.054 C 
BRANCH   7   8
ATOM      8  N   UNL     1       0.774  -1.145  -1.816  0.00  0.00    +0.385 N 
ATOM      9  C   UNL     1       2.224  -0.928  -1.933  0.00  0.00    -0.073 C 
ATOM     10  C   UNL     1       2.804  -2.001  -2.856  0.00  0.00    +0.017 C 
ATOM     11  C   UNL     1       2.014  -2.053  -4.138  0.00  0.00    -0.048 A 
ATOM     12  C   UNL     1       2.566  -2.697  -5.234  0.00  0.00    +0.004 A 
ATOM     13  C   UNL     1       1.869  -2.768  -6.424  0.00  0.00    +0.000 A 
ATOM     14  C   UNL     1       0.616  -2.193  -6.523  0.00  0.00    +0.000 A 
ATOM     15  C   UNL     1       0.066  -1.550  -5.432  0.00  0.00    +0.002 A 
ATOM     16  C   UNL     1       0.765  -1.477  -4.236  0.00  0.00    -0.061 A 
ATOM     17  C   UNL     1       0.130  -0.759  -3.075  0.00  0.00    -0.042 C 
ATOM     18  H   UNL     1       0.591  -2.119  -1.628  0.00  0.00    -0.081 HD
ENDBRANCH   7   8
ENDBRANCH   5   7
ENDBRANCH   1   5
BRANCH   2  19
ATOM     19  C   UNL     1      -3.104  -3.854  -0.063  0.00  0.00    +0.133 C 
BRANCH  19  20
ATOM     20  C   UNL     1      -4.589  -4.059   0.087  0.00  0.00    -0.008 A 
ATOM     21  C   UNL     1      -5.133  -4.277   1.339  0.00  0.00    +0.007 A 
ATOM     22  C   UNL     1      -6.495  -4.466   1.478  0.00  0.00    +0.013 A 
ATOM     23  C   UNL     1      -7.314  -4.437   0.364  0.00  0.00    +0.057 A 
ATOM     24  C   UNL     1      -6.770  -4.218  -0.888  0.00  0.00    +0.045 A 
ATOM     25  C   UNL     1      -5.408  -4.025  -1.026  0.00  0.00    +0.130 A 
BRANCH  23  26
ATOM     26  C   UNL     1      -8.799  -4.643   0.514  0.00  0.00    +0.417 C 
ATOM     27  F   UNL     1      -9.107  -4.844   1.864  0.00  0.00    -0.166 F 
ATOM     28  F   UNL     1      -9.477  -3.514   0.044  0.00  0.00    -0.166 F 
ATOM     29  F   UNL     1      -9.191  -5.764  -0.225  0.00  0.00    -0.166 F 
ENDBRANCH  23  26
BRANCH  25  30
ATOM     30  N   UNL     1      -4.826  -3.785  -2.365  0.00  0.00    +0.057 N 
ATOM     31  O   UNL     1      -5.545  -3.738  -3.337  0.00  0.00    -0.126 OA
ATOM     32  O   UNL     1      -3.633  -3.638  -2.489  0.00  0.00    -0.126 OA
ENDBRANCH  25  30
ENDBRANCH  19  20
ENDBRANCH   2  19
TORSDOF 7
