REMARK  Name = ZINC31055959
REMARK  7 active torsions:
REMARK  status: ('A' for Active; 'I' for Inactive)
REMARK    1  A    between atoms: C_1  and  O_2
REMARK    2  A    between atoms: O_2  and  C_3
REMARK    3  A    between atoms: C_12  and  N_14
REMARK    4  A    between atoms: C_15  and  C_17
REMARK    5  A    between atoms: N_22  and  C_24
REMARK    6  A    between atoms: C_24  and  C_25
REMARK    7  A    between atoms: C_27  and  C_30
REMARK                            x       y       z     vdW  Elec       q    Type
REMARK                         _______ _______ _______ _____ _____    ______ ____
ROOT
ATOM      1  C   UNL     1       5.936   8.821   2.882  0.00  0.00    +0.058 C 
ATOM      2  C   UNL     1       4.638   9.073   3.655  0.00  0.00    +0.009 C 
ATOM      3  C   UNL     1       3.744   7.834   3.553  0.00  0.00    -0.018 C 
ATOM      4  C   UNL     1       3.472   7.528   2.078  0.00  0.00    -0.078 C 
ATOM      5  N   UNL     1       4.744   7.294   1.383  0.00  0.00    +0.386 N 
ATOM      6  C   UNL     1       5.601   8.486   1.427  0.00  0.00    -0.065 C 
ATOM      7  H   UNL     1       5.269   6.484   1.909  0.00  0.00    -0.081 HD
ENDROOT
BRANCH   1   9
ATOM      8  N   UNL     1       7.219  10.540   4.114  0.00  0.00    -0.308 N 
ATOM      9  C   UNL     1       6.798  10.056   2.929  0.00  0.00    +0.215 C 
ATOM     10  O   UNL     1       7.114  10.614   1.899  0.00  0.00    -0.276 OA
ATOM     11  H   UNL     1       6.933  10.034   5.048  0.00  0.00    +0.149 HD
BRANCH   8  21
ATOM     12  C   UNL     1      12.116  10.549   3.515  0.00  0.00    +0.120 A 
ATOM     13  C   UNL     1      11.084   9.991   2.773  0.00  0.00    +0.046 A 
ATOM     14  C   UNL     1       9.785  10.391   3.002  0.00  0.00    +0.009 A 
ATOM     15  C   UNL     1       9.498  11.348   3.969  0.00  0.00    -0.024 A 
ATOM     16  C   UNL     1      10.521  11.899   4.709  0.00  0.00    -0.039 A 
ATOM     17  C   UNL     1      11.830  11.500   4.479  0.00  0.00    +0.049 A 
ATOM     18  C   UNL     1      10.281  12.929   5.782  0.00  0.00    +0.035 C 
ATOM     19  C   UNL     1       8.901  13.563   5.618  0.00  0.00    +0.007 C 
ATOM     20  C   UNL     1       7.863  12.440   5.503  0.00  0.00    +0.027 C 
ATOM     21  C   UNL     1       8.057  11.741   4.159  0.00  0.00    +0.103 C 
BRANCH  12  23
ATOM     22  C   UNL     1      13.618   9.177   2.284  0.00  0.00    +0.277 C 
ATOM     23  O   UNL     1      13.400  10.163   3.295  0.00  0.00    -0.495 OA
ENDBRANCH  12  23
ENDBRANCH   8  21
ENDBRANCH   1   9
BRANCH   5  24
ATOM     24  C   UNL     1       4.515   6.862  -0.003  0.00  0.00    +0.022 C 
BRANCH  24  25
ATOM     25  C   UNL     1       3.846   5.512  -0.003  0.00  0.00    +0.211 A 
ATOM     26  N   UNL     1       2.556   5.282   0.007  0.00  0.00    -0.193 NA
ATOM     27  C   UNL     1       2.427   3.936   0.001  0.00  0.00    +0.203 A 
ATOM     28  N   UNL     1       3.634   3.432  -0.007  0.00  0.00    -0.056 NA
ATOM     29  O   UNL     1       4.457   4.323  -0.015  0.00  0.00    -0.340 OA
BRANCH  27  30
ATOM     30  C   UNL     1       1.154   3.174   0.008  0.00  0.00    +0.041 A 
ATOM     31  C   UNL     1       1.173   1.780   0.000  0.00  0.00    +0.014 A 
ATOM     32  C   UNL     1      -0.013   1.076   0.008  0.00  0.00    +0.021 A 
ATOM     33  C   UNL     1      -1.222   1.750   0.017  0.00  0.00    +0.042 A 
ATOM     34  C   UNL     1      -1.248   3.134   0.031  0.00  0.00    +0.040 A 
ATOM     35  C   UNL     1      -0.066   3.849   0.023  0.00  0.00    +0.053 A 
ATOM     36 CL   UNL     1      -0.099   5.585   0.032  0.00  0.00    -0.083 Cl
ATOM     37 CL   UNL     1      -2.711   0.857   0.019  0.00  0.00    -0.083 Cl
ENDBRANCH  27  30
ENDBRANCH  24  25
ENDBRANCH   5  24
TORSDOF 6
