REMARK  Name = ZINC34747119
REMARK  7 active torsions:
REMARK  status: ('A' for Active; 'I' for Inactive)
REMARK    1  A    between atoms: C_1  and  C_2
REMARK    2  A    between atoms: C_2  and  N_3
REMARK    3  A    between atoms: N_22  and  C_23
REMARK    4  A    between atoms: C_23  and  C_24
REMARK    5  A    between atoms: N_26  and  C_27
REMARK    6  A    between atoms: C_30  and  O_33
REMARK    7  A    between atoms: O_33  and  C_34
REMARK                            x       y       z     vdW  Elec       q    Type
REMARK                         _______ _______ _______ _____ _____    ______ ____
ROOT
ATOM      1  N   UNL     1      -2.265   0.339   0.060  0.00  0.00    +0.382 N 
ATOM      2  C   UNL     1      -3.714   0.177   0.240  0.00  0.00    -0.060 C 
ATOM      3  C   UNL     1      -4.054  -1.315   0.320  0.00  0.00    +0.089 C 
ATOM      4  N   UNL     1      -3.512  -1.981  -0.874  0.00  0.00    -0.304 N 
ATOM      5  C   UNL     1      -2.103  -1.742  -1.222  0.00  0.00    +0.089 C 
ATOM      6  C   UNL     1      -1.855  -0.230  -1.230  0.00  0.00    -0.060 C 
ATOM      7  C   UNL     1      -4.299  -2.804  -1.641  0.00  0.00    +0.202 A 
ATOM      8  N   UNL     1      -5.057  -2.284  -2.583  0.00  0.00    -0.208 NA
ATOM      9  C   UNL     1      -5.828  -3.057  -3.340  0.00  0.00    +0.117 A 
ATOM     10  C   UNL     1      -5.875  -4.452  -3.178  0.00  0.00    +0.076 A 
ATOM     11  C   UNL     1      -6.772  -5.170  -4.085  0.00  0.00    -0.023 A 
ATOM     12  C   UNL     1      -7.459  -4.431  -4.980  0.00  0.00    -0.004 A 
ATOM     13  S   UNL     1      -6.960  -2.758  -4.673  0.00  0.00    -0.073 S 
ATOM     14  C   UNL     1      -8.431  -4.923  -6.008  0.00  0.00    +0.043 C 
ATOM     15  C   UNL     1      -8.261  -6.443  -6.148  0.00  0.00    +0.005 C 
ATOM     16  C   UNL     1      -8.236  -7.065  -4.749  0.00  0.00    +0.005 C 
ATOM     17  C   UNL     1      -6.937  -6.687  -4.036  0.00  0.00    +0.037 C 
ATOM     18  C   UNL     1      -5.040  -4.988  -2.147  0.00  0.00    +0.264 A 
ATOM     19  O   UNL     1      -5.015  -6.188  -1.934  0.00  0.00    -0.267 OA
ATOM     20  N   UNL     1      -4.279  -4.150  -1.420  0.00  0.00    -0.271 N 
ATOM     21  H   UNL     1      -1.781  -0.137   0.806  0.00  0.00    -0.082 HD
ENDROOT
BRANCH   1  23
ATOM     22  C   UNL     1      -2.239   2.335   1.480  0.00  0.00    -0.017 C 
ATOM     23  C   UNL     1      -1.927   1.768   0.093  0.00  0.00    -0.082 C 
ENDBRANCH   1  23
BRANCH  20  24
ATOM     24  C   UNL     1      -3.418  -4.693  -0.366  0.00  0.00    +0.224 C 
BRANCH  24  25
ATOM     25  C   UNL     1      -4.217  -4.854   0.902  0.00  0.00    +0.237 C 
ATOM     26  O   UNL     1      -5.390  -4.546   0.923  0.00  0.00    -0.274 OA
ATOM     27  N   UNL     1      -3.628  -5.341   2.012  0.00  0.00    -0.284 N 
ATOM     28  H   UNL     1      -2.672  -5.508   2.021  0.00  0.00    +0.155 HD
BRANCH  27  29
ATOM     29  C   UNL     1      -4.396  -5.606   3.154  0.00  0.00    +0.034 A 
ATOM     30  C   UNL     1      -3.806  -5.573   4.410  0.00  0.00    +0.027 A 
ATOM     31  C   UNL     1      -4.563  -5.834   5.535  0.00  0.00    +0.047 A 
ATOM     32  C   UNL     1      -5.913  -6.129   5.410  0.00  0.00    +0.120 A 
ATOM     33  C   UNL     1      -6.503  -6.163   4.155  0.00  0.00    +0.047 A 
ATOM     34  C   UNL     1      -5.748  -5.896   3.030  0.00  0.00    +0.027 A 
BRANCH  32  35
ATOM     35  O   UNL     1      -6.658  -6.386   6.518  0.00  0.00    -0.495 OA
ATOM     36  C   UNL     1      -8.041  -6.683   6.315  0.00  0.00    +0.277 C 
ENDBRANCH  32  35
ENDBRANCH  27  29
ENDBRANCH  24  25
ENDBRANCH  20  24
TORSDOF 5
