REMARK  Name = ZINC10104668
REMARK  4 active torsions:
REMARK  status: ('A' for Active; 'I' for Inactive)
REMARK    1  A    between atoms: C_1  and  N_2
REMARK    2  A    between atoms: N_7  and  C_10
REMARK    3  A    between atoms: C_13  and  C_24
REMARK    4  A    between atoms: N_14  and  C_17
REMARK                            x       y       z     vdW  Elec       q    Type
REMARK                         _______ _______ _______ _____ _____    ______ ____
ROOT
ATOM      1  C   UNL     1       0.001   0.682   0.127  0.00  0.00    +0.155 C 
ATOM      2  N   UNL     1      -0.695   1.011   1.374  0.00  0.00    -0.280 N 
ATOM      3  C   UNL     1       0.026   1.439   2.478  0.00  0.00    +0.170 A 
ATOM      4  C   UNL     1      -0.663   1.745   3.651  0.00  0.00    +0.157 A 
ATOM      5  C   UNL     1      -2.061   1.611   3.680  0.00  0.00    +0.283 A 
ATOM      6  O   UNL     1      -2.683   1.874   4.694  0.00  0.00    -0.265 OA
ATOM      7  N   UNL     1      -2.707   1.190   2.573  0.00  0.00    -0.262 N 
ATOM      8  C   UNL     1      -2.035   0.902   1.445  0.00  0.00    +0.333 A 
ATOM      9  O   UNL     1      -2.653   0.530   0.466  0.00  0.00    -0.246 OA
ATOM     10  C   UNL     1      -4.165   1.050   2.600  0.00  0.00    +0.157 C 
ATOM     11  N   UNL     1       0.294   2.139   4.574  0.00  0.00    -0.277 N 
ATOM     12  C   UNL     1       0.500   2.576   5.868  0.00  0.00    +0.121 A 
ATOM     13  C   UNL     1       1.819   2.767   6.043  0.00  0.00    +0.074 A 
ATOM     14  N   UNL     1       2.460   2.450   4.852  0.00  0.00    -0.278 N 
ATOM     15  C   UNL     1       1.500   2.063   3.951  0.00  0.00    +0.223 A 
ATOM     16  N   UNL     1       1.321   1.645   2.707  0.00  0.00    -0.193 NA
ENDROOT
BRANCH  14  17
ATOM     17  C   UNL     1       3.838   2.514   4.613  0.00  0.00    +0.050 A 
ATOM     18  C   UNL     1       4.698   1.639   5.264  0.00  0.00    +0.027 A 
ATOM     19  C   UNL     1       6.057   1.702   5.024  0.00  0.00    +0.017 A 
ATOM     20  C   UNL     1       6.562   2.642   4.143  0.00  0.00    +0.018 A 
ATOM     21  C   UNL     1       5.708   3.518   3.497  0.00  0.00    +0.017 A 
ATOM     22  C   UNL     1       4.348   3.457   3.730  0.00  0.00    +0.027 A 
ATOM     23 BR   UNL     1       8.424   2.729   3.821  0.00  0.00    -0.050 Br
ENDBRANCH  14  17
BRANCH  13  24
ATOM     24  C   UNL     1       2.473   3.233   7.286  0.00  0.00    +0.000 A 
ATOM     25  C   UNL     1       1.810   3.125   8.509  0.00  0.00    +0.011 A 
ATOM     26  C   UNL     1       2.426   3.557   9.665  0.00  0.00    +0.020 A 
ATOM     27  C   UNL     1       3.696   4.106   9.613  0.00  0.00    +0.041 A 
ATOM     28  C   UNL     1       4.357   4.220   8.401  0.00  0.00    +0.020 A 
ATOM     29  C   UNL     1       3.753   3.787   7.239  0.00  0.00    +0.011 A 
ATOM     30 CL   UNL     1       4.463   4.652  11.071  0.00  0.00    -0.084 Cl
ENDBRANCH  13  24
TORSDOF 2
