REMARK  Name = ZINC40324505
REMARK  5 active torsions:
REMARK  status: ('A' for Active; 'I' for Inactive)
REMARK    1  A    between atoms: C_1  and  C_2
REMARK    2  A    between atoms: C_10  and  C_11
REMARK    3  A    between atoms: C_16  and  C_19
REMARK    4  A    between atoms: C_22  and  S_25
REMARK    5  A    between atoms: S_25  and  C_28
REMARK                            x       y       z     vdW  Elec       q    Type
REMARK                         _______ _______ _______ _____ _____    ______ ____
ROOT
ATOM      1  C   UNL     1       0.032  -0.383   2.483  0.00  0.00    +0.285 C 
ATOM      2  O   UNL     1       0.018   0.805   2.745  0.00  0.00    -0.266 OA
ATOM      3  N   UNL     1       0.054  -1.292   3.478  0.00  0.00    -0.257 N 
ATOM      4  C   UNL     1       0.061  -0.872   4.800  0.00  0.00    +0.185 A 
ATOM      5  N   UNL     1       0.088  -1.606   5.897  0.00  0.00    -0.204 NA
ATOM      6  C   UNL     1       0.089  -0.974   7.058  0.00  0.00    +0.170 A 
ATOM      7  N   UNL     1       0.065   0.343   7.042  0.00  0.00    -0.187 NA
ATOM      8  S   UNL     1       0.047   0.696   5.403  0.00  0.00    +0.050 S 
ATOM      9  H   UNL     1       0.065  -2.239   3.270  0.00  0.00    +0.157 HD
ENDROOT
BRANCH   1  19
ATOM     10  C   UNL     1      -0.018   1.503   0.010  0.00  0.00    +0.048 C 
ATOM     11  C   UNL     1       0.002  -0.004   0.002  0.00  0.00    +0.008 A 
ATOM     12  C   UNL     1       0.009  -0.877  -1.171  0.00  0.00    +0.024 A 
ATOM     13  C   UNL     1      -0.001  -0.654  -2.550  0.00  0.00    +0.013 A 
ATOM     14  C   UNL     1       0.009  -1.717  -3.408  0.00  0.00    +0.016 A 
ATOM     15  C   UNL     1       0.029  -3.017  -2.918  0.00  0.00    +0.021 A 
ATOM     16  C   UNL     1       0.038  -3.257  -1.560  0.00  0.00    +0.062 A 
ATOM     17  C   UNL     1       0.029  -2.191  -0.669  0.00  0.00    +0.137 A 
ATOM     18  O   UNL     1       0.034  -2.114   0.676  0.00  0.00    -0.450 OA
ATOM     19  C   UNL     1       0.024  -0.827   1.083  0.00  0.00    +0.194 A 
ATOM     20 BR   UNL     1       0.043  -4.471  -4.126  0.00  0.00    -0.050 Br
ENDBRANCH   1  19
BRANCH   6  21
ATOM     21  C   UNL     1       0.118  -1.724   8.338  0.00  0.00    +0.020 A 
ATOM     22  C   UNL     1       0.149  -3.117   8.332  0.00  0.00    +0.013 A 
ATOM     23  C   UNL     1       0.175  -3.809   9.526  0.00  0.00    +0.027 A 
ATOM     24  C   UNL     1       0.171  -3.123  10.726  0.00  0.00    +0.088 A 
ATOM     25  C   UNL     1       0.139  -1.740  10.738  0.00  0.00    +0.027 A 
ATOM     26  C   UNL     1       0.119  -1.037   9.551  0.00  0.00    +0.013 A 
BRANCH  24  27
ATOM     27  S   UNL     1       0.204  -4.013  12.247  0.00  0.00    -0.006 S 
ATOM     28  O   UNL     1      -0.410  -3.145  13.189  0.00  0.00    -0.170 OA
ATOM     29  O   UNL     1      -0.373  -5.275  11.941  0.00  0.00    -0.170 OA
ATOM     30  C   UNL     1       1.966  -4.209  12.633  0.00  0.00    +0.200 C 
ENDBRANCH  24  27
ENDBRANCH   6  21
TORSDOF 3
