REMARK  Name = ZINC67438695
REMARK  1 active torsions:
REMARK  status: ('A' for Active; 'I' for Inactive)
REMARK    1  A    between atoms: C_6  and  C_7
REMARK                            x       y       z     vdW  Elec       q    Type
REMARK                         _______ _______ _______ _____ _____    ______ ____
ROOT
ATOM      1  C   UNL     1      -1.293  -0.775   0.011  0.00  0.00    +0.209 C 
ATOM      2  N   UNL     1      -1.182  -1.958  -0.861  0.00  0.00    -0.294 N 
ATOM      3  C   UNL     1      -0.592  -3.101  -0.388  0.00  0.00    +0.160 C 
ATOM      4  N   UNL     1      -0.637  -3.420   0.893  0.00  0.00    -0.302 N 
ATOM      5  C   UNL     1      -1.232  -2.557   1.751  0.00  0.00    +0.213 A 
ATOM      6  N   UNL     1      -1.572  -1.273   1.362  0.00  0.00    -0.286 N 
ATOM      7  C   UNL     1      -2.167  -0.650   2.434  0.00  0.00    +0.076 A 
ATOM      8  C   UNL     1      -2.718   0.608   2.642  0.00  0.00    +0.077 A 
ATOM      9  C   UNL     1      -3.253   0.930   3.874  0.00  0.00    +0.164 A 
ATOM     10  C   UNL     1      -3.244   0.002   4.912  0.00  0.00    +0.164 A 
ATOM     11  C   UNL     1      -2.699  -1.251   4.724  0.00  0.00    +0.079 A 
ATOM     12  C   UNL     1      -2.154  -1.590   3.482  0.00  0.00    +0.095 A 
ATOM     13  N   UNL     1      -1.560  -2.726   3.005  0.00  0.00    -0.212 NA
ATOM     14  O   UNL     1      -3.781   0.339   6.122  0.00  0.00    -0.488 OA
ATOM     15  C   UNL     1      -3.072   1.333   6.866  0.00  0.00    +0.232 C 
ATOM     16  C   UNL     1      -3.479   2.730   6.423  0.00  0.00    +0.082 C 
ATOM     17  C   UNL     1      -3.085   3.018   4.982  0.00  0.00    +0.232 C 
ATOM     18  O   UNL     1      -3.796   2.166   4.082  0.00  0.00    -0.488 OA
ATOM     19  N   UNL     1       0.058  -3.929  -1.262  0.00  0.00    -0.332 N 
ATOM     20  H   UNL     1      -1.526  -1.928  -1.768  0.00  0.00    +0.151 HD
ATOM     21  H   UNL     1       0.097  -3.705  -2.205  0.00  0.00    +0.145 HD
ATOM     22  H   UNL     1       0.480  -4.741  -0.939  0.00  0.00    +0.145 HD
ATOM     23  H   UNL     1      -0.254  -4.252   1.212  0.00  0.00    +0.171 HD
ENDROOT
BRANCH   1  29
ATOM     24  C   UNL     1      -0.017   1.378   0.010  0.00  0.00    +0.009 A 
ATOM     25  C   UNL     1       1.170   2.087   0.002  0.00  0.00    +0.023 A 
ATOM     26  C   UNL     1       2.378   1.413  -0.013  0.00  0.00    +0.076 A 
ATOM     27  C   UNL     1       2.397   0.028  -0.021  0.00  0.00    +0.142 A 
ATOM     28  C   UNL     1       1.208  -0.680  -0.013  0.00  0.00    +0.047 A 
ATOM     29  C   UNL     1       0.002  -0.004   0.002  0.00  0.00    -0.004 A 
ATOM     30  F   UNL     1       3.576  -0.632  -0.036  0.00  0.00    -0.204 F 
ATOM     31 CL   UNL     1       3.869   2.303  -0.023  0.00  0.00    -0.081 Cl
ENDBRANCH   1  29
TORSDOF 1
