REMARK  Name = ZINC04237177
REMARK  2 active torsions:
REMARK  status: ('A' for Active; 'I' for Inactive)
REMARK    1  A    between atoms: C_4  and  N_7
REMARK    2  A    between atoms: C_21  and  C_26
REMARK                            x       y       z     vdW  Elec       q    Type
REMARK                         _______ _______ _______ _____ _____    ______ ____
ROOT
ATOM      1  N   UNL     1      -2.403   5.210   0.047  0.00  0.00    -0.269 N 
ATOM      2  C   UNL     1      -1.249   5.899   0.148  0.00  0.00    +0.306 C 
ATOM      3  O   UNL     1      -0.186   5.309   0.140  0.00  0.00    -0.252 OA
ATOM      4  N   UNL     1      -1.273   7.242   0.257  0.00  0.00    -0.284 N 
ATOM      5  C   UNL     1      -2.546   7.962   0.378  0.00  0.00    +0.114 C 
ATOM      6  C   UNL     1      -2.491   8.921   1.565  0.00  0.00    +0.027 C 
ATOM      7  C   UNL     1      -1.236   9.793   1.507  0.00  0.00    +0.018 C 
ATOM      8  C   UNL     1      -0.010   8.878   1.528  0.00  0.00    +0.054 C 
ATOM      9  C   UNL     1      -0.023   8.020   0.252  0.00  0.00    +0.119 C 
ATOM     10  C   UNL     1      -0.092   7.943   2.713  0.00  0.00    +0.027 A 
ATOM     11  C   UNL     1       1.082   7.492   3.233  0.00  0.00    +0.022 A 
ATOM     12  C   UNL     1       1.093   6.571   4.282  0.00  0.00    +0.018 A 
ATOM     13  C   UNL     1      -0.121   6.101   4.768  0.00  0.00    +0.082 A 
ATOM     14  C   UNL     1      -1.317   6.594   4.195  0.00  0.00    +0.262 A 
ATOM     15  O   UNL     1      -2.392   6.146   4.559  0.00  0.00    -0.267 OA
ATOM     16  N   UNL     1      -1.278   7.562   3.246  0.00  0.00    -0.311 N 
ATOM     17  C   UNL     1      -2.551   8.192   2.894  0.00  0.00    +0.130 C 
ATOM     18  H   UNL     1      -3.246   5.685  -0.022  0.00  0.00    +0.156 HD
ENDROOT
BRANCH   1  22
ATOM     19  C   UNL     1      -2.350   1.044   0.038  0.00  0.00    +0.000 A 
ATOM     20  C   UNL     1      -3.298   1.724  -0.704  0.00  0.00    +0.002 A 
ATOM     21  C   UNL     1      -3.322   3.105  -0.699  0.00  0.00    +0.023 A 
ATOM     22  C   UNL     1      -2.385   3.811   0.044  0.00  0.00    +0.035 A 
ATOM     23  C   UNL     1      -1.430   3.126   0.784  0.00  0.00    +0.023 A 
ATOM     24  C   UNL     1      -1.415   1.745   0.779  0.00  0.00    +0.002 A 
ENDBRANCH   1  22
BRANCH  13  25
ATOM     25  C   UNL     1      -0.162   5.107   5.857  0.00  0.00    +0.140 A 
ATOM     26  C   UNL     1       0.270   5.303   7.133  0.00  0.00    +0.050 A 
ATOM     27  C   UNL     1       0.040   4.099   7.828  0.00  0.00    +0.042 A 
ATOM     28  C   UNL     1      -0.506   3.235   6.951  0.00  0.00    +0.196 A 
ATOM     29  O   UNL     1      -0.627   3.847   5.761  0.00  0.00    -0.463 OA
ENDBRANCH  13  25
TORSDOF 2
