REMARK  Name = ZINC01057068
REMARK  7 active torsions:
REMARK  status: ('A' for Active; 'I' for Inactive)
REMARK    1  A    between atoms: C_1  and  C_2
REMARK    2  A    between atoms: C_2  and  C_33
REMARK    3  A    between atoms: C_6  and  C_21
REMARK    4  A    between atoms: C_8  and  C_19
REMARK    5  A    between atoms: C_9  and  N_18
REMARK    6  A    between atoms: N_10  and  C_11
REMARK    7  A    between atoms: C_25  and  N_27
REMARK                            x       y       z     vdW  Elec       q    Type
REMARK                         _______ _______ _______ _____ _____    ______ ____
ROOT
ATOM      1  C   UNL     1      -2.393   4.240   0.524  0.00  0.00    +0.011 C 
ATOM      2  C   UNL     1      -2.796   3.623  -0.817  0.00  0.00    -0.023 C 
ATOM      3  C   UNL     1      -1.616   3.689  -1.789  0.00  0.00    +0.058 C 
ATOM      4  C   UNL     1      -0.459   2.893  -1.236  0.00  0.00    +0.025 C 
ATOM      5  C   UNL     1      -0.668   1.814  -0.453  0.00  0.00    +0.025 C 
ATOM      6  C   UNL     1       0.490   1.017   0.094  0.00  0.00    +0.097 C 
ATOM      7  C   UNL     1       1.752   1.303  -0.665  0.00  0.00    +0.077 C 
ATOM      8  C   UNL     1       1.868   2.411  -1.442  0.00  0.00    +0.107 C 
ATOM      9  N   UNL     1       0.814   3.290  -1.552  0.00  0.00    -0.260 N 
ATOM     10  C   UNL     1      -1.970   1.399  -0.123  0.00  0.00    +0.162 C 
ATOM     11  O   UNL     1      -2.124   0.414   0.572  0.00  0.00    -0.292 OA
ATOM     12  C   UNL     1      -3.176   2.152  -0.614  0.00  0.00    +0.086 C 
ATOM     13  C   UNL     1      -3.985   4.390  -1.399  0.00  0.00    +0.011 C 
ENDROOT
BRANCH   9  14
ATOM     14  C   UNL     1       1.045   4.599  -1.991  0.00  0.00    +0.040 A 
ATOM     15  C   UNL     1       0.995   4.898  -3.346  0.00  0.00    +0.025 A 
ATOM     16  C   UNL     1       1.218   6.192  -3.775  0.00  0.00    +0.017 A 
ATOM     17  C   UNL     1       1.502   7.187  -2.857  0.00  0.00    +0.018 A 
ATOM     18  C   UNL     1       1.558   6.891  -1.507  0.00  0.00    +0.017 A 
ATOM     19  C   UNL     1       1.330   5.601  -1.071  0.00  0.00    +0.025 A 
ATOM     20 BR   UNL     1       1.814   8.956  -3.450  0.00  0.00    -0.050 Br
ENDBRANCH   9  14
BRANCH   6  21
ATOM     21  C   UNL     1       0.693   1.376   1.544  0.00  0.00    -0.033 A 
ATOM     22  C   UNL     1       0.997   2.678   1.898  0.00  0.00    +0.005 A 
ATOM     23  C   UNL     1       1.183   3.007   3.227  0.00  0.00    +0.003 A 
ATOM     24  C   UNL     1       1.065   2.035   4.203  0.00  0.00    +0.033 A 
ATOM     25  C   UNL     1       0.761   0.734   3.849  0.00  0.00    +0.126 A 
ATOM     26  C   UNL     1       0.570   0.406   2.520  0.00  0.00    +0.037 A 
BRANCH  25  27
ATOM     27  N   UNL     1       0.634  -0.307   4.894  0.00  0.00    +0.056 N 
ATOM     28  O   UNL     1       0.798  -0.016   6.066  0.00  0.00    -0.126 OA
ATOM     29  O   UNL     1       0.366  -1.453   4.583  0.00  0.00    -0.126 OA
ENDBRANCH  25  27
ENDBRANCH   6  21
BRANCH   8  30
ATOM     30  N   UNL     1       3.038   2.654  -2.121  0.00  0.00    -0.345 N 
ATOM     31  H   UNL     1       3.809   2.084  -1.976  0.00  0.00    +0.144 HD
ATOM     32  H   UNL     1       3.092   3.395  -2.744  0.00  0.00    +0.144 HD
ENDBRANCH   8  30
BRANCH   7  33
ATOM     33  C   UNL     1       2.853   0.393  -0.568  0.00  0.00    +0.099 C 
ATOM     34  N   UNL     1       3.726  -0.330  -0.491  0.00  0.00    -0.191 NA
ENDBRANCH   7  33
TORSDOF 5
