REMARK  Name = ZINC53254546
REMARK  4 active torsions:
REMARK  status: ('A' for Active; 'I' for Inactive)
REMARK    1  A    between atoms: C_2  and  S_8
REMARK    2  A    between atoms: S_8  and  N_11
REMARK    3  A    between atoms: N_11  and  C_12
REMARK    4  A    between atoms: C_12  and  C_13
REMARK                            x       y       z     vdW  Elec       q    Type
REMARK                         _______ _______ _______ _____ _____    ______ ____
ROOT
ATOM      1  S   UNL     1       1.207   3.800   0.010  0.00  0.00    +0.060 S 
ATOM      2  O   UNL     1       2.098   4.200  -1.022  0.00  0.00    -0.153 OA
ATOM      3  O   UNL     1      -0.149   4.224   0.052  0.00  0.00    -0.153 OA
ENDROOT
BRANCH   1   5
ATOM      4  C   UNL     1      -0.016   1.352   0.009  0.00  0.00    +0.052 A 
ATOM      5  C   UNL     1       1.184   2.038   0.002  0.00  0.00    +0.127 A 
ATOM      6  C   UNL     1       2.343   1.335  -0.013  0.00  0.00    +0.082 A 
ATOM      7  S   UNL     1       1.753  -0.350  -0.017  0.00  0.00    -0.073 S 
ATOM      8  C   UNL     1       0.002  -0.004   0.002  0.00  0.00    +0.058 A 
ATOM      9 BR   UNL     1      -1.451  -1.215   0.010  0.00  0.00    -0.042 Br
ATOM     10 BR   UNL     1       4.123   1.973  -0.027  0.00  0.00    -0.041 Br
ENDBRANCH   1   5
BRANCH   1  11
ATOM     11  N   UNL     1       1.895   4.274   1.440  0.00  0.00    -0.191 NA
ATOM     12  H   UNL     1       1.369   4.760   2.094  0.00  0.00    +0.148 HD
BRANCH  11  13
ATOM     13  C   UNL     1       3.299   3.959   1.717  0.00  0.00    +0.090 C 
BRANCH  13  14
ATOM     14  C   UNL     1       3.789   4.805   2.894  0.00  0.00    -0.056 C 
ATOM     15  C   UNL     1       5.318   4.638   3.079  0.00  0.00    -0.016 C 
ATOM     16  C   UNL     1       5.691   5.955   3.808  0.00  0.00    -0.021 C 
ATOM     17  C   UNL     1       4.740   6.989   3.168  0.00  0.00    -0.082 C 
ATOM     18  N   UNL     1       3.595   6.243   2.610  0.00  0.00    +0.382 N 
ATOM     19  H   UNL     1       3.550   6.389   1.612  0.00  0.00    -0.085 HD
ATOM     20  H   UNL     1       2.739   6.561   3.038  0.00  0.00    -0.085 HD
ENDBRANCH  13  14
ENDBRANCH  11  13
ENDBRANCH   1  11
TORSDOF 4
