REMARK  Name = ZINC02963520
REMARK  3 active torsions:
REMARK  status: ('A' for Active; 'I' for Inactive)
REMARK    1  A    between atoms: C_1  and  C_2
REMARK    2  A    between atoms: C_6  and  N_8
REMARK    3  A    between atoms: C_15  and  C_24
REMARK                            x       y       z     vdW  Elec       q    Type
REMARK                         _______ _______ _______ _____ _____    ______ ____
ROOT
ATOM      1  N   UNL     1       0.356  -0.516  -1.327  0.00  0.00    -0.244 N 
ATOM      2  C   UNL     1       1.629  -0.477  -1.729  0.00  0.00    +0.141 C 
ATOM      3  S   UNL     1       1.980  -0.690  -3.391  0.00  0.00    -0.018 S 
ATOM      4  N   UNL     1       2.644  -0.276  -0.873  0.00  0.00    -0.319 N 
ATOM      5  C   UNL     1       2.361  -0.015   0.548  0.00  0.00    +0.111 C 
ATOM      6  C   UNL     1       1.157  -0.883   0.948  0.00  0.00    +0.096 C 
ATOM      7  C   UNL     1      -0.026  -0.432   0.080  0.00  0.00    +0.183 C 
ATOM      8  O   UNL     1      -0.369   0.904   0.434  0.00  0.00    -0.468 OA
ATOM      9  C   UNL     1       0.627   1.813   0.598  0.00  0.00    +0.128 A 
ATOM     10  C   UNL     1       1.963   1.438   0.686  0.00  0.00    +0.016 A 
ATOM     11  C   UNL     1       2.952   2.388   0.866  0.00  0.00    +0.024 A 
ATOM     12  C   UNL     1       2.600   3.730   0.949  0.00  0.00    +0.018 A 
ATOM     13  C   UNL     1       1.272   4.111   0.874  0.00  0.00    +0.019 A 
ATOM     14  C   UNL     1       0.288   3.159   0.700  0.00  0.00    +0.047 A 
ATOM     15 BR   UNL     1       3.947   5.035   1.192  0.00  0.00    -0.050 Br
ATOM     16  C   UNL     1      -1.223  -1.349   0.337  0.00  0.00    +0.079 C 
ATOM     17  H   UNL     1       3.561  -0.303  -1.190  0.00  0.00    +0.148 HD
ENDROOT
BRANCH   1  23
ATOM     18  C   UNL     1      -2.380  -3.382  -4.238  0.00  0.00    +0.044 C 
ATOM     19  C   UNL     1      -1.993  -2.020  -3.724  0.00  0.00    -0.049 A 
ATOM     20  C   UNL     1      -2.628  -0.892  -4.210  0.00  0.00    +0.003 A 
ATOM     21  C   UNL     1      -2.275   0.360  -3.741  0.00  0.00    +0.002 A 
ATOM     22  C   UNL     1      -1.290   0.488  -2.781  0.00  0.00    +0.023 A 
ATOM     23  C   UNL     1      -0.646  -0.642  -2.295  0.00  0.00    +0.039 A 
ATOM     24  C   UNL     1      -1.003  -1.899  -2.768  0.00  0.00    +0.027 A 
ENDBRANCH   1  23
TORSDOF 1
