REMARK  Name = ZINC09697240
REMARK  12 active torsions:
REMARK  status: ('A' for Active; 'I' for Inactive)
REMARK    1  A    between atoms: C_1  and  C_2
REMARK    2  A    between atoms: C_2  and  O_3
REMARK    3  A    between atoms: O_3  and  C_4
REMARK    4  A    between atoms: C_4  and  C_5
REMARK    5  A    between atoms: C_5  and  O_6
REMARK    6  A    between atoms: O_6  and  C_7
REMARK    7  A    between atoms: C_10  and  C_13
REMARK    8  A    between atoms: N_15  and  C_16
REMARK    9  A    between atoms: C_16  and  N_18
REMARK   10  A    between atoms: N_18  and  C_19
REMARK   11  A    between atoms: C_22  and  S_25
REMARK   12  A    between atoms: S_25  and  N_28
REMARK                            x       y       z     vdW  Elec       q    Type
REMARK                         _______ _______ _______ _____ _____    ______ ____
ROOT
ATOM      1  N   UNL     1      -4.007   2.563   4.828  0.00  0.00    -0.297 N 
ATOM      2  H   UNL     1      -4.488   1.812   5.211  0.00  0.00    +0.154 HD
ENDROOT
BRANCH   1   3
ATOM      3  C   UNL     1      -3.238   2.385   3.674  0.00  0.00    +0.033 A 
ATOM      4  C   UNL     1      -1.989   2.984   3.571  0.00  0.00    +0.025 A 
ATOM      5  C   UNL     1      -1.231   2.806   2.430  0.00  0.00    +0.031 A 
ATOM      6  C   UNL     1      -1.714   2.032   1.392  0.00  0.00    +0.111 A 
ATOM      7  C   UNL     1      -2.959   1.439   1.488  0.00  0.00    +0.031 A 
ATOM      8  C   UNL     1      -3.720   1.609   2.629  0.00  0.00    +0.025 A 
BRANCH   6   9
ATOM      9  S   UNL     1      -0.744   1.807  -0.062  0.00  0.00    +0.080 S 
ATOM     10  O   UNL     1       0.144   2.915  -0.133  0.00  0.00    -0.148 OA
ATOM     11  O   UNL     1      -1.650   1.489  -1.110  0.00  0.00    -0.148 OA
BRANCH   9  12
ATOM     12  N   UNL     1       0.194   0.464   0.178  0.00  0.00    -0.228 N 
ATOM     13  C   UNL     1      -0.396  -0.771   0.312  0.00  0.00    +0.186 C 
ATOM     14  N   UNL     1       0.382  -1.887   0.511  0.00  0.00    -0.370 N 
ATOM     15  H   UNL     1       1.159   0.548   0.225  0.00  0.00    +0.191 HD
ATOM     16  H   UNL     1      -2.203  -1.712   0.332  0.00  0.00    +0.159 HD
ATOM     17  H   UNL     1       1.347  -1.803   0.558  0.00  0.00    +0.159 HD
ATOM     18  H   UNL     1      -0.034  -2.758   0.606  0.00  0.00    +0.159 HD
ATOM     19  N   UNL     1      -1.718  -0.819   0.239  0.00  0.00    -0.370 N 
ATOM     20  H   UNL     1      -2.256   0.043   0.089  0.00  0.00    +0.159 HD
ENDBRANCH   9  12
ENDBRANCH   6   9
ENDBRANCH   1   3
BRANCH   1  21
ATOM     21  C   UNL     1      -4.082   3.777   5.409  0.00  0.00    +0.141 C 
ATOM     22  S   UNL     1      -3.351   5.131   4.657  0.00  0.00    -0.018 S 
BRANCH  21  25
ATOM     23  C   UNL     1      -4.805   5.140   7.161  0.00  0.00    +0.250 C 
ATOM     24  O   UNL     1      -4.286   6.101   6.627  0.00  0.00    -0.270 OA
ATOM     25  N   UNL     1      -4.730   3.925   6.580  0.00  0.00    -0.264 N 
ATOM     26  H   UNL     1      -5.144   3.158   7.006  0.00  0.00    +0.157 HD
BRANCH  23  30
ATOM     27  C   UNL     1      -6.849   5.607  10.853  0.00  0.00    +0.121 A 
ATOM     28  C   UNL     1      -6.257   6.708  10.244  0.00  0.00    +0.046 A 
ATOM     29  C   UNL     1      -5.593   6.561   9.047  0.00  0.00    +0.016 A 
ATOM     30  C   UNL     1      -5.515   5.302   8.443  0.00  0.00    +0.037 A 
ATOM     31  C   UNL     1      -6.117   4.199   9.056  0.00  0.00    +0.016 A 
ATOM     32  C   UNL     1      -6.773   4.354  10.256  0.00  0.00    +0.046 A 
BRANCH  27  33
ATOM     33  O   UNL     1      -7.502   5.757  12.033  0.00  0.00    -0.490 OA
BRANCH  33  34
ATOM     34  C   UNL     1      -8.088   4.584  12.603  0.00  0.00    +0.257 C 
BRANCH  34  35
ATOM     35  C   UNL     1      -8.775   4.947  13.921  0.00  0.00    +0.200 C 
BRANCH  35  36
ATOM     36  O   UNL     1      -9.870   5.828  13.661  0.00  0.00    -0.377 OA
BRANCH  36  38
ATOM     37  C   UNL     1     -11.727   7.166  14.436  0.00  0.00    +0.034 C 
ATOM     38  C   UNL     1     -10.583   6.230  14.832  0.00  0.00    +0.156 C 
ENDBRANCH  36  38
ENDBRANCH  35  36
ENDBRANCH  34  35
ENDBRANCH  33  34
ENDBRANCH  27  33
ENDBRANCH  23  30
ENDBRANCH  21  25
ENDBRANCH   1  21
TORSDOF 11
