REMARK  Name = ZINC20191338
REMARK  13 active torsions:
REMARK  status: ('A' for Active; 'I' for Inactive)
REMARK    1  A    between atoms: C_1  and  C_2
REMARK    2  A    between atoms: C_2  and  C_3
REMARK    3  A    between atoms: C_4  and  C_30
REMARK    4  A    between atoms: C_6  and  N_11
REMARK    5  A    between atoms: C_7  and  C_8
REMARK    6  A    between atoms: C_12  and  C_14
REMARK    7  A    between atoms: C_14  and  C_15
REMARK    8  A    between atoms: C_15  and  C_16
REMARK    9  A    between atoms: N_18  and  C_19
REMARK   10  A    between atoms: C_20  and  C_27
REMARK   11  A    between atoms: C_21  and  C_25
REMARK   12  A    between atoms: C_22  and  C_24
REMARK   13  A    between atoms: C_25  and  C_26
REMARK                            x       y       z     vdW  Elec       q    Type
REMARK                         _______ _______ _______ _____ _____    ______ ____
ROOT
ATOM      1  C   UNL     1       1.121   3.579   0.011  0.00  0.00    +0.105 C 
ENDROOT
BRANCH   1   3
ATOM      2  N   UNL     1      -0.017   1.382   0.010  0.00  0.00    -0.279 N 
ATOM      3  C   UNL     1       1.141   2.072   0.002  0.00  0.00    +0.218 C 
ATOM      4  O   UNL     1       2.200   1.480  -0.011  0.00  0.00    -0.275 OA
ATOM      5  H   UNL     1      -0.977   1.919   0.022  0.00  0.00    +0.155 HD
BRANCH   2   9
ATOM      6  C   UNL     1      -0.764  -2.292  -0.004  0.00  0.00    -0.024 A 
ATOM      7  C   UNL     1       0.537  -2.633  -0.019  0.00  0.00    -0.008 A 
ATOM      8  S   UNL     1       1.373  -1.061  -0.024  0.00  0.00    -0.078 S 
ATOM      9  C   UNL     1       0.002  -0.004   0.002  0.00  0.00    +0.084 A 
ATOM     10  C   UNL     1      -1.075  -0.882   0.008  0.00  0.00    +0.068 A 
ATOM     11  C   UNL     1       1.141  -4.014  -0.033  0.00  0.00    +0.052 C 
BRANCH  10  12
ATOM     12  C   UNL     1      -2.460  -0.401   0.025  0.00  0.00    +0.244 C 
ATOM     13  O   UNL     1      -3.046  -0.195  -1.022  0.00  0.00    -0.270 OA
ATOM     14  N   UNL     1      -3.084  -0.186   1.200  0.00  0.00    -0.325 N 
ATOM     15  H   UNL     1      -4.123   0.176   1.212  0.00  0.00    +0.145 HD
ATOM     16  H   UNL     1      -2.555  -0.372   2.146  0.00  0.00    +0.145 HD
ENDBRANCH  10  12
BRANCH   6  18
ATOM     17  C   UNL     1      -2.233  -3.681  -1.439  0.00  0.00    +0.009 C 
ATOM     18  C   UNL     1      -1.850  -3.336   0.001  0.00  0.00    +0.033 C 
ENDBRANCH   6  18
ENDBRANCH   2   9
ENDBRANCH   1   3
BRANCH   1  19
ATOM     19  C   UNL     1       2.556   4.109  -0.000  0.00  0.00    +0.105 C 
BRANCH  19  20
ATOM     20  C   UNL     1       2.536   5.615   0.008  0.00  0.00    +0.218 C 
ATOM     21  O   UNL     1       1.477   6.207   0.021  0.00  0.00    -0.275 OA
ATOM     22  N   UNL     1       3.694   6.305   0.001  0.00  0.00    -0.279 N 
ATOM     23  H   UNL     1       4.654   5.768  -0.011  0.00  0.00    +0.155 HD
BRANCH  22  24
ATOM     24  C   UNL     1       3.675   7.692   0.008  0.00  0.00    +0.084 A 
ATOM     25  C   UNL     1       4.752   8.570   0.003  0.00  0.00    +0.068 A 
ATOM     26  C   UNL     1       4.441   9.979   0.012  0.00  0.00    -0.024 A 
ATOM     27  C   UNL     1       3.140  10.321   0.026  0.00  0.00    -0.008 A 
ATOM     28  S   UNL     1       2.303   8.749   0.019  0.00  0.00    -0.078 S 
ATOM     29  C   UNL     1       2.536  11.701   0.038  0.00  0.00    +0.052 C 
BRANCH  25  30
ATOM     30  C   UNL     1       6.137   8.088  -0.012  0.00  0.00    +0.244 C 
ATOM     31  O   UNL     1       6.702   7.893  -1.072  0.00  0.00    -0.270 OA
ATOM     32  N   UNL     1       6.784   7.861   1.149  0.00  0.00    -0.325 N 
ATOM     33  H   UNL     1       7.822   7.499   1.138  0.00  0.00    +0.145 HD
ATOM     34  H   UNL     1       6.272   8.037   2.107  0.00  0.00    +0.145 HD
ENDBRANCH  25  30
BRANCH  26  35
ATOM     35  C   UNL     1       5.527  11.024   0.008  0.00  0.00    +0.033 C 
ATOM     36  C   UNL     1       5.882  11.384  -1.436  0.00  0.00    +0.009 C 
ENDBRANCH  26  35
ENDBRANCH  22  24
ENDBRANCH  19  20
ENDBRANCH   1  19
TORSDOF 9
