REMARK  Name = ZINC47613499
REMARK  9 active torsions:
REMARK  status: ('A' for Active; 'I' for Inactive)
REMARK    1  A    between atoms: C_1  and  N_2
REMARK    2  A    between atoms: C_6  and  C_8
REMARK    3  A    between atoms: C_8  and  N_9
REMARK    4  A    between atoms: N_9  and  C_10
REMARK    5  A    between atoms: N_9  and  C_18
REMARK    6  A    between atoms: C_10  and  C_11
REMARK    7  A    between atoms: C_11  and  C_12
REMARK    8  A    between atoms: C_18  and  C_19
REMARK    9  A    between atoms: N_24  and  C_25
REMARK                            x       y       z     vdW  Elec       q    Type
REMARK                         _______ _______ _______ _____ _____    ______ ____
ROOT
ATOM      1  N   UNL     1       1.928  -4.592   3.230  0.00  0.00    +0.391 N 
ATOM      2  H   UNL     1       2.812  -4.123   3.101  0.00  0.00    -0.080 HD
ENDROOT
BRANCH   1   3
ATOM      3  C   UNL     1       1.109  -4.435   2.021  0.00  0.00    +0.020 C 
BRANCH   3   9
ATOM      4  C   UNL     1      -4.673  -6.044   0.775  0.00  0.00    +0.129 C 
ATOM      5  N   UNL     1      -3.367  -5.413   0.566  0.00  0.00    -0.302 N 
ATOM      6  C   UNL     1      -2.401  -5.539   1.497  0.00  0.00    +0.306 C 
ATOM      7  O   UNL     1      -2.613  -6.176   2.510  0.00  0.00    -0.252 OA
ATOM      8  N   UNL     1      -1.200  -4.958   1.305  0.00  0.00    -0.242 N 
ATOM      9  C   UNL     1      -0.234  -5.084   2.236  0.00  0.00    +0.204 C 
ATOM     10  O   UNL     1      -0.445  -5.720   3.246  0.00  0.00    -0.277 OA
ATOM     11  H   UNL     1      -3.199  -4.904  -0.242  0.00  0.00    +0.150 HD
ATOM     12  H   UNL     1      -1.031  -4.449   0.496  0.00  0.00    +0.159 HD
ENDBRANCH   3   9
ENDBRANCH   1   3
BRANCH   1  13
ATOM     13  C   UNL     1       1.225  -4.004   4.378  0.00  0.00    -0.073 C 
BRANCH  13  14
ATOM     14  C   UNL     1       1.101  -2.492   4.180  0.00  0.00    +0.012 C 
BRANCH  14  15
ATOM     15  C   UNL     1       0.499  -1.872   5.415  0.00  0.00    -0.075 C 
ATOM     16  C   UNL     1       1.304  -1.385   6.303  0.00  0.00    -0.028 C 
ATOM     17  C   UNL     1       0.855  -0.747   7.585  0.00  0.00    +0.027 C 
ATOM     18  C   UNL     1      -0.627  -0.375   7.498  0.00  0.00    +0.004 C 
ATOM     19  C   UNL     1      -1.404  -1.595   6.989  0.00  0.00    +0.005 C 
ATOM     20  C   UNL     1      -0.997  -1.852   5.535  0.00  0.00    +0.030 C 
ENDBRANCH  14  15
ENDBRANCH  13  14
ENDBRANCH   1  13
BRANCH   1  21
ATOM     21  C   UNL     1       2.164  -6.021   3.479  0.00  0.00    +0.020 C 
BRANCH  21  22
ATOM     22  C   UNL     1       3.031  -6.585   2.383  0.00  0.00    +0.204 C 
ATOM     23  O   UNL     1       3.414  -5.869   1.484  0.00  0.00    -0.277 OA
ATOM     24  N   UNL     1       3.380  -7.887   2.404  0.00  0.00    -0.242 N 
ATOM     25  C   UNL     1       4.155  -8.392   1.423  0.00  0.00    +0.306 C 
ATOM     26  O   UNL     1       4.540  -7.673   0.522  0.00  0.00    -0.252 OA
ATOM     27  N   UNL     1       4.505  -9.693   1.444  0.00  0.00    -0.302 N 
ATOM     28  C   UNL     1       5.347 -10.242   0.378  0.00  0.00    +0.129 C 
ATOM     29  H   UNL     1       3.073  -8.460   3.123  0.00  0.00    +0.159 HD
ATOM     30  H   UNL     1       4.198 -10.267   2.163  0.00  0.00    +0.150 HD
ENDBRANCH  21  22
ENDBRANCH   1  21
TORSDOF 7
