REMARK  Name = ZINC63980062
REMARK  5 active torsions:
REMARK  status: ('A' for Active; 'I' for Inactive)
REMARK    1  A    between atoms: C_7  and  C_10
REMARK    2  A    between atoms: C_10  and  C_11
REMARK    3  A    between atoms: C_11  and  N_12
REMARK    4  A    between atoms: N_12  and  C_13
REMARK    5  A    between atoms: N_20  and  C_23
REMARK                            x       y       z     vdW  Elec       q    Type
REMARK                         _______ _______ _______ _____ _____    ______ ____
ROOT
ATOM      1  C   UNL     1      -0.811  -5.380  -2.624  0.00  0.00    +0.085 C 
ATOM      2  C   UNL     1      -1.590  -6.522  -2.617  0.00  0.00    +0.113 C 
ATOM      3  C   UNL     1      -2.149  -7.064  -1.365  0.00  0.00    +0.256 C 
ATOM      4  O   UNL     1      -1.938  -6.518  -0.298  0.00  0.00    -0.270 OA
ATOM      5  N   UNL     1      -2.900  -8.182  -1.434  0.00  0.00    -0.263 N 
ATOM      6  C   UNL     1      -3.141  -8.794  -2.603  0.00  0.00    +0.151 C 
ATOM      7  S   UNL     1      -4.106 -10.208  -2.594  0.00  0.00    -0.018 S 
ATOM      8  N   UNL     1      -2.666  -8.357  -3.777  0.00  0.00    -0.216 N 
ATOM      9  C   UNL     1      -1.904  -7.247  -3.861  0.00  0.00    +0.263 C 
ATOM     10  O   UNL     1      -1.483  -6.858  -4.934  0.00  0.00    -0.269 OA
ATOM     11  H   UNL     1      -3.275  -8.553  -0.620  0.00  0.00    +0.157 HD
ENDROOT
BRANCH   8  12
ATOM     12  C   UNL     1      -2.973  -9.067  -4.946  0.00  0.00    +0.063 A 
ATOM     13  C   UNL     1      -4.107  -8.743  -5.678  0.00  0.00    +0.025 A 
ATOM     14  C   UNL     1      -4.407  -9.444  -6.831  0.00  0.00    +0.003 A 
ATOM     15  C   UNL     1      -3.580 -10.466  -7.256  0.00  0.00    +0.021 A 
ATOM     16  C   UNL     1      -2.448 -10.792  -6.530  0.00  0.00    +0.061 A 
ATOM     17  C   UNL     1      -2.139 -10.091  -5.378  0.00  0.00    +0.081 A 
ATOM     18 CL   UNL     1      -0.716 -10.494  -4.470  0.00  0.00    -0.080 Cl
ATOM     19 CL   UNL     1      -1.412 -12.077  -7.067  0.00  0.00    -0.082 Cl
ENDBRANCH   8  12
BRANCH   1  20
ATOM     20  N   UNL     1      -0.409  -4.831  -1.460  0.00  0.00    -0.349 N 
ATOM     21  H   UNL     1      -0.598  -5.280  -0.621  0.00  0.00    +0.146 HD
BRANCH  20  22
ATOM     22  C   UNL     1       0.311  -3.556  -1.462  0.00  0.00    +0.105 C 
BRANCH  22  23
ATOM     23  C   UNL     1       0.648  -3.158  -0.024  0.00  0.00    +0.052 C 
BRANCH  23  30
ATOM     24  C   UNL     1      -0.736   1.187   0.492  0.00  0.00    +0.001 A 
ATOM     25  C   UNL     1       0.306   2.121   0.420  0.00  0.00    +0.002 A 
ATOM     26  C   UNL     1       1.592   1.765   0.217  0.00  0.00    +0.026 A 
ATOM     27  C   UNL     1       1.943   0.395   0.067  0.00  0.00    +0.043 A 
ATOM     28  N   UNL     1       3.097  -0.194  -0.136  0.00  0.00    -0.380 N 
ATOM     29  C   UNL     1       2.877  -1.642  -0.214  0.00  0.00    +0.144 C 
ATOM     30  C   UNL     1       1.390  -1.846  -0.026  0.00  0.00    -0.040 C 
ATOM     31  C   UNL     1       0.860  -0.612   0.140  0.00  0.00    -0.001 A 
ATOM     32  C   UNL     1      -0.512  -0.141   0.362  0.00  0.00    +0.010 A 
ATOM     33  H   UNL     1       3.954   0.254  -0.220  0.00  0.00    +0.160 HD
ENDBRANCH  23  30
ENDBRANCH  22  23
ENDBRANCH  20  22
ENDBRANCH   1  20
TORSDOF 5
