REMARK  Name = ZINC00389020
REMARK  4 active torsions:
REMARK  status: ('A' for Active; 'I' for Inactive)
REMARK    1  A    between atoms: C_1  and  C_2
REMARK    2  A    between atoms: C_5  and  C_8
REMARK    3  A    between atoms: C_11  and  C_19
REMARK    4  A    between atoms: C_24  and  O_25
REMARK                            x       y       z     vdW  Elec       q    Type
REMARK                         _______ _______ _______ _____ _____    ______ ____
ROOT
ATOM      1  C   UNL     1       0.059  -4.275  -0.021  0.00  0.00    +0.143 C 
ATOM      2  C   UNL     1      -1.178  -4.809   0.711  0.00  0.00    +0.059 C 
ATOM      3  C   UNL     1      -1.029  -6.317   0.947  0.00  0.00    +0.109 C 
ATOM      4  N   UNL     1       0.141  -6.544   1.817  0.00  0.00    -0.307 N 
ATOM      5  C   UNL     1       1.280  -5.807   1.519  0.00  0.00    +0.215 A 
ATOM      6  N   UNL     1       1.260  -4.754   0.664  0.00  0.00    -0.226 N 
ATOM      7  N   UNL     1       2.565  -4.266   0.600  0.00  0.00    -0.156 NA
ATOM      8  C   UNL     1       3.289  -5.019   1.390  0.00  0.00    +0.247 A 
ATOM      9  N   UNL     1       2.504  -5.952   1.950  0.00  0.00    -0.202 NA
ATOM     10  H   UNL     1       0.116  -7.172   2.556  0.00  0.00    +0.150 HD
ENDROOT
BRANCH   1  15
ATOM     11  C   UNL     1      -0.018   1.503   0.010  0.00  0.00    +0.044 C 
ATOM     12  C   UNL     1       0.002  -0.004   0.002  0.00  0.00    -0.050 A 
ATOM     13  C   UNL     1       0.006  -0.689  -1.199  0.00  0.00    +0.004 A 
ATOM     14  C   UNL     1       0.025  -2.071  -1.206  0.00  0.00    +0.006 A 
ATOM     15  C   UNL     1       0.040  -2.768  -0.013  0.00  0.00    -0.023 A 
ATOM     16  C   UNL     1       0.037  -2.084   1.188  0.00  0.00    +0.006 A 
ATOM     17  C   UNL     1       0.023  -0.702   1.195  0.00  0.00    +0.004 A 
ENDBRANCH   1  15
BRANCH   3  18
ATOM     18  C   UNL     1      -2.271  -6.849   1.615  0.00  0.00    +0.016 A 
ATOM     19  C   UNL     1      -2.319  -6.968   2.990  0.00  0.00    +0.029 A 
ATOM     20  C   UNL     1      -3.459  -7.457   3.604  0.00  0.00    +0.042 A 
ATOM     21  C   UNL     1      -4.553  -7.827   2.841  0.00  0.00    +0.023 A 
ATOM     22  C   UNL     1      -4.508  -7.709   1.465  0.00  0.00    +0.047 A 
ATOM     23  C   UNL     1      -3.368  -7.214   0.849  0.00  0.00    +0.122 A 
ATOM     24 CL   UNL     1      -3.517  -7.607   5.332  0.00  0.00    -0.084 Cl
BRANCH  23  25
ATOM     25  O   UNL     1      -3.325  -7.091  -0.504  0.00  0.00    -0.506 OA
ATOM     26  H   UNL     1      -2.994  -7.878  -0.960  0.00  0.00    +0.292 HD
ENDBRANCH  23  25
ENDBRANCH   3  18
TORSDOF 3
