REMARK  Name = ZINC08658607
REMARK  3 active torsions:
REMARK  status: ('A' for Active; 'I' for Inactive)
REMARK    1  A    between atoms: C_1  and  C_2
REMARK    2  A    between atoms: C_9  and  C_14
REMARK    3  A    between atoms: C_14  and  N_15
REMARK                            x       y       z     vdW  Elec       q    Type
REMARK                         _______ _______ _______ _____ _____    ______ ____
ROOT
ATOM      1  C   UNL     1      -4.769   5.365  -1.754  0.00  0.00    +0.154 C 
ENDROOT
BRANCH   1   2
ATOM      2  N   UNL     1      -3.733   4.502  -1.181  0.00  0.00    -0.220 N 
ATOM      3  C   UNL     1      -2.445   4.869  -1.021  0.00  0.00    +0.247 C 
ATOM      4  O   UNL     1      -1.945   5.934  -1.313  0.00  0.00    -0.273 OA
ATOM      5  C   UNL     1      -1.754   3.673  -0.401  0.00  0.00    +0.113 C 
ATOM      6  C   UNL     1      -0.658   3.160  -1.294  0.00  0.00    +0.035 C 
ATOM      7  C   UNL     1      -0.627   1.620  -1.200  0.00  0.00    +0.003 C 
ATOM      8  C   UNL     1       0.050   1.155   0.002  0.00  0.00    +0.000 C 
ATOM      9  C   UNL     1      -0.655   1.615   1.293  0.00  0.00    +0.000 C 
ATOM     10  C   UNL     1      -0.249   3.037   1.576  0.00  0.00    +0.003 C 
ATOM     11  C   UNL     1      -1.256   4.054   1.006  0.00  0.00    +0.035 C 
ATOM     12  N   UNL     1      -2.831   2.677  -0.270  0.00  0.00    -0.285 N 
ATOM     13  C   UNL     1      -3.947   3.253  -0.752  0.00  0.00    +0.310 C 
ATOM     14  O   UNL     1      -5.029   2.701  -0.793  0.00  0.00    -0.252 OA
ATOM     15  H   UNL     1      -2.751   1.780   0.093  0.00  0.00    +0.151 HD
ENDBRANCH   1   2
BRANCH   1  24
ATOM     16  C   UNL     1      -8.043   8.564  -6.588  0.00  0.00    +0.045 C 
ATOM     17  C   UNL     1      -7.179   7.693  -5.713  0.00  0.00    -0.029 A 
ATOM     18  C   UNL     1      -6.345   6.759  -6.290  0.00  0.00    +0.051 A 
ATOM     19  C   UNL     1      -5.546   5.953  -5.490  0.00  0.00    +0.140 A 
ATOM     20  C   UNL     1      -5.597   6.100  -4.092  0.00  0.00    +0.024 A 
ATOM     21  C   UNL     1      -6.447   7.050  -3.520  0.00  0.00    +0.032 A 
ATOM     22  C   UNL     1      -7.231   7.839  -4.333  0.00  0.00    +0.045 A 
ATOM     23 CL   UNL     1      -8.290   9.021  -3.629  0.00  0.00    -0.083 Cl
ATOM     24  C   UNL     1      -4.749   5.244  -3.256  0.00  0.00    -0.012 A 
ATOM     25  C   UNL     1      -3.941   4.344  -3.873  0.00  0.00    +0.098 A 
ATOM     26  C   UNL     1      -3.945   4.247  -5.281  0.00  0.00    +0.338 A 
ATOM     27  O   UNL     1      -3.220   3.432  -5.822  0.00  0.00    -0.245 OA
ATOM     28  O   UNL     1      -4.724   5.034  -6.040  0.00  0.00    -0.422 OA
ENDBRANCH   1  24
TORSDOF 2
