REMARK  Name = ZINC36520049
REMARK  16 active torsions:
REMARK  status: ('A' for Active; 'I' for Inactive)
REMARK    1  A    between atoms: C_1  and  C_2
REMARK    2  A    between atoms: C_2  and  C_3
REMARK    3  A    between atoms: C_3  and  C_4
REMARK    4  A    between atoms: C_4  and  C_5
REMARK    5  A    between atoms: C_5  and  C_6
REMARK    6  A    between atoms: C_6  and  N_7
REMARK    7  A    between atoms: N_7  and  C_8
REMARK    8  A    between atoms: C_8  and  C_10
REMARK    9  A    between atoms: C_8  and  C_13
REMARK   10  A    between atoms: C_11  and  C_12
REMARK   11  A    between atoms: N_15  and  C_16
REMARK   12  A    between atoms: C_16  and  C_17
REMARK   13  A    between atoms: C_17  and  C_18
REMARK   14  A    between atoms: C_18  and  C_19
REMARK   15  A    between atoms: C_20  and  C_22
REMARK   16  A    between atoms: C_26  and  N_28
REMARK                            x       y       z     vdW  Elec       q    Type
REMARK                         _______ _______ _______ _____ _____    ______ ____
ROOT
ATOM      1  N   UNL     1      -4.125  -4.812   0.164  0.00  0.00    -0.283 N 
ATOM      2  C   UNL     1      -4.747  -4.774   1.359  0.00  0.00    +0.248 C 
ATOM      3  O   UNL     1      -5.910  -5.116   1.450  0.00  0.00    -0.270 OA
ENDROOT
BRANCH   2   4
ATOM      4  C   UNL     1      -4.015  -4.315   2.559  0.00  0.00    +0.039 A 
ATOM      5  C   UNL     1      -3.059  -3.304   2.453  0.00  0.00    +0.013 A 
ATOM      6  C   UNL     1      -2.380  -2.881   3.577  0.00  0.00    +0.003 A 
ATOM      7  C   UNL     1      -2.645  -3.457   4.807  0.00  0.00    +0.033 A 
ATOM      8  C   UNL     1      -3.592  -4.459   4.919  0.00  0.00    +0.127 A 
ATOM      9  C   UNL     1      -4.282  -4.888   3.804  0.00  0.00    +0.045 A 
BRANCH   8  10
ATOM     10  N   UNL     1      -3.869  -5.070   6.238  0.00  0.00    +0.056 N 
ATOM     11  O   UNL     1      -3.268  -4.692   7.217  0.00  0.00    -0.126 OA
ATOM     12  O   UNL     1      -4.695  -5.946   6.337  0.00  0.00    -0.126 OA
ENDBRANCH   8  10
ENDBRANCH   2   4
BRANCH   1  13
ATOM     13  C   UNL     1      -2.700  -4.483   0.069  0.00  0.00    +0.109 C 
BRANCH  13  14
ATOM     14  C   UNL     1      -2.537  -3.100  -0.566  0.00  0.00    +0.019 C 
BRANCH  14  15
ATOM     15  C   UNL     1      -1.064  -2.691  -0.523  0.00  0.00    +0.002 C 
BRANCH  15  16
ATOM     16  C   UNL     1      -0.901  -1.308  -1.158  0.00  0.00    -0.000 C 
BRANCH  16  18
ATOM     17  C   UNL     1       0.736   0.485  -1.750  0.00  0.00    +0.004 C 
ATOM     18  C   UNL     1       0.573  -0.898  -1.116  0.00  0.00    -0.003 C 
ENDBRANCH  16  18
ENDBRANCH  15  16
ENDBRANCH  14  15
ENDBRANCH  13  14
ENDBRANCH   1  13
BRANCH   1  19
ATOM     19  C   UNL     1      -4.873  -5.182  -1.040  0.00  0.00    +0.185 C 
BRANCH  19  20
ATOM     20  C   UNL     1      -6.003  -4.207  -1.249  0.00  0.00    +0.238 C 
ATOM     21  O   UNL     1      -6.167  -3.293  -0.469  0.00  0.00    -0.273 OA
ATOM     22  N   UNL     1      -6.831  -4.351  -2.303  0.00  0.00    -0.314 N 
ATOM     23  H   UNL     1      -6.700  -5.083  -2.926  0.00  0.00    +0.149 HD
BRANCH  22  24
ATOM     24  C   UNL     1      -7.929  -3.404  -2.506  0.00  0.00    +0.104 C 
BRANCH  24  25
ATOM     25  C   UNL     1      -8.711  -3.791  -3.763  0.00  0.00    +0.018 C 
BRANCH  25  26
ATOM     26  C   UNL     1      -9.858  -2.801  -3.975  0.00  0.00    -0.002 C 
ATOM     27  C   UNL     1     -10.639  -3.188  -5.233  0.00  0.00    +0.004 C 
ENDBRANCH  25  26
ENDBRANCH  24  25
ENDBRANCH  22  24
ENDBRANCH  19  20
BRANCH  19  28
ATOM     28  C   UNL     1      -5.432  -6.572  -0.876  0.00  0.00    +0.000 C 
ATOM     29  C   UNL     1      -5.016  -7.542  -1.652  0.00  0.00    -0.032 C 
ATOM     30  C   UNL     1      -3.977  -7.267  -2.709  0.00  0.00    +0.035 C 
ENDBRANCH  19  28
ENDBRANCH   1  19
TORSDOF 13
