REMARK  Name = ZINC12327372
REMARK  3 active torsions:
REMARK  status: ('A' for Active; 'I' for Inactive)
REMARK    1  A    between atoms: C_3  and  C_8
REMARK    2  A    between atoms: C_12  and  O_14
REMARK    3  A    between atoms: C_20  and  C_22
REMARK                            x       y       z     vdW  Elec       q    Type
REMARK                         _______ _______ _______ _____ _____    ______ ____
ROOT
ATOM      1  C   UNL     1       3.614   3.425  -0.332  0.00  0.00    -0.014 A 
ATOM      2  C   UNL     1       3.134   2.699  -1.423  0.00  0.00    +0.017 A 
ATOM      3  C   UNL     1       1.898   2.103  -1.354  0.00  0.00    +0.016 A 
ATOM      4  C   UNL     1       1.131   2.178  -0.201  0.00  0.00    +0.166 A 
ATOM      5  C   UNL     1       1.597   2.921   0.883  0.00  0.00    +0.159 A 
ATOM      6  C   UNL     1       2.832   3.541   0.816  0.00  0.00    +0.057 A 
ATOM      7  O   UNL     1      -0.054   1.526  -0.115  0.00  0.00    -0.486 OA
ATOM      8  C   UNL     1       0.027   0.098  -0.017  0.00  0.00    +0.248 C 
ATOM      9  C   UNL     1       0.032  -0.520  -1.408  0.00  0.00    +0.149 C 
ATOM     10  N   UNL     1       1.185  -0.062  -2.185  0.00  0.00    -0.289 N 
ATOM     11  C   UNL     1       1.329   1.352  -2.544  0.00  0.00    +0.147 C 
ATOM     12  C   UNL     1       2.123  -0.949  -2.574  0.00  0.00    +0.268 C 
ATOM     13  O   UNL     1       2.024  -2.118  -2.255  0.00  0.00    -0.268 OA
ENDROOT
BRANCH   1  16
ATOM     14  C   UNL     1       6.669   5.390   0.636  0.00  0.00    +0.002 A 
ATOM     15  C   UNL     1       5.426   4.793   0.698  0.00  0.00    +0.008 A 
ATOM     16  C   UNL     1       4.949   4.069  -0.393  0.00  0.00    -0.016 A 
ATOM     17  C   UNL     1       5.732   3.947  -1.539  0.00  0.00    +0.028 A 
ATOM     18  C   UNL     1       6.972   4.552  -1.592  0.00  0.00    +0.042 A 
ATOM     19  C   UNL     1       7.441   5.270  -0.505  0.00  0.00    +0.020 A 
ATOM     20 CL   UNL     1       7.947   4.407  -3.021  0.00  0.00    -0.084 Cl
ENDBRANCH   1  16
BRANCH  12  21
ATOM     21  C   UNL     1       3.271  -0.500  -3.389  0.00  0.00    +0.154 A 
ATOM     22  C   UNL     1       4.195  -1.375  -3.954  0.00  0.00    +0.155 A 
ATOM     23  N   UNL     1       5.136  -0.779  -4.640  0.00  0.00    -0.198 NA
ATOM     24  S   UNL     1       4.820   0.757  -4.537  0.00  0.00    +0.116 S 
ATOM     25  N   UNL     1       3.518   0.770  -3.657  0.00  0.00    -0.186 NA
ENDBRANCH  12  21
BRANCH   5  26
ATOM     26  O   UNL     1       0.839   3.037   2.006  0.00  0.00    -0.503 OA
ATOM     27  H   UNL     1       0.237   3.795   1.998  0.00  0.00    +0.292 HD
ENDBRANCH   5  26
TORSDOF 3
