REMARK  Name = ZINC40918184
REMARK  11 active torsions:
REMARK  status: ('A' for Active; 'I' for Inactive)
REMARK    1  A    between atoms: C_1  and  C_2
REMARK    2  A    between atoms: C_2  and  C_3
REMARK    3  A    between atoms: C_3  and  C_4
REMARK    4  A    between atoms: C_4  and  C_5
REMARK    5  A    between atoms: C_9  and  C_11
REMARK    6  A    between atoms: C_12  and  C_29
REMARK    7  A    between atoms: C_14  and  C_17
REMARK    8  A    between atoms: C_17  and  C_18
REMARK    9  A    between atoms: C_18  and  C_19
REMARK   10  A    between atoms: C_22  and  S_25
REMARK   11  A    between atoms: S_25  and  N_28
REMARK                            x       y       z     vdW  Elec       q    Type
REMARK                         _______ _______ _______ _____ _____    ______ ____
ROOT
ATOM      1  C   UNL     1       4.764  -2.031   3.997  0.00  0.00    +0.092 A 
ATOM      2  C   UNL     1       5.646  -1.547   3.047  0.00  0.00    +0.098 A 
ATOM      3  N   UNL     1       6.777  -1.200   3.690  0.00  0.00    -0.232 NA
ATOM      4  C   UNL     1       6.644  -1.439   4.965  0.00  0.00    +0.109 A 
ATOM      5  N   UNL     1       5.417  -1.947   5.205  0.00  0.00    -0.340 N 
ATOM      6  H   UNL     1       5.062  -2.207   6.070  0.00  0.00    +0.167 HD
ENDROOT
BRANCH   2   7
ATOM      7  C   UNL     1       5.394  -1.433   1.593  0.00  0.00    +0.005 A 
ATOM      8  C   UNL     1       4.606  -2.400   0.944  0.00  0.00    +0.012 A 
ATOM      9  C   UNL     1       4.361  -2.317  -0.388  0.00  0.00    +0.030 A 
ATOM     10  C   UNL     1       4.896  -1.254  -1.139  0.00  0.00    +0.089 A 
ATOM     11  C   UNL     1       5.693  -0.273  -0.495  0.00  0.00    +0.090 A 
ATOM     12  C   UNL     1       5.931  -0.373   0.884  0.00  0.00    +0.040 A 
ATOM     13  N   UNL     1       6.202   0.738  -1.209  0.00  0.00    -0.252 NA
ATOM     14  C   UNL     1       5.958   0.812  -2.498  0.00  0.00    +0.131 A 
ATOM     15  C   UNL     1       5.175  -0.154  -3.132  0.00  0.00    +0.131 A 
ATOM     16  N   UNL     1       4.665  -1.156  -2.452  0.00  0.00    -0.252 NA
ENDBRANCH   2   7
BRANCH   1  21
ATOM     17  C   UNL     1       1.492  -2.540   2.454  0.00  0.00    +0.042 A 
ATOM     18  C   UNL     1       0.867  -3.436   3.303  0.00  0.00    +0.023 A 
ATOM     19  C   UNL     1       1.540  -3.894   4.427  0.00  0.00    +0.004 A 
ATOM     20  C   UNL     1       2.824  -3.435   4.661  0.00  0.00    +0.030 A 
ATOM     21  C   UNL     1       3.395  -2.531   3.763  0.00  0.00    +0.090 A 
ATOM     22  N   UNL     1       2.717  -2.121   2.695  0.00  0.00    -0.250 NA
BRANCH  17  23
ATOM     23  C   UNL     1       0.763  -2.041   1.233  0.00  0.00    +0.055 C 
BRANCH  23  24
ATOM     24  C   UNL     1       0.742  -0.511   1.242  0.00  0.00    +0.006 C 
BRANCH  24  26
ATOM     25  C   UNL     1      -0.019   1.526   0.010  0.00  0.00    +0.004 C 
ATOM     26  C   UNL     1       0.002  -0.004   0.002  0.00  0.00    -0.003 C 
ENDBRANCH  24  26
ENDBRANCH  23  24
ENDBRANCH  17  23
ENDBRANCH   1  21
BRANCH   4  27
ATOM     27  C   UNL     1       7.698  -1.181   6.011  0.00  0.00    +0.079 C 
BRANCH  27  28
ATOM     28  C   UNL     1       8.992  -1.899   5.620  0.00  0.00    +0.043 C 
BRANCH  28  29
ATOM     29  C   UNL     1      10.045  -1.641   6.666  0.00  0.00    -0.047 A 
ATOM     30  C   UNL     1      10.883  -0.548   6.549  0.00  0.00    +0.005 A 
ATOM     31  C   UNL     1      11.850  -0.311   7.508  0.00  0.00    +0.029 A 
ATOM     32  C   UNL     1      11.978  -1.168   8.585  0.00  0.00    +0.105 A 
ATOM     33  C   UNL     1      11.140  -2.261   8.703  0.00  0.00    +0.029 A 
ATOM     34  C   UNL     1      10.171  -2.495   7.746  0.00  0.00    +0.005 A 
BRANCH  32  35
ATOM     35  S   UNL     1      13.211  -0.868   9.808  0.00  0.00    +0.056 S 
ATOM     36  O   UNL     1      13.484  -2.118  10.425  0.00  0.00    -0.153 OA
ATOM     37  O   UNL     1      14.223  -0.090   9.182  0.00  0.00    -0.153 OA
BRANCH  35  38
ATOM     38  N   UNL     1      12.525   0.093  10.969  0.00  0.00    -0.204 NA
ATOM     39  H   UNL     1      11.602   0.376  10.881  0.00  0.00    +0.144 HD
ATOM     40  H   UNL     1      13.047   0.374  11.736  0.00  0.00    +0.144 HD
ENDBRANCH  35  38
ENDBRANCH  32  35
ENDBRANCH  28  29
ENDBRANCH  27  28
ENDBRANCH   4  27
TORSDOF 10
