REMARK  Name = ZINC13406013
REMARK  9 active torsions:
REMARK  status: ('A' for Active; 'I' for Inactive)
REMARK    1  A    between atoms: C_1  and  C_2
REMARK    2  A    between atoms: C_2  and  C_3
REMARK    3  A    between atoms: C_3  and  C_5
REMARK    4  A    between atoms: C_3  and  N_6
REMARK    5  A    between atoms: C_10  and  S_12
REMARK    6  A    between atoms: S_12  and  C_13
REMARK    7  A    between atoms: C_13  and  C_14
REMARK    8  A    between atoms: C_22  and  C_28
REMARK    9  A    between atoms: C_23  and  C_25
REMARK                            x       y       z     vdW  Elec       q    Type
REMARK                         _______ _______ _______ _____ _____    ______ ____
ROOT
ATOM      1  C   UNL     1     -10.346   0.569   1.008  0.00  0.00    -0.022 A 
ATOM      2  C   UNL     1     -11.236  -0.445   0.900  0.00  0.00    +0.075 A 
ATOM      3  C   UNL     1     -12.569  -0.280   1.316  0.00  0.00    +0.250 A 
ATOM      4  O   UNL     1     -13.360  -1.202   1.212  0.00  0.00    -0.268 OA
ATOM      5  N   UNL     1     -12.972   0.899   1.831  0.00  0.00    -0.317 N 
ATOM      6  H   UNL     1     -13.892   1.010   2.118  0.00  0.00    +0.169 HD
ATOM      7  C   UNL     1     -12.100   1.934   1.952  0.00  0.00    +0.089 A 
ATOM      8  C   UNL     1     -10.757   1.826   1.558  0.00  0.00    +0.014 A 
ATOM      9  C   UNL     1      -9.974   2.975   1.748  0.00  0.00    -0.020 A 
ATOM     10  C   UNL     1     -10.590   4.065   2.295  0.00  0.00    +0.106 A 
ATOM     11  S   UNL     1     -12.260   3.495   2.533  0.00  0.00    -0.064 S 
ATOM     12  C   UNL     1      -8.516   3.006   1.367  0.00  0.00    +0.046 C 
ENDROOT
BRANCH  10  13
ATOM     13  C   UNL     1     -10.038   5.338   2.591  0.00  0.00    +0.393 C 
ATOM     14  O   UNL     1      -8.858   5.564   2.353  0.00  0.00    -0.240 OA
ATOM     15  O   UNL     1     -10.742   6.210   3.085  0.00  0.00    -0.240 OA
ENDBRANCH  10  13
BRANCH   1  16
ATOM     16  C   UNL     1      -8.922   0.373   0.557  0.00  0.00    +0.112 C 
BRANCH  16  17
ATOM     17  S   UNL     1      -7.897  -0.101   1.977  0.00  0.00    -0.092 S 
BRANCH  17  22
ATOM     18  N   UNL     1      -2.336  -0.932   0.565  0.00  0.00    -0.319 N 
ATOM     19  C   UNL     1      -3.700  -0.681   0.666  0.00  0.00    +0.183 A 
ATOM     20  N   UNL     1      -4.557  -0.332  -0.273  0.00  0.00    -0.125 NA
ATOM     21  N   UNL     1      -5.880  -0.132   0.048  0.00  0.00    -0.133 NA
ATOM     22  C   UNL     1      -6.284  -0.290   1.294  0.00  0.00    +0.160 A 
ATOM     23  S   UNL     1      -4.760  -0.754   2.102  0.00  0.00    -0.025 S 
ATOM     24  H   UNL     1      -1.830  -1.187   1.352  0.00  0.00    +0.148 HD
BRANCH  18  25
ATOM     25  C   UNL     1      -1.663  -0.810  -0.731  0.00  0.00    +0.069 C 
ATOM     26  C   UNL     1      -1.813  -2.119  -1.508  0.00  0.00    +0.028 C 
BRANCH  25  28
ATOM     27  C   UNL     1      -0.024   0.853   0.158  0.00  0.00    +0.005 C 
ATOM     28  C   UNL     1      -0.178  -0.515  -0.508  0.00  0.00    +0.018 C 
ENDBRANCH  25  28
ENDBRANCH  18  25
ENDBRANCH  17  22
ENDBRANCH  16  17
ENDBRANCH   1  16
TORSDOF 6
