REMARK  Name = ZINC57758272
REMARK  5 active torsions:
REMARK  status: ('A' for Active; 'I' for Inactive)
REMARK    1  A    between atoms: C_6  and  C_7
REMARK    2  A    between atoms: C_7  and  C_9
REMARK    3  A    between atoms: C_7  and  O_22
REMARK    4  A    between atoms: C_9  and  N_10
REMARK    5  A    between atoms: N_13  and  C_14
REMARK                            x       y       z     vdW  Elec       q    Type
REMARK                         _______ _______ _______ _____ _____    ______ ____
ROOT
ATOM      1  N   UNL     1      -2.925  -1.903  -1.420  0.00  0.00    -0.296 N 
ATOM      2  C   UNL     1      -3.426  -2.388  -2.573  0.00  0.00    +0.304 C 
ATOM      3  O   UNL     1      -2.785  -2.295  -3.602  0.00  0.00    -0.253 OA
ATOM      4  N   UNL     1      -4.639  -2.976  -2.586  0.00  0.00    -0.268 N 
ATOM      5  H   UNL     1      -3.437  -1.977  -0.599  0.00  0.00    +0.150 HD
ATOM      6  H   UNL     1      -5.122  -3.109  -1.755  0.00  0.00    +0.156 HD
ENDROOT
BRANCH   4   7
ATOM      7  C   UNL     1      -5.201  -3.396  -3.798  0.00  0.00    +0.049 A 
ATOM      8  C   UNL     1      -4.387  -3.889  -4.809  0.00  0.00    +0.027 A 
ATOM      9  C   UNL     1      -4.943  -4.303  -6.003  0.00  0.00    +0.040 A 
ATOM     10  C   UNL     1      -6.312  -4.226  -6.194  0.00  0.00    +0.125 A 
ATOM     11  C   UNL     1      -7.127  -3.734  -5.189  0.00  0.00    +0.055 A 
ATOM     12  C   UNL     1      -6.575  -3.324  -3.990  0.00  0.00    +0.042 A 
ATOM     13 BR   UNL     1      -7.689  -2.660  -2.613  0.00  0.00    -0.048 Br
ATOM     14  F   UNL     1      -6.854  -4.630  -7.364  0.00  0.00    -0.205 F 
ENDBRANCH   4   7
BRANCH   1  15
ATOM     15  C   UNL     1      -1.607  -1.263  -1.406  0.00  0.00    +0.141 C 
BRANCH  15  16
ATOM     16  C   UNL     1      -1.277  -0.804   0.016  0.00  0.00    +0.162 C 
BRANCH  16  22
ATOM     17  C   UNL     1       0.008   1.343   0.024  0.00  0.00    +0.007 A 
ATOM     18  C   UNL     1       1.198   2.046   0.018  0.00  0.00    +0.020 A 
ATOM     19  C   UNL     1       2.403   1.365  -0.004  0.00  0.00    +0.041 A 
ATOM     20  C   UNL     1       2.415  -0.018  -0.020  0.00  0.00    +0.020 A 
ATOM     21  C   UNL     1       1.224  -0.719  -0.013  0.00  0.00    +0.007 A 
ATOM     22  C   UNL     1       0.021  -0.039   0.009  0.00  0.00    -0.018 A 
ATOM     23 CL   UNL     1       3.898   2.247  -0.012  0.00  0.00    -0.084 Cl
ENDBRANCH  16  22
BRANCH  16  24
ATOM     24  O   UNL     1      -1.153  -1.945   0.867  0.00  0.00    -0.386 OA
ATOM     25  H   UNL     1      -0.459  -2.563   0.599  0.00  0.00    +0.210 HD
ENDBRANCH  16  24
ENDBRANCH  15  16
ENDBRANCH   1  15
TORSDOF 5
