REMARK  Name = ZINC13775307
REMARK  6 active torsions:
REMARK  status: ('A' for Active; 'I' for Inactive)
REMARK    1  A    between atoms: C_11  and  O_31
REMARK    2  A    between atoms: C_12  and  C_19
REMARK    3  A    between atoms: C_13  and  C_15
REMARK    4  A    between atoms: N_20  and  C_21
REMARK    5  A    between atoms: C_24  and  S_27
REMARK    6  A    between atoms: S_27  and  N_30
REMARK                            x       y       z     vdW  Elec       q    Type
REMARK                         _______ _______ _______ _____ _____    ______ ____
ROOT
ATOM      1  C   UNL     1      -0.017   1.366   0.010  0.00  0.00    +0.002 A 
ATOM      2  C   UNL     1       1.157   2.107   0.002  0.00  0.00    +0.001 A 
ATOM      3  C   UNL     1       2.373   1.450  -0.013  0.00  0.00    +0.017 A 
ATOM      4  C   UNL     1       2.402   0.078  -0.021  0.00  0.00    +0.041 A 
ATOM      5  C   UNL     1       1.228  -0.710  -0.013  0.00  0.00    +0.081 A 
ATOM      6  C   UNL     1       0.002  -0.004   0.002  0.00  0.00    +0.029 A 
ATOM      7  N   UNL     1       1.420  -2.046  -0.023  0.00  0.00    -0.221 NA
ATOM      8  C   UNL     1       2.615  -2.587  -0.038  0.00  0.00    +0.198 A 
ATOM      9  S   UNL     1       3.683  -1.153  -0.040  0.00  0.00    -0.048 S 
ATOM     10  N   UNL     1       2.963  -3.933  -0.049  0.00  0.00    -0.175 N 
ATOM     11  C   UNL     1       4.228  -4.427  -0.058  0.00  0.00    +0.227 A 
ATOM     12  C   UNL     1       4.124  -5.813  -0.067  0.00  0.00    +0.086 A 
ATOM     13  C   UNL     1       2.743  -6.125  -0.063  0.00  0.00    +0.178 A 
ATOM     14  N   UNL     1       2.070  -5.010  -0.046  0.00  0.00    -0.157 NA
ENDROOT
BRANCH  13  15
ATOM     15  C   UNL     1       2.152  -7.512  -0.069  0.00  0.00    +0.437 C 
ATOM     16  F   UNL     1       1.975  -7.950   1.248  0.00  0.00    -0.164 F 
ATOM     17  F   UNL     1       0.915  -7.488  -0.723  0.00  0.00    -0.164 F 
ATOM     18  F   UNL     1       3.016  -8.384  -0.739  0.00  0.00    -0.164 F 
ENDBRANCH  13  15
BRANCH  12  19
ATOM     19  C   UNL     1       5.234  -6.771  -0.080  0.00  0.00    +0.126 C 
ATOM     20  N   UNL     1       6.467  -6.341  -0.084  0.00  0.00    -0.255 NA
BRANCH  20  21
ATOM     21  C   UNL     1       7.504  -7.236  -0.096  0.00  0.00    +0.064 A 
ATOM     22  C   UNL     1       7.479  -8.349   0.746  0.00  0.00    +0.029 A 
ATOM     23  C   UNL     1       8.526  -9.247   0.729  0.00  0.00    +0.030 A 
ATOM     24  C   UNL     1       9.600  -9.045  -0.120  0.00  0.00    +0.105 A 
ATOM     25  C   UNL     1       9.632  -7.943  -0.957  0.00  0.00    +0.030 A 
ATOM     26  C   UNL     1       8.588  -7.041  -0.954  0.00  0.00    +0.029 A 
BRANCH  24  27
ATOM     27  S   UNL     1      10.934 -10.196  -0.136  0.00  0.00    +0.056 S 
ATOM     28  O   UNL     1      12.070  -9.494  -0.622  0.00  0.00    -0.153 OA
ATOM     29  O   UNL     1      10.924 -10.847   1.127  0.00  0.00    -0.153 OA
BRANCH  27  30
ATOM     30  N   UNL     1      10.572 -11.350  -1.266  0.00  0.00    -0.204 NA
ATOM     31  H   UNL     1      11.285 -11.801  -1.745  0.00  0.00    +0.144 HD
ATOM     32  H   UNL     1       9.646 -11.576  -1.450  0.00  0.00    +0.144 HD
ENDBRANCH  27  30
ENDBRANCH  24  27
ENDBRANCH  20  21
ENDBRANCH  12  19
BRANCH  11  33
ATOM     33  O   UNL     1       5.374  -3.706  -0.060  0.00  0.00    -0.492 OA
ATOM     34  H   UNL     1       5.712  -3.502   0.823  0.00  0.00    +0.294 HD
ENDBRANCH  11  33
TORSDOF 6
