REMARK  Name = ZINC06699910
REMARK  3 active torsions:
REMARK  status: ('A' for Active; 'I' for Inactive)
REMARK    1  A    between atoms: C_1  and  C_2
REMARK    2  A    between atoms: C_11  and  N_13
REMARK    3  A    between atoms: C_14  and  C_16
REMARK                            x       y       z     vdW  Elec       q    Type
REMARK                         _______ _______ _______ _____ _____    ______ ____
ROOT
ATOM      1  C   UNL     1       8.794  -2.000   0.374  0.00  0.00    +0.045 C 
ATOM      2  C   UNL     1       7.518  -2.796   0.278  0.00  0.00    -0.033 A 
ATOM      3  C   UNL     1       7.542  -4.154   0.261  0.00  0.00    +0.096 A 
ATOM      4  C   UNL     1       6.335  -4.876   0.170  0.00  0.00    +0.337 A 
ATOM      5  O   UNL     1       6.370  -6.093   0.156  0.00  0.00    -0.245 OA
ATOM      6  O   UNL     1       5.146  -4.256   0.099  0.00  0.00    -0.422 OA
ATOM      7  C   UNL     1       5.052  -2.909   0.111  0.00  0.00    +0.141 A 
ATOM      8  C   UNL     1       6.218  -2.126   0.200  0.00  0.00    +0.021 A 
ATOM      9  C   UNL     1       6.126  -0.730   0.214  0.00  0.00    +0.013 A 
ATOM     10  C   UNL     1       4.903  -0.130   0.135  0.00  0.00    +0.024 A 
ATOM     11  C   UNL     1       3.743  -0.899   0.052  0.00  0.00    +0.037 A 
ATOM     12  C   UNL     1       3.817  -2.285   0.037  0.00  0.00    +0.070 A 
ENDROOT
BRANCH  11  13
ATOM     13  N   UNL     1       2.500  -0.272  -0.023  0.00  0.00    -0.281 N 
ATOM     14  C   UNL     1       1.427  -0.830   0.571  0.00  0.00    +0.250 C 
ATOM     15  O   UNL     1       1.524  -1.920   1.101  0.00  0.00    -0.270 OA
ATOM     16  H   UNL     1       2.408   0.566  -0.503  0.00  0.00    +0.155 HD
BRANCH  14  17
ATOM     17  C   UNL     1       0.134  -0.117   0.579  0.00  0.00    +0.055 A 
ATOM     18  C   UNL     1       0.020   1.135  -0.030  0.00  0.00    +0.017 A 
ATOM     19  C   UNL     1      -1.188   1.798  -0.015  0.00  0.00    +0.039 A 
ATOM     20  C   UNL     1      -2.292   1.221   0.594  0.00  0.00    +0.125 A 
ATOM     21  C   UNL     1      -2.187  -0.021   1.199  0.00  0.00    +0.059 A 
ATOM     22  C   UNL     1      -0.981  -0.693   1.195  0.00  0.00    +0.056 A 
ATOM     23 CL   UNL     1      -0.849  -2.249   1.953  0.00  0.00    -0.083 Cl
ATOM     24  F   UNL     1      -3.475   1.874   0.601  0.00  0.00    -0.205 F 
ENDBRANCH  14  17
ENDBRANCH  11  13
TORSDOF 2
