REMARK  Name = ZINC59384833
REMARK  6 active torsions:
REMARK  status: ('A' for Active; 'I' for Inactive)
REMARK    1  A    between atoms: C_1  and  C_2
REMARK    2  A    between atoms: C_3  and  C_17
REMARK    3  A    between atoms: C_4  and  C_10
REMARK    4  A    between atoms: N_19  and  N_20
REMARK    5  A    between atoms: C_21  and  C_22
REMARK    6  A    between atoms: C_27  and  N_28
REMARK                            x       y       z     vdW  Elec       q    Type
REMARK                         _______ _______ _______ _____ _____    ______ ____
ROOT
ATOM      1  C   UNL     1       1.147   1.080  -0.808  0.00  0.00    +0.061 C 
ATOM      2  C   UNL     1       1.023  -0.421  -0.776  0.00  0.00    +0.017 C 
ATOM      3  C   UNL     1      -0.162  -0.983  -0.456  0.00  0.00    +0.057 C 
ATOM      4  C   UNL     1      -0.243  -2.496  -0.435  0.00  0.00    +0.139 C 
ATOM      5  N   UNL     1       0.986  -3.234  -0.769  0.00  0.00    -0.315 N 
ATOM      6  C   UNL     1       2.096  -2.530  -1.068  0.00  0.00    +0.135 C 
ATOM      7  S   UNL     1       3.533  -3.376  -1.458  0.00  0.00    -0.019 S 
ATOM      8  N   UNL     1       2.110  -1.192  -1.076  0.00  0.00    -0.300 N 
ATOM      9  H   UNL     1       0.998  -4.204  -0.772  0.00  0.00    +0.149 HD
ATOM     10  H   UNL     1       2.940  -0.744  -1.304  0.00  0.00    +0.154 HD
ENDROOT
BRANCH   4  11
ATOM     11  C   UNL     1      -1.315  -2.917  -1.407  0.00  0.00    -0.023 A 
ATOM     12  C   UNL     1      -1.017  -3.047  -2.751  0.00  0.00    +0.007 A 
ATOM     13  C   UNL     1      -2.000  -3.434  -3.643  0.00  0.00    +0.015 A 
ATOM     14  C   UNL     1      -3.282  -3.690  -3.191  0.00  0.00    +0.018 A 
ATOM     15  C   UNL     1      -3.579  -3.560  -1.846  0.00  0.00    +0.015 A 
ATOM     16  C   UNL     1      -2.595  -3.178  -0.954  0.00  0.00    +0.007 A 
ATOM     17 BR   UNL     1      -4.627  -4.218  -4.410  0.00  0.00    -0.050 Br
ENDBRANCH   4  11
BRANCH   3  18
ATOM     18  C   UNL     1      -1.291  -0.185  -0.149  0.00  0.00    +0.263 C 
ATOM     19  O   UNL     1      -1.657  -0.066   1.007  0.00  0.00    -0.269 OA
ATOM     20  N   UNL     1      -1.962   0.442  -1.136  0.00  0.00    -0.203 N 
ATOM     21  H   UNL     1      -1.716   0.289  -2.062  0.00  0.00    +0.178 HD
BRANCH  20  22
ATOM     22  N   UNL     1      -3.012   1.315  -0.825  0.00  0.00    -0.187 NA
ATOM     23  C   UNL     1      -3.658   1.919  -1.775  0.00  0.00    +0.140 C 
BRANCH  23  24
ATOM     24  C   UNL     1      -4.764   2.837  -1.447  0.00  0.00    +0.025 A 
ATOM     25  C   UNL     1      -5.203   2.964  -0.127  0.00  0.00    +0.012 A 
ATOM     26  C   UNL     1      -6.237   3.826   0.173  0.00  0.00    +0.001 A 
ATOM     27  C   UNL     1      -6.841   4.563  -0.831  0.00  0.00    +0.002 A 
ATOM     28  C   UNL     1      -6.412   4.442  -2.141  0.00  0.00    +0.033 A 
ATOM     29  C   UNL     1      -5.374   3.588  -2.454  0.00  0.00    +0.135 A 
BRANCH  29  30
ATOM     30  N   UNL     1      -4.912   3.465  -3.855  0.00  0.00    +0.057 N 
ATOM     31  O   UNL     1      -5.361   4.197  -4.706  0.00  0.00    -0.126 OA
ATOM     32  O   UNL     1      -4.085   2.633  -4.148  0.00  0.00    -0.126 OA
ENDBRANCH  29  30
ENDBRANCH  23  24
ENDBRANCH  20  22
ENDBRANCH   3  18
TORSDOF 5
