REMARK  Name = ZINC35824117
REMARK  5 active torsions:
REMARK  status: ('A' for Active; 'I' for Inactive)
REMARK    1  A    between atoms: C_1  and  C_2
REMARK    2  A    between atoms: C_5  and  C_8
REMARK    3  A    between atoms: C_10  and  C_14
REMARK    4  A    between atoms: C_14  and  O_15
REMARK    5  A    between atoms: O_15  and  C_16
REMARK                            x       y       z     vdW  Elec       q    Type
REMARK                         _______ _______ _______ _____ _____    ______ ____
ROOT
ATOM      1  C   UNL     1       0.060  -4.256  -0.021  0.00  0.00    +0.001 A 
ATOM      2  C   UNL     1       0.070  -4.973   1.179  0.00  0.00    +0.018 A 
ATOM      3  C   UNL     1       0.088  -6.355   1.117  0.00  0.00    +0.008 A 
ATOM      4  C   UNL     1       0.096  -6.978  -0.118  0.00  0.00    +0.117 A 
ATOM      5  N   UNL     1       0.086  -6.274  -1.234  0.00  0.00    -0.262 NA
ATOM      6  C   UNL     1       0.063  -4.957  -1.225  0.00  0.00    +0.119 A 
ENDROOT
BRANCH   1  11
ATOM      7  C   UNL     1      -0.018   1.503   0.010  0.00  0.00    +0.044 C 
ATOM      8  C   UNL     1       0.002  -0.004   0.002  0.00  0.00    -0.050 A 
ATOM      9  C   UNL     1       0.006  -0.686  -1.201  0.00  0.00    +0.004 A 
ATOM     10  C   UNL     1       0.024  -2.067  -1.215  0.00  0.00    +0.009 A 
ATOM     11  C   UNL     1       0.040  -2.772  -0.013  0.00  0.00    -0.016 A 
ATOM     12  C   UNL     1       0.037  -2.080   1.196  0.00  0.00    +0.009 A 
ATOM     13  C   UNL     1       0.023  -0.700   1.198  0.00  0.00    +0.004 A 
ENDBRANCH   1  11
BRANCH   3  14
ATOM     14  C   UNL     1       0.100  -7.174   2.382  0.00  0.00    +0.266 C 
BRANCH  14  15
ATOM     15  O   UNL     1      -1.244  -7.450   2.784  0.00  0.00    -0.487 OA
BRANCH  15  16
ATOM     16  C   UNL     1      -1.411  -8.184   3.915  0.00  0.00    +0.122 A 
ATOM     17  C   UNL     1      -0.305  -8.624   4.628  0.00  0.00    +0.046 A 
ATOM     18  C   UNL     1      -0.477  -9.370   5.778  0.00  0.00    +0.005 A 
ATOM     19  C   UNL     1      -1.750  -9.678   6.219  0.00  0.00    +0.020 A 
ATOM     20  C   UNL     1      -2.855  -9.241   5.511  0.00  0.00    +0.044 A 
ATOM     21  C   UNL     1      -2.688  -8.490   4.362  0.00  0.00    +0.065 A 
ATOM     22 CL   UNL     1      -4.453  -9.631   6.067  0.00  0.00    -0.083 Cl
ENDBRANCH  15  16
ENDBRANCH  14  15
ENDBRANCH   3  14
TORSDOF 4
