REMARK  Name = ZINC27987495
REMARK  0 active torsions:
REMARK  status: ('A' for Active; 'I' for Inactive)
REMARK                            x       y       z     vdW  Elec       q    Type
REMARK                         _______ _______ _______ _____ _____    ______ ____
ROOT
ATOM      1  C   UNL     1       5.960   3.591  -1.052  0.00  0.00    +0.003 C 
ATOM      2  C   UNL     1       5.989   2.587   0.104  0.00  0.00    +0.019 C 
ATOM      3  C   UNL     1       4.811   1.621  -0.036  0.00  0.00    +0.106 C 
ATOM      4  N   UNL     1       3.552   2.376  -0.020  0.00  0.00    -0.312 N 
ATOM      5  C   UNL     1       3.480   3.313  -1.148  0.00  0.00    +0.106 C 
ATOM      6  C   UNL     1       4.619   4.330  -1.041  0.00  0.00    +0.019 C 
ATOM      7  C   UNL     1       2.457   1.519  -0.013  0.00  0.00    +0.182 A 
ATOM      8  C   UNL     1       1.159   2.067   0.002  0.00  0.00    +0.256 A 
ATOM      9  O   UNL     1       1.053   3.286   0.009  0.00  0.00    -0.281 OA
ATOM     10  C   UNL     1      -0.016   1.308   0.009  0.00  0.00    +0.189 A 
ATOM     11  N   UNL     1       0.002  -0.004   0.002  0.00  0.00    -0.177 NA
ATOM     12  S   UNL     1       1.401  -0.714  -0.015  0.00  0.00    +0.119 S 
ATOM     13  N   UNL     1       2.663   0.220  -0.022  0.00  0.00    -0.173 NA
ATOM     14 CL   UNL     1      -1.546   2.128   0.021  0.00  0.00    -0.057 Cl
ENDROOT
TORSDOF 0
