REMARK  Name = ZINC36830473
REMARK  4 active torsions:
REMARK  status: ('A' for Active; 'I' for Inactive)
REMARK    1  A    between atoms: C_1  and  C_2
REMARK    2  A    between atoms: C_7  and  C_8
REMARK    3  A    between atoms: C_9  and  C_15
REMARK    4  A    between atoms: C_10  and  N_14
REMARK                            x       y       z     vdW  Elec       q    Type
REMARK                         _______ _______ _______ _____ _____    ______ ____
ROOT
ATOM      1  C   UNL     1       0.154   0.016   2.506  0.00  0.00    +0.102 A 
ATOM      2  C   UNL     1      -0.049  -0.564   3.783  0.00  0.00    +0.049 A 
ATOM      3  C   UNL     1      -0.145   0.472   4.693  0.00  0.00    +0.120 A 
ATOM      4  N   UNL     1      -0.006   1.632   4.002  0.00  0.00    -0.263 N 
ATOM      5  H   UNL     1      -0.030   2.525   4.382  0.00  0.00    +0.190 HD
ATOM      6  N   UNL     1       0.184   1.322   2.651  0.00  0.00    -0.172 NA
ENDROOT
BRANCH   1  13
ATOM      7  C   UNL     1      -1.353   0.839   0.179  0.00  0.00    +0.044 C 
ATOM      8  C   UNL     1      -0.409  -0.333   0.103  0.00  0.00    -0.040 A 
ATOM      9  C   UNL     1      -0.254  -1.020  -1.084  0.00  0.00    +0.019 A 
ATOM     10  C   UNL     1       0.613  -2.097  -1.155  0.00  0.00    +0.018 A 
ATOM     11  C   UNL     1       1.328  -2.490  -0.037  0.00  0.00    +0.016 A 
ATOM     12  C   UNL     1       1.180  -1.810   1.154  0.00  0.00    +0.011 A 
ATOM     13  C   UNL     1       0.313  -0.722   1.230  0.00  0.00    +0.006 A 
ATOM     14 BR   UNL     1       0.820  -3.033  -2.785  0.00  0.00    -0.050 Br
ENDBRANCH   1  13
BRANCH   2  15
ATOM     15  C   UNL     1      -0.143  -2.012   4.086  0.00  0.00    -0.012 A 
ATOM     16  C   UNL     1      -1.215  -2.760   3.602  0.00  0.00    +0.010 A 
ATOM     17  C   UNL     1      -1.297  -4.108   3.886  0.00  0.00    +0.020 A 
ATOM     18  C   UNL     1      -0.318  -4.717   4.652  0.00  0.00    +0.041 A 
ATOM     19  C   UNL     1       0.749  -3.979   5.136  0.00  0.00    +0.020 A 
ATOM     20  C   UNL     1       0.844  -2.632   4.852  0.00  0.00    +0.010 A 
ATOM     21 CL   UNL     1      -0.427  -6.413   5.007  0.00  0.00    -0.084 Cl
ENDBRANCH   2  15
BRANCH   3  22
ATOM     22  N   UNL     1      -0.347   0.349   6.061  0.00  0.00    -0.343 N 
ATOM     23  H   UNL     1      -0.435  -0.531   6.461  0.00  0.00    +0.144 HD
ATOM     24  H   UNL     1      -0.400   1.142   6.617  0.00  0.00    +0.144 HD
ENDBRANCH   3  22
TORSDOF 3
