REMARK  Name = ZINC10217722
REMARK  13 active torsions:
REMARK  status: ('A' for Active; 'I' for Inactive)
REMARK    1  A    between atoms: C_1  and  C_2
REMARK    2  A    between atoms: C_2  and  O_3
REMARK    3  A    between atoms: O_3  and  C_4
REMARK    4  A    between atoms: C_6  and  C_11
REMARK    5  A    between atoms: C_9  and  O_10
REMARK    6  A    between atoms: C_11  and  C_12
REMARK    7  A    between atoms: C_11  and  C_22
REMARK    8  A    between atoms: C_13  and  O_21
REMARK    9  A    between atoms: C_15  and  C_20
REMARK   10  A    between atoms: N_16  and  C_19
REMARK   11  A    between atoms: C_23  and  O_31
REMARK   12  A    between atoms: C_25  and  C_30
REMARK   13  A    between atoms: N_26  and  C_29
REMARK                            x       y       z     vdW  Elec       q    Type
REMARK                         _______ _______ _______ _____ _____    ______ ____
ROOT
ATOM      1  C   UNL     1       2.775  -0.826   3.682  0.00  0.00    +0.097 C 
ENDROOT
BRANCH   1   2
ATOM      2  C   UNL     1       3.524   0.114   4.592  0.00  0.00    +0.070 A 
ATOM      3  C   UNL     1       2.869   1.167   5.204  0.00  0.00    +0.128 A 
ATOM      4  C   UNL     1       3.598   2.024   6.052  0.00  0.00    +0.067 A 
ATOM      5  C   UNL     1       4.917   1.813   6.246  0.00  0.00    +0.022 A 
ATOM      6  N   UNL     1       5.555   0.779   5.638  0.00  0.00    -0.315 N 
ATOM      7  C   UNL     1       4.893  -0.064   4.825  0.00  0.00    +0.259 A 
ATOM      8  O   UNL     1       5.487  -0.987   4.289  0.00  0.00    -0.267 OA
ATOM      9  C   UNL     1       6.988   0.579   5.870  0.00  0.00    +0.152 C 
ATOM     10  C   UNL     1       5.693   2.737   7.150  0.00  0.00    +0.064 C 
BRANCH   3  11
ATOM     11  O   UNL     1       1.546   1.369   4.994  0.00  0.00    -0.506 OA
ATOM     12  H   UNL     1       1.185   2.131   5.467  0.00  0.00    +0.292 HD
ENDBRANCH   3  11
ENDBRANCH   1   2
BRANCH   1  13
ATOM     13  C   UNL     1       2.498  -2.115   4.410  0.00  0.00    +0.070 A 
ATOM     14  C   UNL     1       2.717  -3.331   3.789  0.00  0.00    +0.128 A 
ATOM     15  C   UNL     1       2.451  -4.519   4.501  0.00  0.00    +0.067 A 
ATOM     16  C   UNL     1       1.981  -4.453   5.765  0.00  0.00    +0.022 A 
ATOM     17  N   UNL     1       1.764  -3.254   6.367  0.00  0.00    -0.315 N 
ATOM     18  C   UNL     1       2.010  -2.099   5.722  0.00  0.00    +0.259 A 
ATOM     19  O   UNL     1       1.808  -1.033   6.283  0.00  0.00    -0.267 OA
ATOM     20  C   UNL     1       1.253  -3.219   7.739  0.00  0.00    +0.152 C 
ATOM     21  C   UNL     1       1.693  -5.726   6.518  0.00  0.00    +0.064 C 
BRANCH  14  22
ATOM     22  O   UNL     1       3.183  -3.380   2.519  0.00  0.00    -0.506 OA
ATOM     23  H   UNL     1       3.301  -4.277   2.178  0.00  0.00    +0.292 HD
ENDBRANCH  14  22
ENDBRANCH   1  13
BRANCH   1  26
ATOM     24  C   UNL     1       0.260   1.353   1.894  0.00  0.00    +0.162 A 
ATOM     25  C   UNL     1       1.457   0.770   2.276  0.00  0.00    +0.054 A 
ATOM     26  C   UNL     1       1.472  -0.192   3.268  0.00  0.00    -0.031 A 
ATOM     27  C   UNL     1       0.294  -0.575   3.882  0.00  0.00    +0.008 A 
ATOM     28  C   UNL     1      -0.905   0.003   3.506  0.00  0.00    +0.049 A 
ATOM     29  C   UNL     1      -0.926   0.972   2.515  0.00  0.00    +0.158 A 
BRANCH  29  30
ATOM     30  O   UNL     1      -2.103   1.545   2.148  0.00  0.00    -0.503 OA
ATOM     31  H   UNL     1      -2.560   1.081   1.433  0.00  0.00    +0.292 HD
ENDBRANCH  29  30
BRANCH  24  32
ATOM     32  O   UNL     1       0.243   2.299   0.917  0.00  0.00    -0.489 OA
BRANCH  32  34
ATOM     33  C   UNL     1       1.281   3.717  -0.742  0.00  0.00    +0.048 C 
ATOM     34  C   UNL     1       1.498   2.644   0.328  0.00  0.00    +0.226 C 
ENDBRANCH  32  34
ENDBRANCH  24  32
ENDBRANCH   1  26
TORSDOF 8
