REMARK  Name = ZINC11204526
REMARK  5 active torsions:
REMARK  status: ('A' for Active; 'I' for Inactive)
REMARK    1  A    between atoms: C_1  and  C_2
REMARK    2  A    between atoms: C_8  and  C_10
REMARK    3  A    between atoms: C_11  and  C_27
REMARK    4  A    between atoms: N_12  and  C_26
REMARK    5  A    between atoms: C_16  and  C_18
REMARK                            x       y       z     vdW  Elec       q    Type
REMARK                         _______ _______ _______ _____ _____    ______ ____
ROOT
ATOM      1  C   UNL     1       3.285  -3.611  -0.153  0.00  0.00    +0.056 C 
ATOM      2  C   UNL     1       4.523  -4.149  -0.131  0.00  0.00    +0.019 C 
ATOM      3  N   UNL     1       4.702  -5.501  -0.076  0.00  0.00    -0.289 N 
ATOM      4  C   UNL     1       3.696  -6.383  -0.040  0.00  0.00    +0.137 C 
ATOM      5  S   UNL     1       4.061  -8.055   0.028  0.00  0.00    -0.018 S 
ATOM      6  N   UNL     1       2.404  -5.998  -0.055  0.00  0.00    -0.315 N 
ATOM      7  C   UNL     1       2.103  -4.558  -0.107  0.00  0.00    +0.145 C 
ATOM      8  C   UNL     1       6.074  -6.016  -0.055  0.00  0.00    +0.137 C 
ATOM      9  C   UNL     1       5.726  -3.242  -0.168  0.00  0.00    +0.061 C 
ATOM     10  H   UNL     1       1.690  -6.654  -0.029  0.00  0.00    +0.149 HD
ENDROOT
BRANCH   1  18
ATOM     11  C   UNL     1       1.943   3.138  -0.287  0.00  0.00    +0.089 C 
ATOM     12  C   UNL     1       2.333   1.854  -0.973  0.00  0.00    +0.136 A 
ATOM     13  C   UNL     1       2.504   0.646  -0.389  0.00  0.00    +0.091 A 
ATOM     14  C   UNL     1       2.863  -0.207  -1.467  0.00  0.00    +0.168 A 
ATOM     15  N   UNL     1       2.871   0.542  -2.538  0.00  0.00    -0.063 NA
ATOM     16  O   UNL     1       2.580   1.687  -2.280  0.00  0.00    -0.358 OA
ATOM     17  N   UNL     1       3.149  -1.569  -1.396  0.00  0.00    -0.264 N 
ATOM     18  C   UNL     1       3.098  -2.208  -0.210  0.00  0.00    +0.249 C 
ATOM     19  O   UNL     1       2.890  -1.579   0.811  0.00  0.00    -0.270 OA
ATOM     20  H   UNL     1       3.384  -2.058  -2.200  0.00  0.00    +0.157 HD
ENDBRANCH   1  18
BRANCH   7  21
ATOM     21  C   UNL     1       1.261  -4.308  -1.332  0.00  0.00    +0.048 A 
ATOM     22  C   UNL     1       1.697  -4.741  -2.572  0.00  0.00    +0.131 A 
ATOM     23  C   UNL     1       0.919  -4.516  -3.696  0.00  0.00    +0.039 A 
ATOM     24  C   UNL     1      -0.286  -3.850  -3.581  0.00  0.00    +0.006 A 
ATOM     25  C   UNL     1      -0.720  -3.412  -2.344  0.00  0.00    +0.039 A 
ATOM     26  C   UNL     1       0.053  -3.641  -1.218  0.00  0.00    +0.131 A 
ATOM     27  F   UNL     1      -0.371  -3.213  -0.009  0.00  0.00    -0.205 F 
ATOM     28  F   UNL     1       2.878  -5.388  -2.686  0.00  0.00    -0.205 F 
ENDBRANCH   7  21
TORSDOF 2
