REMARK  Name = ZINC59036144
REMARK  18 active torsions:
REMARK  status: ('A' for Active; 'I' for Inactive)
REMARK    1  A    between atoms: C_1  and  C_2
REMARK    2  A    between atoms: C_2  and  N_3
REMARK    3  A    between atoms: N_3  and  C_4
REMARK    4  A    between atoms: N_3  and  C_6
REMARK    5  A    between atoms: C_4  and  C_5
REMARK    6  A    between atoms: C_6  and  C_7
REMARK    7  A    between atoms: C_7  and  C_8
REMARK    8  A    between atoms: C_8  and  N_9
REMARK    9  A    between atoms: N_9  and  C_10
REMARK   10  A    between atoms: C_10  and  N_12
REMARK   11  A    between atoms: N_12  and  C_13
REMARK   12  A    between atoms: N_12  and  C_22
REMARK   13  A    between atoms: C_13  and  C_14
REMARK   14  A    between atoms: C_17  and  O_20
REMARK   15  A    between atoms: O_20  and  C_21
REMARK   16  A    between atoms: C_22  and  C_23
REMARK   17  A    between atoms: C_26  and  O_29
REMARK   18  A    between atoms: O_29  and  C_30
REMARK                            x       y       z     vdW  Elec       q    Type
REMARK                         _______ _______ _______ _____ _____    ______ ____
ROOT
ATOM      1  N   UNL     1      -5.808  -6.377   0.123  0.00  0.00    -0.304 N 
ENDROOT
BRANCH   1   2
ATOM      2  C   UNL     1      -4.543  -5.924   0.224  0.00  0.00    +0.133 C 
ATOM      3  S   UNL     1      -3.260  -7.023   0.502  0.00  0.00    -0.019 S 
BRANCH   2   4
ATOM      4  N   UNL     1      -4.288  -4.606   0.107  0.00  0.00    -0.326 N 
ATOM      5  H   UNL     1      -5.015  -3.983  -0.050  0.00  0.00    +0.148 HD
BRANCH   4   6
ATOM      6  C   UNL     1      -2.913  -4.113   0.217  0.00  0.00    +0.101 C 
BRANCH   6   7
ATOM      7  C   UNL     1      -2.901  -2.592   0.048  0.00  0.00    +0.000 C 
BRANCH   7   8
ATOM      8  C   UNL     1      -1.464  -2.078   0.163  0.00  0.00    -0.077 C 
BRANCH   8   9
ATOM      9  N   UNL     1      -1.438  -0.634  -0.108  0.00  0.00    +0.379 N 
ATOM     10  H   UNL     1      -1.863  -0.453  -1.004  0.00  0.00    -0.082 HD
BRANCH   9  12
ATOM     11  C   UNL     1      -2.263   1.562   0.594  0.00  0.00    -0.017 C 
ATOM     12  C   UNL     1      -2.184   0.074   0.941  0.00  0.00    -0.082 C 
ENDBRANCH   9  12
BRANCH   9  13
ATOM     13  C   UNL     1      -0.046  -0.164  -0.121  0.00  0.00    -0.082 C 
ATOM     14  C   UNL     1       0.689  -0.780  -1.313  0.00  0.00    -0.017 C 
ENDBRANCH   9  13
ENDBRANCH   8   9
ENDBRANCH   7   8
ENDBRANCH   6   7
ENDBRANCH   4   6
ENDBRANCH   2   4
ENDBRANCH   1   2
BRANCH   1  15
ATOM     15  C   UNL     1      -6.085  -7.810   0.250  0.00  0.00    +0.142 C 
BRANCH  15  16
ATOM     16  C   UNL     1      -6.349  -8.144   1.696  0.00  0.00    -0.030 A 
ATOM     17  C   UNL     1      -5.301  -8.503   2.524  0.00  0.00    +0.009 A 
ATOM     18  C   UNL     1      -5.540  -8.810   3.849  0.00  0.00    +0.046 A 
ATOM     19  C   UNL     1      -6.833  -8.758   4.350  0.00  0.00    +0.120 A 
ATOM     20  C   UNL     1      -7.883  -8.397   3.517  0.00  0.00    +0.046 A 
ATOM     21  C   UNL     1      -7.638  -8.086   2.194  0.00  0.00    +0.009 A 
BRANCH  19  22
ATOM     22  O   UNL     1      -7.071  -9.060   5.653  0.00  0.00    -0.495 OA
ATOM     23  C   UNL     1      -8.426  -8.985   6.100  0.00  0.00    +0.277 C 
ENDBRANCH  19  22
ENDBRANCH  15  16
ENDBRANCH   1  15
BRANCH   1  24
ATOM     24  C   UNL     1      -6.906  -5.437  -0.115  0.00  0.00    +0.142 C 
BRANCH  24  25
ATOM     25  C   UNL     1      -7.114  -5.271  -1.598  0.00  0.00    -0.030 A 
ATOM     26  C   UNL     1      -6.425  -4.290  -2.286  0.00  0.00    +0.009 A 
ATOM     27  C   UNL     1      -6.614  -4.137  -3.646  0.00  0.00    +0.046 A 
ATOM     28  C   UNL     1      -7.496  -4.968  -4.321  0.00  0.00    +0.120 A 
ATOM     29  C   UNL     1      -8.187  -5.952  -3.628  0.00  0.00    +0.046 A 
ATOM     30  C   UNL     1      -7.990  -6.105  -2.269  0.00  0.00    +0.009 A 
BRANCH  28  31
ATOM     31  O   UNL     1      -7.685  -4.818  -5.659  0.00  0.00    -0.495 OA
ATOM     32  C   UNL     1      -8.608  -5.710  -6.287  0.00  0.00    +0.277 C 
ENDBRANCH  28  31
ENDBRANCH  24  25
ENDBRANCH   1  24
TORSDOF 14
