REMARK  Name = ZINC09149443
REMARK  6 active torsions:
REMARK  status: ('A' for Active; 'I' for Inactive)
REMARK    1  A    between atoms: C_1  and  C_2
REMARK    2  A    between atoms: C_7  and  N_8
REMARK    3  A    between atoms: C_9  and  C_32
REMARK    4  A    between atoms: N_18  and  C_23
REMARK    5  A    between atoms: N_21  and  C_22
REMARK    6  A    between atoms: C_23  and  C_24
REMARK                            x       y       z     vdW  Elec       q    Type
REMARK                         _______ _______ _______ _____ _____    ______ ____
ROOT
ATOM      1  N   UNL     1      -2.429   1.040   0.019  0.00  0.00    -0.282 N 
ATOM      2  C   UNL     1      -3.138   0.636  -1.098  0.00  0.00    +0.040 A 
ATOM      3  C   UNL     1      -4.222  -0.016  -0.688  0.00  0.00    +0.116 A 
ATOM      4  N   UNL     1      -4.225  -0.030   0.696  0.00  0.00    -0.277 N 
ATOM      5  C   UNL     1      -3.119   0.621   1.128  0.00  0.00    +0.223 A 
ATOM      6  N   UNL     1      -3.101   0.621   2.453  0.00  0.00    -0.193 NA
ATOM      7  C   UNL     1      -4.170  -0.017   2.921  0.00  0.00    +0.170 A 
ATOM      8  C   UNL     1      -4.914  -0.448   1.824  0.00  0.00    +0.157 A 
ATOM      9  C   UNL     1      -6.107  -1.157   2.042  0.00  0.00    +0.283 A 
ATOM     10  O   UNL     1      -6.774  -1.544   1.098  0.00  0.00    -0.265 OA
ATOM     11  N   UNL     1      -6.508  -1.404   3.306  0.00  0.00    -0.255 N 
ATOM     12  C   UNL     1      -5.784  -0.985   4.357  0.00  0.00    +0.334 A 
ATOM     13  O   UNL     1      -6.177  -1.227   5.482  0.00  0.00    -0.246 OA
ATOM     14  N   UNL     1      -4.634  -0.303   4.197  0.00  0.00    -0.279 N 
ATOM     15  C   UNL     1      -3.874   0.138   5.369  0.00  0.00    +0.155 C 
ATOM     16  C   UNL     1      -2.748   0.888  -2.532  0.00  0.00    +0.065 C 
ENDROOT
BRANCH   1  23
ATOM     17  C   UNL     1      -2.551   3.884   0.048  0.00  0.00    +0.046 C 
ATOM     18  C   UNL     1      -1.239   3.143   0.031  0.00  0.00    -0.027 A 
ATOM     19  C   UNL     1      -0.049   3.845   0.023  0.00  0.00    +0.005 A 
ATOM     20  C   UNL     1       1.155   3.166   0.008  0.00  0.00    +0.000 A 
ATOM     21  C   UNL     1       1.173   1.783   0.000  0.00  0.00    +0.002 A 
ATOM     22  C   UNL     1      -0.013   1.076   0.008  0.00  0.00    +0.026 A 
ATOM     23  C   UNL     1      -1.224   1.755   0.017  0.00  0.00    +0.053 A 
ENDBRANCH   1  23
BRANCH  11  24
ATOM     24  C   UNL     1      -7.752  -2.142   3.536  0.00  0.00    +0.169 C 
BRANCH  24  25
ATOM     25  C   UNL     1      -8.902  -1.173   3.625  0.00  0.00    +0.026 A 
ATOM     26  C   UNL     1      -9.598  -0.815   2.482  0.00  0.00    +0.130 A 
ATOM     27  C   UNL     1     -10.654   0.075   2.566  0.00  0.00    +0.039 A 
ATOM     28  C   UNL     1     -11.015   0.608   3.789  0.00  0.00    +0.004 A 
ATOM     29  C   UNL     1     -10.321   0.251   4.930  0.00  0.00    +0.020 A 
ATOM     30  C   UNL     1      -9.268  -0.643   4.849  0.00  0.00    +0.049 A 
ATOM     31 CL   UNL     1      -8.401  -1.096   6.284  0.00  0.00    -0.083 Cl
ATOM     32  F   UNL     1      -9.245  -1.336   1.287  0.00  0.00    -0.205 F 
ENDBRANCH  24  25
ENDBRANCH  11  24
TORSDOF 3
