REMARK  Name = ZINC43766807
REMARK  8 active torsions:
REMARK  status: ('A' for Active; 'I' for Inactive)
REMARK    1  A    between atoms: C_1  and  C_2
REMARK    2  A    between atoms: C_2  and  C_3
REMARK    3  A    between atoms: C_3  and  N_4
REMARK    4  A    between atoms: C_11  and  C_23
REMARK    5  A    between atoms: C_13  and  C_19
REMARK    6  A    between atoms: C_13  and  C_21
REMARK    7  A    between atoms: C_14  and  N_18
REMARK    8  A    between atoms: C_15  and  C_16
REMARK                            x       y       z     vdW  Elec       q    Type
REMARK                         _______ _______ _______ _____ _____    ______ ____
ROOT
ATOM      1  N   UNL     1      -1.515  -1.867  -0.125  0.00  0.00    -0.298 NA
ATOM      2  C   UNL     1      -0.962  -2.306   1.169  0.00  0.00    +0.112 C 
ATOM      3  C   UNL     1      -0.767  -3.800   1.097  0.00  0.00    -0.007 C 
ATOM      4  C   UNL     1      -1.598  -4.540   0.387  0.00  0.00    -0.026 C 
ATOM      5  C   UNL     1      -2.789  -3.972  -0.331  0.00  0.00    +0.044 C 
ATOM      6  C   UNL     1      -2.837  -2.462  -0.338  0.00  0.00    +0.093 C 
ATOM      7  C   UNL     1      -2.815  -4.557  -1.744  0.00  0.00    +0.068 C 
ATOM      8  C   UNL     1      -3.004  -6.071  -1.649  0.00  0.00    +0.188 C 
ATOM      9  C   UNL     1      -2.030  -6.696  -0.697  0.00  0.00    +0.054 C 
ATOM     10  C   UNL     1      -1.373  -6.003   0.268  0.00  0.00    +0.074 C 
ENDROOT
BRANCH   7  11
ATOM     11  C   UNL     1      -1.514  -4.251  -2.441  0.00  0.00    -0.037 A 
ATOM     12  C   UNL     1      -1.389  -3.096  -3.192  0.00  0.00    +0.008 A 
ATOM     13  C   UNL     1      -0.199  -2.811  -3.833  0.00  0.00    +0.050 A 
ATOM     14  C   UNL     1       0.874  -3.682  -3.724  0.00  0.00    +0.166 A 
ATOM     15  C   UNL     1       0.748  -4.844  -2.968  0.00  0.00    +0.166 A 
ATOM     16  C   UNL     1      -0.447  -5.121  -2.324  0.00  0.00    +0.053 A 
ATOM     17  O   UNL     1       1.929  -5.527  -3.017  0.00  0.00    -0.453 OA
ATOM     18  C   UNL     1       2.643  -4.978  -4.140  0.00  0.00    +0.466 C 
ATOM     19  O   UNL     1       2.134  -3.636  -4.247  0.00  0.00    -0.453 OA
ENDBRANCH   7  11
BRANCH   9  20
ATOM     20  N   UNL     1      -1.790  -8.037  -0.805  0.00  0.00    -0.358 N 
ATOM     21  H   UNL     1      -2.246  -8.558  -1.485  0.00  0.00    +0.142 HD
ATOM     22  H   UNL     1      -1.165  -8.469  -0.202  0.00  0.00    +0.142 HD
ENDBRANCH   9  20
BRANCH  10  23
ATOM     23  C   UNL     1      -0.474  -6.673   1.158  0.00  0.00    +0.101 C 
ATOM     24  N   UNL     1       0.239  -7.205   1.865  0.00  0.00    -0.191 NA
ENDBRANCH  10  23
BRANCH   8  25
ATOM     25  C   UNL     1      -4.373  -6.356  -1.190  0.00  0.00    +0.091 C 
ATOM     26  N   UNL     1      -5.430  -6.575  -0.836  0.00  0.00    -0.194 NA
ENDBRANCH   8  25
BRANCH   8  27
ATOM     27  C   UNL     1      -2.815  -6.662  -2.985  0.00  0.00    +0.091 C 
ATOM     28  N   UNL     1      -2.670  -7.118  -4.015  0.00  0.00    -0.194 NA
ENDBRANCH   8  27
BRANCH   1  29
ATOM     29  C   UNL     1      -1.579  -0.401  -0.200  0.00  0.00    +0.084 C 
BRANCH  29  31
ATOM     30  C   UNL     1      -0.226   1.697  -0.301  0.00  0.00    +0.005 C 
ATOM     31  C   UNL     1      -0.160   0.171  -0.223  0.00  0.00    +0.012 C 
ENDBRANCH  29  31
ENDBRANCH   1  29
TORSDOF 7
