REMARK  Name = ZINC59516463
REMARK  10 active torsions:
REMARK  status: ('A' for Active; 'I' for Inactive)
REMARK    1  A    between atoms: C_3  and  N_14
REMARK    2  A    between atoms: C_4  and  N_11
REMARK    3  A    between atoms: C_6  and  C_7
REMARK    4  A    between atoms: N_14  and  C_15
REMARK    5  A    between atoms: C_15  and  C_16
REMARK    6  A    between atoms: C_16  and  C_17
REMARK    7  A    between atoms: C_17  and  C_18
REMARK    8  A    between atoms: N_20  and  N_21
REMARK    9  A    between atoms: C_22  and  C_23
REMARK   10  A    between atoms: C_28  and  O_29
REMARK                            x       y       z     vdW  Elec       q    Type
REMARK                         _______ _______ _______ _____ _____    ______ ____
ROOT
ATOM      1  C   UNL     1       5.056   4.037  -0.322  0.00  0.00    +0.028 C 
ENDROOT
BRANCH   1   2
ATOM      2  C   UNL     1       3.611   3.534  -0.284  0.00  0.00    +0.102 C 
BRANCH   2   3
ATOM      3  N   UNL     1       3.605   2.077  -0.127  0.00  0.00    -0.342 N 
ATOM      4  H   UNL     1       4.443   1.593  -0.065  0.00  0.00    +0.146 HD
BRANCH   3   7
ATOM      5  C   UNL     1      -0.001   1.374  -0.215  0.00  0.00    +0.014 A 
ATOM      6  C   UNL     1       1.196   2.060  -0.276  0.00  0.00    +0.026 A 
ATOM      7  C   UNL     1       2.393   1.387  -0.066  0.00  0.00    +0.058 A 
ATOM      8  C   UNL     1       2.381   0.024   0.204  0.00  0.00    +0.147 A 
ATOM      9  C   UNL     1       1.180  -0.656   0.264  0.00  0.00    +0.047 A 
ATOM     10  C   UNL     1      -0.009   0.018   0.054  0.00  0.00    +0.057 A 
BRANCH  10  11
ATOM     11  C   UNL     1      -1.317  -0.727   0.120  0.00  0.00    +0.417 C 
ATOM     12  F   UNL     1      -2.372   0.159  -0.123  0.00  0.00    -0.166 F 
ATOM     13  F   UNL     1      -1.327  -1.739  -0.846  0.00  0.00    -0.166 F 
ATOM     14  F   UNL     1      -1.468  -1.294   1.390  0.00  0.00    -0.166 F 
ENDBRANCH  10  11
BRANCH   8  15
ATOM     15  N   UNL     1       3.653  -0.698   0.428  0.00  0.00    +0.058 N 
ATOM     16  O   UNL     1       3.790  -1.825   0.010  0.00  0.00    -0.126 OA
ATOM     17  O   UNL     1       4.555  -0.162   1.029  0.00  0.00    -0.126 OA
ENDBRANCH   8  15
ENDBRANCH   3   7
ENDBRANCH   2   3
ENDBRANCH   1   2
BRANCH   1  18
ATOM     18  C   UNL     1       5.062   5.558  -0.486  0.00  0.00    +0.099 C 
BRANCH  18  19
ATOM     19  C   UNL     1       6.485   6.053  -0.524  0.00  0.00    +0.232 C 
ATOM     20  O   UNL     1       7.404   5.266  -0.429  0.00  0.00    -0.274 OA
ATOM     21  N   UNL     1       6.737   7.370  -0.663  0.00  0.00    -0.207 N 
ATOM     22  H   UNL     1       6.002   7.998  -0.740  0.00  0.00    +0.177 HD
BRANCH  21  23
ATOM     23  N   UNL     1       8.059   7.830  -0.699  0.00  0.00    -0.188 NA
ATOM     24  C   UNL     1       8.302   9.098  -0.833  0.00  0.00    +0.142 C 
BRANCH  24  25
ATOM     25  C   UNL     1       9.693   9.582  -0.870  0.00  0.00    +0.037 A 
ATOM     26  C   UNL     1       9.959  10.947  -1.008  0.00  0.00    +0.028 A 
ATOM     27  C   UNL     1      11.264  11.393  -1.041  0.00  0.00    +0.019 A 
ATOM     28  C   UNL     1      12.312  10.494  -0.938  0.00  0.00    +0.019 A 
ATOM     29  C   UNL     1      12.062   9.142  -0.801  0.00  0.00    +0.047 A 
ATOM     30  C   UNL     1      10.758   8.677  -0.760  0.00  0.00    +0.126 A 
ATOM     31 BR   UNL     1      11.622  13.241  -1.229  0.00  0.00    -0.050 Br
BRANCH  30  32
ATOM     32  O   UNL     1      10.511   7.349  -0.620  0.00  0.00    -0.506 OA
ATOM     33  H   UNL     1      10.450   6.870  -1.457  0.00  0.00    +0.292 HD
ENDBRANCH  30  32
ENDBRANCH  24  25
ENDBRANCH  21  23
ENDBRANCH  18  19
ENDBRANCH   1  18
TORSDOF 10
