REMARK  Name = ZINC20462878
REMARK  6 active torsions:
REMARK  status: ('A' for Active; 'I' for Inactive)
REMARK    1  A    between atoms: C_1  and  C_2
REMARK    2  A    between atoms: C_2  and  C_32
REMARK    3  A    between atoms: N_11  and  C_24
REMARK    4  A    between atoms: N_14  and  C_15
REMARK    5  A    between atoms: C_15  and  C_16
REMARK    6  A    between atoms: C_24  and  C_25
REMARK                            x       y       z     vdW  Elec       q    Type
REMARK                         _______ _______ _______ _____ _____    ______ ____
ROOT
ATOM      1  C   UNL     1      -3.744  -5.513  -4.243  0.00  0.00    +0.041 C 
ATOM      2  C   UNL     1      -3.576  -4.240  -5.075  0.00  0.00    +0.068 C 
ATOM      3  C   UNL     1      -2.096  -3.847  -5.107  0.00  0.00    +0.071 C 
ATOM      4  C   UNL     1      -1.704  -3.367  -3.712  0.00  0.00    -0.020 A 
ATOM      5  C   UNL     1      -2.670  -3.012  -2.834  0.00  0.00    +0.021 A 
ATOM      6  S   UNL     1      -1.797  -2.532  -1.371  0.00  0.00    -0.073 S 
ATOM      7  C   UNL     1      -0.142  -2.816  -1.949  0.00  0.00    +0.095 A 
ATOM      8  C   UNL     1      -0.322  -3.265  -3.254  0.00  0.00    +0.047 A 
ATOM      9  C   UNL     1       0.925  -3.583  -3.999  0.00  0.00    +0.111 A 
ATOM     10  N   UNL     1       0.872  -4.017  -5.231  0.00  0.00    -0.344 N 
ATOM     11  N   UNL     1       2.140  -3.413  -3.366  0.00  0.00    -0.274 N 
ATOM     12  C   UNL     1       2.213  -2.967  -2.100  0.00  0.00    +0.332 A 
ATOM     13  O   UNL     1       3.303  -2.830  -1.579  0.00  0.00    -0.246 OA
ATOM     14  N   UNL     1       1.104  -2.669  -1.398  0.00  0.00    -0.283 N 
ATOM     15  C   UNL     1      -4.146  -3.035  -3.082  0.00  0.00    +0.203 C 
ATOM     16  O   UNL     1      -4.353  -3.189  -4.496  0.00  0.00    -0.368 OA
ATOM     17  C   UNL     1      -4.059  -4.500  -6.503  0.00  0.00    +0.041 C 
ATOM     18  H   UNL     1       1.801  -4.250  -5.773  0.00  0.00    +0.144 HD
ATOM     19  H   UNL     1      -0.101  -4.150  -5.726  0.00  0.00    +0.144 HD
ENDROOT
BRANCH  14  20
ATOM     20  C   UNL     1       1.231  -2.186  -0.021  0.00  0.00    +0.165 C 
BRANCH  20  21
ATOM     21  C   UNL     1       1.611  -0.728  -0.033  0.00  0.00    +0.009 A 
ATOM     22  C   UNL     1       0.634   0.241  -0.184  0.00  0.00    +0.047 A 
ATOM     23  C   UNL     1       0.984   1.579  -0.195  0.00  0.00    +0.020 A 
ATOM     24  C   UNL     1       2.308   1.949  -0.054  0.00  0.00    +0.003 A 
ATOM     25  C   UNL     1       3.284   0.982   0.097  0.00  0.00    +0.020 A 
ATOM     26  C   UNL     1       2.936  -0.357   0.107  0.00  0.00    +0.047 A 
ATOM     27 CL   UNL     1       4.162  -1.571   0.298  0.00  0.00    -0.083 Cl
ATOM     28 CL   UNL     1      -1.029  -0.224  -0.361  0.00  0.00    -0.083 Cl
ENDBRANCH  20  21
ENDBRANCH  14  20
BRANCH  11  29
ATOM     29  C   UNL     1       3.376  -3.724  -4.089  0.00  0.00    +0.202 C 
BRANCH  29  30
ATOM     30  C   UNL     1       3.740  -5.168  -3.863  0.00  0.00    +0.125 A 
ATOM     31  C   UNL     1       3.341  -6.208  -4.618  0.00  0.00    +0.046 A 
ATOM     32  C   UNL     1       3.914  -7.369  -4.051  0.00  0.00    +0.041 A 
ATOM     33  C   UNL     1       4.622  -6.971  -2.979  0.00  0.00    +0.195 A 
ATOM     34  O   UNL     1       4.513  -5.637  -2.870  0.00  0.00    -0.466 OA
ENDBRANCH  29  30
ENDBRANCH  11  29
TORSDOF 4
