REMARK  Name = ZINC51095203
REMARK  9 active torsions:
REMARK  status: ('A' for Active; 'I' for Inactive)
REMARK    1  A    between atoms: C_3  and  N_20
REMARK    2  A    between atoms: C_4  and  C_10
REMARK    3  A    between atoms: C_6  and  N_7
REMARK    4  A    between atoms: N_12  and  C_13
REMARK    5  A    between atoms: C_13  and  C_14
REMARK    6  A    between atoms: C_14  and  C_15
REMARK    7  A    between atoms: C_15  and  S_16
REMARK    8  A    between atoms: S_16  and  N_19
REMARK    9  A    between atoms: N_20  and  N_21
REMARK                            x       y       z     vdW  Elec       q    Type
REMARK                         _______ _______ _______ _____ _____    ______ ____
ROOT
ATOM      1  C   UNL     1      -0.068   1.279   0.017  0.00  0.00    +0.034 A 
ATOM      2  C   UNL     1       1.048   2.090  -0.009  0.00  0.00    +0.027 A 
ATOM      3  C   UNL     1       2.317   1.525  -0.032  0.00  0.00    +0.053 A 
ATOM      4  C   UNL     1       2.456   0.128  -0.028  0.00  0.00    +0.061 A 
ATOM      5  C   UNL     1       1.316  -0.678  -0.002  0.00  0.00    +0.047 A 
ATOM      6  C   UNL     1       0.066  -0.100   0.021  0.00  0.00    +0.127 A 
ENDROOT
BRANCH   4   7
ATOM      7  C   UNL     1       3.797  -0.484  -0.053  0.00  0.00    +0.246 C 
ATOM      8  O   UNL     1       4.787   0.218   0.030  0.00  0.00    -0.270 OA
ATOM      9  N   UNL     1       3.926  -1.820  -0.167  0.00  0.00    -0.311 N 
ATOM     10  H   UNL     1       3.136  -2.380  -0.233  0.00  0.00    +0.149 HD
BRANCH   9  11
ATOM     11  C   UNL     1       5.259  -2.429  -0.192  0.00  0.00    +0.106 C 
BRANCH  11  12
ATOM     12  C   UNL     1       5.124  -3.946  -0.328  0.00  0.00    +0.043 C 
BRANCH  12  13
ATOM     13  C   UNL     1       6.516  -4.582  -0.353  0.00  0.00    +0.186 C 
BRANCH  13  14
ATOM     14  S   UNL     1       6.356  -6.381  -0.514  0.00  0.00    +0.027 S 
ATOM     15  O   UNL     1       5.784  -6.929   0.665  0.00  0.00    -0.158 OA
ATOM     16  O   UNL     1       5.837  -6.714  -1.794  0.00  0.00    -0.158 OA
BRANCH  14  17
ATOM     17  N   UNL     1       7.913  -6.947  -0.530  0.00  0.00    -0.208 NA
ATOM     18  H   UNL     1       8.111  -7.830  -0.182  0.00  0.00    +0.144 HD
ATOM     19  H   UNL     1       8.626  -6.395  -0.888  0.00  0.00    +0.144 HD
ENDBRANCH  14  17
ENDBRANCH  13  14
ENDBRANCH  12  13
ENDBRANCH  11  12
ENDBRANCH   9  11
ENDBRANCH   4   7
BRANCH   6  20
ATOM     20  N   UNL     1      -1.141  -0.957   0.049  0.00  0.00    +0.056 N 
ATOM     21  O   UNL     1      -2.240  -0.453   0.069  0.00  0.00    -0.126 OA
ATOM     22  O   UNL     1      -1.028  -2.160   0.052  0.00  0.00    -0.126 OA
ENDBRANCH   6  20
BRANCH   3  23
ATOM     23  N   UNL     1       3.443   2.339  -0.059  0.00  0.00    -0.282 N 
ATOM     24  H   UNL     1       4.327   1.945   0.004  0.00  0.00    +0.166 HD
BRANCH  23  25
ATOM     25  N   UNL     1       3.304   3.693  -0.173  0.00  0.00    -0.256 NA
ATOM     26  H   UNL     1       2.717   4.060   0.561  0.00  0.00    +0.140 HD
ATOM     27  H   UNL     1       4.204   4.149  -0.179  0.00  0.00    +0.140 HD
ENDBRANCH  23  25
ENDBRANCH   3  23
TORSDOF 9
