REMARK  Name = ZINC39533965
REMARK  9 active torsions:
REMARK  status: ('A' for Active; 'I' for Inactive)
REMARK    1  A    between atoms: C_4  and  O_32
REMARK    2  A    between atoms: C_5  and  C_7
REMARK    3  A    between atoms: C_10  and  C_13
REMARK    4  A    between atoms: C_13  and  C_15
REMARK    5  A    between atoms: C_13  and  N_18
REMARK    6  A    between atoms: C_15  and  N_16
REMARK    7  A    between atoms: N_16  and  O_17
REMARK    8  A    between atoms: C_22  and  C_25
REMARK    9  A    between atoms: C_30  and  O_31
REMARK                            x       y       z     vdW  Elec       q    Type
REMARK                         _______ _______ _______ _____ _____    ______ ____
ROOT
ATOM      1  C   UNL     1       1.319  -6.441  -0.046  0.00  0.00    +0.103 C 
ENDROOT
BRANCH   1   2
ATOM      2  N   UNL     1       0.009  -6.997   0.316  0.00  0.00    -0.297 NA
ATOM      3  C   UNL     1      -0.172  -7.012   1.774  0.00  0.00    +0.066 C 
ATOM      4  C   UNL     1      -1.568  -7.542   2.107  0.00  0.00    -0.066 C 
ATOM      5  N   UNL     1      -1.720  -8.898   1.563  0.00  0.00    +0.385 N 
ATOM      6  C   UNL     1      -1.562  -8.863   0.104  0.00  0.00    -0.023 C 
ATOM      7  C   UNL     1      -0.165  -8.344  -0.246  0.00  0.00    +0.074 C 
ATOM      8  H   UNL     1      -1.017  -9.501   1.964  0.00  0.00    -0.085 HD
ATOM      9  H   UNL     1      -2.637  -9.251   1.794  0.00  0.00    -0.085 HD
BRANCH   6  10
ATOM     10  C   UNL     1      -1.736 -10.252  -0.454  0.00  0.00    -0.019 A 
ATOM     11  C   UNL     1      -1.594 -11.351   0.371  0.00  0.00    +0.005 A 
ATOM     12  C   UNL     1      -1.753 -12.625  -0.140  0.00  0.00    +0.000 A 
ATOM     13  C   UNL     1      -2.055 -12.804  -1.478  0.00  0.00    +0.004 A 
ATOM     14  C   UNL     1      -2.197 -11.708  -2.307  0.00  0.00    +0.045 A 
ATOM     15  C   UNL     1      -2.044 -10.428  -1.795  0.00  0.00    +0.118 A 
BRANCH  15  16
ATOM     16  O   UNL     1      -2.189  -9.348  -2.607  0.00  0.00    -0.507 OA
ATOM     17  H   UNL     1      -1.370  -9.065  -3.037  0.00  0.00    +0.292 HD
ENDBRANCH  15  16
ENDBRANCH   6  10
ENDBRANCH   1   2
BRANCH   1  21
ATOM     18  C   UNL     1       1.207  -2.181   0.310  0.00  0.00    -0.014 A 
ATOM     19  C   UNL     1       2.302  -2.805  -0.286  0.00  0.00    +0.009 A 
ATOM     20  C   UNL     1       2.333  -4.180  -0.399  0.00  0.00    +0.006 A 
ATOM     21  C   UNL     1       1.280  -4.939   0.079  0.00  0.00    -0.029 A 
ATOM     22  C   UNL     1       0.191  -4.326   0.672  0.00  0.00    +0.006 A 
ATOM     23  C   UNL     1       0.152  -2.952   0.795  0.00  0.00    +0.009 A 
BRANCH  18  28
ATOM     24  C   UNL     1       0.011   1.379   0.137  0.00  0.00    +0.001 A 
ATOM     25  C   UNL     1       1.095   2.058   0.665  0.00  0.00    +0.004 A 
ATOM     26  C   UNL     1       2.218   1.366   1.078  0.00  0.00    +0.046 A 
ATOM     27  C   UNL     1       2.262  -0.015   0.966  0.00  0.00    +0.125 A 
ATOM     28  C   UNL     1       1.168  -0.704   0.434  0.00  0.00    +0.024 A 
ATOM     29  C   UNL     1       0.042   0.004   0.020  0.00  0.00    +0.012 A 
BRANCH  27  30
ATOM     30  O   UNL     1       3.365  -0.696   1.371  0.00  0.00    -0.506 OA
ATOM     31  H   UNL     1       3.340  -0.970   2.298  0.00  0.00    +0.292 HD
ENDBRANCH  27  30
ENDBRANCH  18  28
ENDBRANCH   1  21
BRANCH   1  32
ATOM     32  C   UNL     1       2.389  -7.003   0.891  0.00  0.00    +0.134 C 
BRANCH  32  33
ATOM     33  N   UNL     1       2.403  -8.469   0.795  0.00  0.00    -0.202 NA
ATOM     34  H   UNL     1       2.545  -8.767  -0.158  0.00  0.00    +0.154 HD
BRANCH  33  35
ATOM     35  O   UNL     1       3.417  -9.043   1.680  0.00  0.00    -0.315 OA
ATOM     36  H   UNL     1       3.463 -10.008   1.651  0.00  0.00    +0.236 HD
ENDBRANCH  33  35
ENDBRANCH  32  33
ENDBRANCH   1  32
TORSDOF 9
