REMARK  Name = ZINC34775038
REMARK  7 active torsions:
REMARK  status: ('A' for Active; 'I' for Inactive)
REMARK    1  A    between atoms: C_1  and  C_2
REMARK    2  A    between atoms: C_5  and  C_9
REMARK    3  A    between atoms: C_6  and  C_8
REMARK    4  A    between atoms: C_9  and  N_10
REMARK    5  A    between atoms: C_22  and  C_25
REMARK    6  A    between atoms: C_28  and  C_30
REMARK    7  A    between atoms: C_28  and  C_31
REMARK                            x       y       z     vdW  Elec       q    Type
REMARK                         _______ _______ _______ _____ _____    ______ ____
ROOT
ATOM      1  N   UNL     1      -1.316  -4.550   0.203  0.00  0.00    -0.272 N 
ATOM      2  C   UNL     1      -1.673  -4.690   1.490  0.00  0.00    +0.264 A 
ATOM      3  O   UNL     1      -0.877  -4.439   2.377  0.00  0.00    -0.267 OA
ATOM      4  C   UNL     1      -3.039  -5.152   1.825  0.00  0.00    +0.074 A 
ATOM      5  C   UNL     1      -3.626  -5.373   3.142  0.00  0.00    -0.018 A 
ATOM      6  C   UNL     1      -4.908  -5.799   3.131  0.00  0.00    +0.021 A 
ATOM      7  S   UNL     1      -5.329  -5.905   1.419  0.00  0.00    -0.072 S 
ATOM      8  C   UNL     1      -3.880  -5.412   0.744  0.00  0.00    +0.104 A 
ATOM      9  N   UNL     1      -3.453  -5.248  -0.550  0.00  0.00    -0.237 N 
ATOM     10  C   UNL     1      -2.188  -4.818  -0.818  0.00  0.00    +0.242 A 
ATOM     11  N   UNL     1      -1.793  -4.662  -2.072  0.00  0.00    -0.111 NA
ATOM     12  N   UNL     1      -2.569  -4.899  -3.068  0.00  0.00    -0.146 NA
ATOM     13  C   UNL     1      -3.804  -5.310  -2.893  0.00  0.00    +0.125 A 
ATOM     14  C   UNL     1      -4.286  -5.508  -1.583  0.00  0.00    +0.282 A 
ATOM     15  O   UNL     1      -5.428  -5.887  -1.387  0.00  0.00    -0.265 OA
ATOM     16  C   UNL     1      -4.692  -5.579  -4.081  0.00  0.00    +0.073 C 
ATOM     17  C   UNL     1      -5.743  -6.104   4.336  0.00  0.00    +0.203 C 
ATOM     18  O   UNL     1      -4.865  -6.180   5.470  0.00  0.00    -0.368 OA
ATOM     19  C   UNL     1      -3.960  -5.077   5.572  0.00  0.00    +0.068 C 
ATOM     20  C   UNL     1      -2.902  -5.157   4.465  0.00  0.00    +0.071 C 
ATOM     21  C   UNL     1      -3.269  -5.113   6.936  0.00  0.00    +0.041 C 
ATOM     22  C   UNL     1      -4.739  -3.768   5.435  0.00  0.00    +0.041 C 
ENDROOT
BRANCH   1  23
ATOM     23  C   UNL     1       0.038  -4.092  -0.117  0.00  0.00    +0.163 C 
BRANCH  23  28
ATOM     24  C   UNL     1       0.140   1.684  -0.245  0.00  0.00    +0.044 C 
ATOM     25  C   UNL     1       0.114   0.178  -0.212  0.00  0.00    -0.050 A 
ATOM     26  C   UNL     1      -1.087  -0.489  -0.051  0.00  0.00    +0.004 A 
ATOM     27  C   UNL     1      -1.111  -1.871  -0.021  0.00  0.00    +0.006 A 
ATOM     28  C   UNL     1       0.065  -2.586  -0.151  0.00  0.00    -0.025 A 
ATOM     29  C   UNL     1       1.265  -1.919  -0.312  0.00  0.00    -0.045 A 
ATOM     30  C   UNL     1       1.289  -0.537  -0.347  0.00  0.00    +0.007 A 
ATOM     31  C   UNL     1       2.547  -2.699  -0.454  0.00  0.00    +0.044 C 
ENDBRANCH  23  28
ENDBRANCH   1  23
TORSDOF 2
