REMARK  Name = ZINC36539143
REMARK  12 active torsions:
REMARK  status: ('A' for Active; 'I' for Inactive)
REMARK    1  A    between atoms: C_1  and  C_2
REMARK    2  A    between atoms: C_2  and  C_3
REMARK    3  A    between atoms: C_3  and  C_4
REMARK    4  A    between atoms: C_5  and  C_6
REMARK    5  A    between atoms: C_6  and  C_8
REMARK    6  A    between atoms: C_6  and  N_22
REMARK    7  A    between atoms: N_10  and  C_11
REMARK    8  A    between atoms: C_11  and  S_12
REMARK    9  A    between atoms: S_12  and  C_15
REMARK   10  A    between atoms: C_18  and  C_21
REMARK   11  A    between atoms: N_22  and  C_23
REMARK   12  A    between atoms: C_24  and  C_26
REMARK                            x       y       z     vdW  Elec       q    Type
REMARK                         _______ _______ _______ _____ _____    ______ ____
ROOT
ATOM      1  C   UNL     1       1.921  -4.038   1.292  0.00  0.00    +0.185 C 
ENDROOT
BRANCH   1   2
ATOM      2  C   UNL     1       2.228  -4.037   2.768  0.00  0.00    +0.239 C 
ATOM      3  O   UNL     1       1.374  -4.366   3.564  0.00  0.00    -0.273 OA
ATOM      4  N   UNL     1       3.450  -3.671   3.202  0.00  0.00    -0.294 N 
ATOM      5  H   UNL     1       4.132  -3.408   2.565  0.00  0.00    +0.150 HD
BRANCH   4   6
ATOM      6  C   UNL     1       3.748  -3.671   4.637  0.00  0.00    +0.278 C 
BRANCH   6   7
ATOM      7  S   UNL     1       4.532  -5.242   5.092  0.00  0.00    +0.013 S 
ATOM      8  O   UNL     1       4.884  -5.232   6.469  0.00  0.00    -0.168 OA
ATOM      9  O   UNL     1       3.806  -6.330   4.538  0.00  0.00    -0.168 OA
BRANCH   7  10
ATOM     10  C   UNL     1       6.071  -5.245   4.234  0.00  0.00    +0.090 A 
ATOM     11  C   UNL     1       6.150  -5.773   2.959  0.00  0.00    +0.027 A 
ATOM     12  C   UNL     1       7.358  -5.776   2.286  0.00  0.00    +0.005 A 
ATOM     13  C   UNL     1       8.485  -5.249   2.887  0.00  0.00    -0.050 A 
ATOM     14  C   UNL     1       8.406  -4.720   4.162  0.00  0.00    +0.005 A 
ATOM     15  C   UNL     1       7.197  -4.713   4.833  0.00  0.00    +0.027 A 
ATOM     16  C   UNL     1       9.802  -5.253   2.154  0.00  0.00    +0.044 C 
ENDBRANCH   7  10
ENDBRANCH   6   7
ENDBRANCH   4   6
ENDBRANCH   1   2
BRANCH   1  17
ATOM     17  N   UNL     1       0.538  -4.471   1.081  0.00  0.00    -0.286 N 
ATOM     18  C   UNL     1      -0.561  -3.760   1.739  0.00  0.00    +0.133 C 
ATOM     19  C   UNL     1       0.276  -5.524   0.281  0.00  0.00    +0.247 C 
ATOM     20  O   UNL     1       1.191  -6.161  -0.204  0.00  0.00    -0.270 OA
BRANCH  19  21
ATOM     21  C   UNL     1      -1.122  -5.903  -0.007  0.00  0.00    +0.037 A 
ATOM     22  C   UNL     1      -1.488  -6.307  -1.292  0.00  0.00    +0.016 A 
ATOM     23  C   UNL     1      -2.795  -6.660  -1.555  0.00  0.00    +0.039 A 
ATOM     24  C   UNL     1      -3.744  -6.614  -0.546  0.00  0.00    +0.123 A 
ATOM     25  C   UNL     1      -3.386  -6.214   0.732  0.00  0.00    +0.039 A 
ATOM     26  C   UNL     1      -2.082  -5.865   1.008  0.00  0.00    +0.016 A 
ATOM     27  F   UNL     1      -5.024  -6.960  -0.809  0.00  0.00    -0.205 F 
ENDBRANCH  19  21
ENDBRANCH   1  17
BRANCH   1  29
ATOM     28  C   UNL     1       1.127  -2.072   0.083  0.00  0.00    -0.029 C 
ATOM     29  C   UNL     1       2.102  -2.647   0.741  0.00  0.00    +0.000 C 
BRANCH  28  30
ATOM     30  C   UNL     1       1.272  -0.647  -0.387  0.00  0.00    +0.027 C 
BRANCH  30  32
ATOM     31  C   UNL     1       1.173   0.867  -2.371  0.00  0.00    +0.004 C 
ATOM     32  C   UNL     1       1.026  -0.579  -1.895  0.00  0.00    +0.001 C 
ENDBRANCH  30  32
ENDBRANCH  28  30
ENDBRANCH   1  29
TORSDOF 9
