REMARK  Name = ZINC23634077
REMARK  4 active torsions:
REMARK  status: ('A' for Active; 'I' for Inactive)
REMARK    1  A    between atoms: C_1  and  C_2
REMARK    2  A    between atoms: C_4  and  N_15
REMARK    3  A    between atoms: C_18  and  C_21
REMARK    4  A    between atoms: C_18  and  O_28
REMARK                            x       y       z     vdW  Elec       q    Type
REMARK                         _______ _______ _______ _____ _____    ______ ____
ROOT
ATOM      1  C   UNL     1       5.954   0.538   2.277  0.00  0.00    +0.044 C 
ATOM      2  C   UNL     1       5.011  -0.638   2.261  0.00  0.00    -0.038 A 
ATOM      3  C   UNL     1       5.381  -1.838   2.793  0.00  0.00    +0.045 A 
ATOM      4  C   UNL     1       4.489  -2.918   2.767  0.00  0.00    +0.099 A 
ATOM      5  N   UNL     1       3.288  -2.807   2.237  0.00  0.00    -0.343 N 
ATOM      6  C   UNL     1       2.869  -1.654   1.700  0.00  0.00    +0.052 A 
ATOM      7  C   UNL     1       3.725  -0.525   1.697  0.00  0.00    +0.005 A 
ATOM      8  C   UNL     1       3.281   0.682   1.134  0.00  0.00    +0.059 A 
ATOM      9  C   UNL     1       2.030   0.760   0.595  0.00  0.00    +0.167 A 
ATOM     10  C   UNL     1       1.179  -0.358   0.597  0.00  0.00    +0.168 A 
ATOM     11  C   UNL     1       1.587  -1.544   1.138  0.00  0.00    +0.075 A 
ATOM     12  O   UNL     1       0.002  -0.004   0.002  0.00  0.00    -0.453 OA
ATOM     13  C   UNL     1      -0.017   1.435   0.010  0.00  0.00    +0.466 C 
ATOM     14  O   UNL     1       1.375   1.800  -0.001  0.00  0.00    -0.453 OA
ATOM     15  H   UNL     1       2.608  -3.671   2.229  0.00  0.00    +0.167 HD
ENDROOT
BRANCH   4  16
ATOM     16  N   UNL     1       4.879  -4.133   3.312  0.00  0.00    -0.316 N 
ATOM     17  C   UNL     1       5.297  -3.972   4.711  0.00  0.00    +0.109 C 
ATOM     18  C   UNL     1       5.856  -5.297   5.233  0.00  0.00    +0.058 C 
ATOM     19  C   UNL     1       4.777  -6.379   5.124  0.00  0.00    +0.094 C 
ATOM     20  C   UNL     1       4.326  -6.492   3.666  0.00  0.00    +0.058 C 
ATOM     21  C   UNL     1       3.811  -5.133   3.188  0.00  0.00    +0.109 C 
BRANCH  19  22
ATOM     22  C   UNL     1       5.341  -7.699   5.581  0.00  0.00    -0.016 A 
ATOM     23  C   UNL     1       5.952  -8.542   4.671  0.00  0.00    +0.007 A 
ATOM     24  C   UNL     1       6.473  -9.752   5.091  0.00  0.00    +0.015 A 
ATOM     25  C   UNL     1       6.374 -10.123   6.420  0.00  0.00    +0.018 A 
ATOM     26  C   UNL     1       5.758  -9.282   7.329  0.00  0.00    +0.015 A 
ATOM     27  C   UNL     1       5.242  -8.070   6.909  0.00  0.00    +0.007 A 
ATOM     28 BR   UNL     1       7.081 -11.781   6.994  0.00  0.00    -0.050 Br
ENDBRANCH  19  22
BRANCH  19  29
ATOM     29  O   UNL     1       3.662  -6.025   5.944  0.00  0.00    -0.384 OA
ATOM     30  H   UNL     1       2.784  -6.686   5.993  0.00  0.00    +0.211 HD
ENDBRANCH  19  29
ENDBRANCH   4  16
TORSDOF 3
