REMARK  Name = ZINC44254155
REMARK  7 active torsions:
REMARK  status: ('A' for Active; 'I' for Inactive)
REMARK    1  A    between atoms: C_8  and  S_10
REMARK    2  A    between atoms: S_10  and  C_11
REMARK    3  A    between atoms: C_14  and  N_24
REMARK    4  A    between atoms: C_16  and  C_17
REMARK    5  A    between atoms: C_17  and  C_19
REMARK    6  A    between atoms: C_17  and  N_23
REMARK    7  A    between atoms: C_19  and  C_20
REMARK                            x       y       z     vdW  Elec       q    Type
REMARK                         _______ _______ _______ _____ _____    ______ ____
ROOT
ATOM      1  C   UNL     1       7.397   0.157  -0.106  0.00  0.00    +0.016 A 
ATOM      2  C   UNL     1       6.796  -1.091  -0.210  0.00  0.00    +0.017 A 
ATOM      3  C   UNL     1       7.576  -2.230  -0.254  0.00  0.00    +0.034 A 
ATOM      4  C   UNL     1       8.954  -2.129  -0.195  0.00  0.00    +0.126 A 
ATOM      5  C   UNL     1       9.556  -0.888  -0.091  0.00  0.00    +0.035 A 
ATOM      6  C   UNL     1       8.782   0.255  -0.053  0.00  0.00    -0.045 A 
ENDROOT
BRANCH   4   7
ATOM      7  N   UNL     1       9.787  -3.352  -0.241  0.00  0.00    +0.056 N 
ATOM      8  O   UNL     1       9.262  -4.437  -0.331  0.00  0.00    -0.126 OA
ATOM      9  O   UNL     1      10.992  -3.265  -0.190  0.00  0.00    -0.126 OA
ENDBRANCH   4   7
BRANCH   1  10
ATOM     10  S   UNL     1       6.406   1.613  -0.050  0.00  0.00    -0.063 S 
BRANCH  10  18
ATOM     11  C   UNL     1       5.747   4.530   5.639  0.00  0.00    +0.022 A 
ATOM     12  C   UNL     1       5.536   4.488   4.279  0.00  0.00    +0.032 A 
ATOM     13  C   UNL     1       6.028   3.386   3.541  0.00  0.00    +0.098 A 
ATOM     14  C   UNL     1       6.712   2.400   4.291  0.00  0.00    +0.129 A 
ATOM     15  N   UNL     1       6.889   2.481   5.584  0.00  0.00    -0.246 NA
ATOM     16  C   UNL     1       6.431   3.509   6.277  0.00  0.00    +0.112 A 
ATOM     17  S   UNL     1       7.158   1.221   3.037  0.00  0.00    -0.041 S 
ATOM     18  C   UNL     1       6.434   2.082   1.648  0.00  0.00    +0.142 A 
ATOM     19  N   UNL     1       5.929   3.155   2.215  0.00  0.00    -0.231 NA
ENDBRANCH  10  18
ENDBRANCH   1  10
BRANCH   6  20
ATOM     20  C   UNL     1       9.439   1.608   0.052  0.00  0.00    -0.034 C 
BRANCH  20  21
ATOM     21  N   UNL     1      10.807   1.449   0.564  0.00  0.00    +0.383 N 
ATOM     22  H   UNL     1      11.336   0.866  -0.067  0.00  0.00    -0.089 HD
ATOM     23  H   UNL     1      11.247   2.354   0.635  0.00  0.00    -0.089 HD
ATOM     24  H   UNL     1      10.777   1.017   1.475  0.00  0.00    -0.089 HD
ENDBRANCH  20  21
BRANCH  20  25
ATOM     25  C   UNL     1       9.484   2.262  -1.330  0.00  0.00    +0.084 C 
BRANCH  25  26
ATOM     26  C   UNL     1      10.028   3.662  -1.205  0.00  0.00    +0.209 C 
ATOM     27  O   UNL     1      10.348   4.094  -0.118  0.00  0.00    -0.276 OA
ATOM     28  N   UNL     1      10.158   4.435  -2.302  0.00  0.00    -0.329 N 
ATOM     29  H   UNL     1       9.902   4.089  -3.171  0.00  0.00    +0.145 HD
ATOM     30  H   UNL     1      10.508   5.336  -2.221  0.00  0.00    +0.145 HD
ENDBRANCH  25  26
ENDBRANCH  20  25
ENDBRANCH   6  20
TORSDOF 7
