REMARK  Name = ZINC63698163
REMARK  5 active torsions:
REMARK  status: ('A' for Active; 'I' for Inactive)
REMARK    1  A    between atoms: C_6  and  C_10
REMARK    2  A    between atoms: C_12  and  C_25
REMARK    3  A    between atoms: C_17  and  O_24
REMARK    4  A    between atoms: C_25  and  C_26
REMARK    5  A    between atoms: C_26  and  C_27
REMARK                            x       y       z     vdW  Elec       q    Type
REMARK                         _______ _______ _______ _____ _____    ______ ____
ROOT
ATOM      1  C   UNL     1       3.530  -2.797  -1.439  0.00  0.00    +0.143 C 
ATOM      2  C   UNL     1       3.150  -4.270  -1.230  0.00  0.00    +0.188 C 
ATOM      3  O   UNL     1       3.772  -4.754  -0.040  0.00  0.00    -0.487 OA
ATOM      4  C   UNL     1       5.108  -4.593   0.106  0.00  0.00    +0.135 A 
ATOM      5  C   UNL     1       5.815  -5.416   0.968  0.00  0.00    +0.093 A 
ATOM      6  C   UNL     1       7.183  -5.246   1.121  0.00  0.00    +0.139 A 
ATOM      7  C   UNL     1       7.857  -4.250   0.415  0.00  0.00    +0.083 A 
ATOM      8  C   UNL     1       7.175  -3.432  -0.440  0.00  0.00    +0.038 A 
ATOM      9  C   UNL     1       5.796  -3.595  -0.606  0.00  0.00    +0.061 A 
ATOM     10  C   UNL     1       5.044  -2.731  -1.532  0.00  0.00    +0.177 C 
ATOM     11  O   UNL     1       5.604  -2.007  -2.328  0.00  0.00    -0.291 OA
ATOM     12 CL   UNL     1       9.568  -4.050   0.624  0.00  0.00    -0.080 Cl
ENDROOT
BRANCH   1  18
ATOM     13  C   UNL     1       5.665   1.006   2.084  0.00  0.00    +0.002 A 
ATOM     14  C   UNL     1       5.799  -0.110   2.929  0.00  0.00    +0.002 A 
ATOM     15  C   UNL     1       5.196  -1.289   2.675  0.00  0.00    +0.027 A 
ATOM     16  C   UNL     1       4.362  -1.434   1.474  0.00  0.00    +0.060 A 
ATOM     17  N   UNL     1       3.677  -2.427   0.986  0.00  0.00    -0.363 N 
ATOM     18  C   UNL     1       3.045  -1.960  -0.254  0.00  0.00    +0.188 C 
ATOM     19  N   UNL     1       3.453  -0.560  -0.425  0.00  0.00    -0.363 N 
ATOM     20  C   UNL     1       4.221  -0.251   0.580  0.00  0.00    +0.060 A 
ATOM     21  C   UNL     1       4.924   0.982   0.959  0.00  0.00    +0.027 A 
ATOM     22  H   UNL     1       3.599  -3.314   1.371  0.00  0.00    +0.162 HD
ATOM     23  H   UNL     1       3.198   0.028  -1.153  0.00  0.00    +0.162 HD
ENDBRANCH   1  18
BRANCH   6  24
ATOM     24  O   UNL     1       7.872  -6.055   1.966  0.00  0.00    -0.505 OA
ATOM     25  H   UNL     1       8.216  -6.857   1.549  0.00  0.00    +0.292 HD
ENDBRANCH   6  24
BRANCH   2  26
ATOM     26  C   UNL     1       1.630  -4.391  -1.097  0.00  0.00    +0.056 C 
BRANCH  26  27
ATOM     27  C   UNL     1       1.241  -5.869  -1.026  0.00  0.00    +0.129 C 
BRANCH  27  28
ATOM     28  C   UNL     1      -0.256  -5.988  -0.895  0.00  0.00    +0.356 C 
ATOM     29  O   UNL     1      -0.947  -4.984  -0.863  0.00  0.00    -0.246 OA
ATOM     30  O   UNL     1      -0.775  -7.088  -0.822  0.00  0.00    -0.246 OA
ENDBRANCH  27  28
ENDBRANCH  26  27
ENDBRANCH   2  26
TORSDOF 5
