REMARK  Name = ZINC36049859
REMARK  10 active torsions:
REMARK  status: ('A' for Active; 'I' for Inactive)
REMARK    1  A    between atoms: C_1  and  C_2
REMARK    2  A    between atoms: C_3  and  C_26
REMARK    3  A    between atoms: C_4  and  C_20
REMARK    4  A    between atoms: C_7  and  C_12
REMARK    5  A    between atoms: C_13  and  N_15
REMARK    6  A    between atoms: N_15  and  C_16
REMARK    7  A    between atoms: C_16  and  C_17
REMARK    8  A    between atoms: C_17  and  C_18
REMARK    9  A    between atoms: C_17  and  C_19
REMARK   10  A    between atoms: N_28  and  C_29
REMARK                            x       y       z     vdW  Elec       q    Type
REMARK                         _______ _______ _______ _____ _____    ______ ____
ROOT
ATOM      1  C   UNL     1      -1.748   1.207   1.393  0.00  0.00    +0.066 C 
ATOM      2  C   UNL     1      -1.067  -0.025   0.856  0.00  0.00    +0.051 C 
ATOM      3  C   UNL     1      -1.827  -1.076   0.383  0.00  0.00    +0.061 C 
ATOM      4  C   UNL     1      -1.099  -2.292  -0.146  0.00  0.00    +0.148 C 
ATOM      5  N   UNL     1       0.388  -2.256  -0.114  0.00  0.00    -0.267 N 
ATOM      6  C   UNL     1       1.252  -3.245  -0.542  0.00  0.00    +0.048 C 
ATOM      7  C   UNL     1       2.578  -3.012  -0.425  0.00  0.00    +0.072 C 
ATOM      8  S   UNL     1       2.604  -1.382   0.295  0.00  0.00    -0.060 S 
ATOM      9  C   UNL     1       0.949  -1.119   0.395  0.00  0.00    +0.166 C 
ATOM     10  N   UNL     1       0.255  -0.091   0.836  0.00  0.00    -0.230 NA
ENDROOT
BRANCH   4  11
ATOM     11  C   UNL     1      -1.551  -3.487   0.652  0.00  0.00    -0.022 A 
ATOM     12  C   UNL     1      -1.155  -3.630   1.968  0.00  0.00    +0.006 A 
ATOM     13  C   UNL     1      -1.570  -4.726   2.700  0.00  0.00    +0.000 A 
ATOM     14  C   UNL     1      -2.381  -5.681   2.116  0.00  0.00    +0.000 A 
ATOM     15  C   UNL     1      -2.777  -5.538   0.799  0.00  0.00    +0.000 A 
ATOM     16  C   UNL     1      -2.366  -4.439   0.069  0.00  0.00    +0.006 A 
ENDBRANCH   4  11
BRANCH   3  17
ATOM     17  C   UNL     1      -3.229  -1.020   0.393  0.00  0.00    +0.248 C 
ATOM     18  O   UNL     1      -3.797  -0.088   0.938  0.00  0.00    -0.270 OA
ATOM     19  N   UNL     1      -3.947  -1.994  -0.199  0.00  0.00    -0.282 N 
ATOM     20  H   UNL     1      -3.501  -2.780  -0.551  0.00  0.00    +0.155 HD
BRANCH  19  21
ATOM     21  C   UNL     1      -5.336  -1.871  -0.307  0.00  0.00    +0.034 A 
ATOM     22  C   UNL     1      -5.913  -0.620  -0.480  0.00  0.00    +0.023 A 
ATOM     23  C   UNL     1      -7.284  -0.502  -0.587  0.00  0.00    +0.002 A 
ATOM     24  C   UNL     1      -8.084  -1.629  -0.522  0.00  0.00    +0.000 A 
ATOM     25  C   UNL     1      -7.512  -2.876  -0.351  0.00  0.00    +0.002 A 
ATOM     26  C   UNL     1      -6.141  -3.002  -0.249  0.00  0.00    +0.023 A 
ENDBRANCH  19  21
ENDBRANCH   3  17
BRANCH   6  27
ATOM     27  C   UNL     1       0.748  -4.506  -1.105  0.00  0.00    +0.091 C 
ATOM     28  C   UNL     1       1.603  -5.507  -1.388  0.00  0.00    +0.239 C 
ATOM     29  O   UNL     1       2.939  -5.314  -1.258  0.00  0.00    -0.271 OA
BRANCH  28  30
ATOM     30  N   UNL     1       1.119  -6.732  -1.812  0.00  0.00    -0.312 N 
ATOM     31  H   UNL     1       0.170  -6.849  -1.976  0.00  0.00    +0.149 HD
BRANCH  30  32
ATOM     32  C   UNL     1       2.040  -7.854  -2.013  0.00  0.00    +0.107 C 
BRANCH  32  33
ATOM     33  C   UNL     1       1.273  -9.046  -2.590  0.00  0.00    -0.000 C 
ATOM     34  C   UNL     1       2.254 -10.174  -2.916  0.00  0.00    +0.009 C 
ATOM     35  C   UNL     1       0.252  -9.540  -1.563  0.00  0.00    +0.009 C 
ENDBRANCH  32  33
ENDBRANCH  30  32
ENDBRANCH  28  30
ENDBRANCH   6  27
TORSDOF 7
