REMARK  Name = ZINC01785959
REMARK  7 active torsions:
REMARK  status: ('A' for Active; 'I' for Inactive)
REMARK    1  A    between atoms: C_1  and  C_2
REMARK    2  A    between atoms: C_6  and  N_9
REMARK    3  A    between atoms: C_7  and  C_8
REMARK    4  A    between atoms: C_10  and  C_12
REMARK    5  A    between atoms: C_13  and  C_23
REMARK    6  A    between atoms: C_20  and  C_22
REMARK    7  A    between atoms: N_25  and  C_26
REMARK                            x       y       z     vdW  Elec       q    Type
REMARK                         _______ _______ _______ _____ _____    ______ ____
ROOT
ATOM      1  C   UNL     1      -3.541   2.226   5.245  0.00  0.00    +0.133 A 
ATOM      2  C   UNL     1      -4.120   3.453   5.080  0.00  0.00    +0.106 A 
ATOM      3  S   UNL     1      -4.938   3.260   3.504  0.00  0.00    -0.044 S 
ATOM      4  C   UNL     1      -4.451   1.578   3.187  0.00  0.00    +0.182 A 
ATOM      5  N   UNL     1      -3.700   1.254   4.285  0.00  0.00    -0.249 N 
ATOM      6  C   UNL     1      -3.182  -0.011   4.315  0.00  0.00    +0.260 A 
ATOM      7  O   UNL     1      -2.501  -0.370   5.262  0.00  0.00    -0.267 OA
ATOM      8  C   UNL     1      -3.432  -0.890   3.260  0.00  0.00    +0.093 A 
ATOM      9  C   UNL     1      -4.194  -0.483   2.200  0.00  0.00    +0.046 A 
ATOM     10  N   UNL     1      -4.681   0.755   2.194  0.00  0.00    -0.228 NA
ATOM     11  C   UNL     1      -4.473  -1.420   1.053  0.00  0.00    +0.066 C 
ENDROOT
BRANCH   1  13
ATOM     12  N   UNL     1      -1.427   2.221   6.468  0.00  0.00    -0.280 N 
ATOM     13  C   UNL     1      -2.746   1.945   6.451  0.00  0.00    +0.266 C 
ATOM     14  O   UNL     1      -3.280   1.463   7.432  0.00  0.00    -0.268 OA
ATOM     15  H   UNL     1      -1.018   2.683   5.720  0.00  0.00    +0.155 HD
BRANCH  12  21
ATOM     16  C   UNL     1       2.490   2.976   9.340  0.00  0.00    +0.044 C 
ATOM     17  C   UNL     1       1.257   2.188   8.980  0.00  0.00    -0.046 A 
ATOM     18  C   UNL     1       0.895   1.088   9.735  0.00  0.00    +0.004 A 
ATOM     19  C   UNL     1      -0.236   0.362   9.408  0.00  0.00    +0.002 A 
ATOM     20  C   UNL     1      -1.008   0.735   8.325  0.00  0.00    +0.023 A 
ATOM     21  C   UNL     1      -0.648   1.841   7.565  0.00  0.00    +0.037 A 
ATOM     22  C   UNL     1       0.492   2.564   7.893  0.00  0.00    -0.026 A 
ATOM     23  C   UNL     1       0.891   3.760   7.067  0.00  0.00    +0.046 C 
ENDBRANCH  12  21
ENDBRANCH   1  13
BRANCH   2  24
ATOM     24  C   UNL     1      -4.081   4.628   5.972  0.00  0.00    +0.257 C 
ATOM     25  O   UNL     1      -3.547   4.548   7.061  0.00  0.00    -0.269 OA
ATOM     26  N   UNL     1      -4.637   5.791   5.579  0.00  0.00    -0.281 N 
ATOM     27  H   UNL     1      -5.133   5.835   4.746  0.00  0.00    +0.155 HD
BRANCH  26  28
ATOM     28  C   UNL     1      -4.498   6.936   6.370  0.00  0.00    +0.034 A 
ATOM     29  C   UNL     1      -3.359   7.112   7.146  0.00  0.00    +0.026 A 
ATOM     30  C   UNL     1      -3.221   8.245   7.922  0.00  0.00    +0.040 A 
ATOM     31  C   UNL     1      -4.223   9.201   7.937  0.00  0.00    +0.124 A 
ATOM     32  C   UNL     1      -5.362   9.026   7.169  0.00  0.00    +0.040 A 
ATOM     33  C   UNL     1      -5.501   7.897   6.387  0.00  0.00    +0.026 A 
ATOM     34  F   UNL     1      -4.088  10.307   8.701  0.00  0.00    -0.205 F 
ENDBRANCH  26  28
ENDBRANCH   2  24
TORSDOF 4
