REMARK  Name = ZINC02387629
REMARK  8 active torsions:
REMARK  status: ('A' for Active; 'I' for Inactive)
REMARK    1  A    between atoms: C_1  and  C_2
REMARK    2  A    between atoms: C_2  and  O_3
REMARK    3  A    between atoms: O_3  and  C_4
REMARK    4  A    between atoms: C_7  and  N_10
REMARK    5  A    between atoms: C_11  and  C_13
REMARK    6  A    between atoms: C_13  and  S_14
REMARK    7  A    between atoms: S_14  and  C_15
REMARK    8  A    between atoms: N_29  and  C_30
REMARK                            x       y       z     vdW  Elec       q    Type
REMARK                         _______ _______ _______ _____ _____    ______ ____
ROOT
ATOM      1  C   UNL     1       3.598  -1.800   0.221  0.00  0.00    +0.179 A 
ATOM      2  N   UNL     1       3.483  -0.494   0.227  0.00  0.00    -0.203 NA
ATOM      3  C   UNL     1       2.309   0.116  -0.022  0.00  0.00    +0.168 A 
ATOM      4  C   UNL     1       1.172  -0.679  -0.300  0.00  0.00    +0.084 A 
ATOM      5  C   UNL     1      -0.045  -0.057  -0.562  0.00  0.00    +0.022 A 
ATOM      6  C   UNL     1      -0.097   1.332  -0.541  0.00  0.00    -0.025 A 
ATOM      7  C   UNL     1       1.047   2.053  -0.257  0.00  0.00    +0.047 A 
ATOM      8  N   UNL     1       2.196   1.438  -0.013  0.00  0.00    -0.232 NA
ATOM      9  C   UNL     1       1.051   3.561  -0.201  0.00  0.00    +0.056 C 
ATOM     10  C   UNL     1      -0.172   4.128  -0.918  0.00  0.00    +0.006 C 
ATOM     11  C   UNL     1      -1.423   3.436  -0.365  0.00  0.00    +0.005 C 
ATOM     12  C   UNL     1      -1.420   1.985  -0.841  0.00  0.00    +0.037 C 
ATOM     13  C   UNL     1       1.322  -2.139  -0.301  0.00  0.00    +0.268 A 
ATOM     14  O   UNL     1       0.377  -2.871  -0.531  0.00  0.00    -0.266 OA
ATOM     15  N   UNL     1       2.551  -2.640  -0.035  0.00  0.00    -0.255 N 
ENDROOT
BRANCH  15  16
ATOM     16  C   UNL     1       2.751  -4.027  -0.023  0.00  0.00    +0.053 A 
ATOM     17  C   UNL     1       3.508  -4.629  -1.020  0.00  0.00    +0.026 A 
ATOM     18  C   UNL     1       3.708  -5.995  -1.003  0.00  0.00    +0.003 A 
ATOM     19  C   UNL     1       3.147  -6.766  -0.002  0.00  0.00    +0.020 A 
ATOM     20  C   UNL     1       2.387  -6.170   0.990  0.00  0.00    +0.043 A 
ATOM     21  C   UNL     1       2.188  -4.802   0.981  0.00  0.00    +0.046 A 
ATOM     22 CL   UNL     1       1.683  -7.141   2.245  0.00  0.00    -0.083 Cl
ENDBRANCH  15  16
BRANCH   1  23
ATOM     23  S   UNL     1       5.177  -2.505   0.559  0.00  0.00    -0.078 S 
BRANCH  23  24
ATOM     24  C   UNL     1       6.146  -0.998   0.814  0.00  0.00    +0.173 C 
BRANCH  24  26
ATOM     25  N   UNL     1       8.484  -0.399   1.355  0.00  0.00    -0.285 N 
ATOM     26  C   UNL     1       7.574  -1.366   1.127  0.00  0.00    +0.227 C 
ATOM     27  O   UNL     1       7.903  -2.532   1.172  0.00  0.00    -0.275 OA
ATOM     28  H   UNL     1       8.238   0.534   1.250  0.00  0.00    +0.155 HD
BRANCH  25  32
ATOM     29  C   UNL     1      12.358  -1.414   2.516  0.00  0.00    +0.121 A 
ATOM     30  C   UNL     1      11.669  -2.219   1.620  0.00  0.00    +0.047 A 
ATOM     31  C   UNL     1      10.386  -1.883   1.235  0.00  0.00    +0.027 A 
ATOM     32  C   UNL     1       9.786  -0.740   1.746  0.00  0.00    +0.034 A 
ATOM     33  C   UNL     1      10.477   0.067   2.639  0.00  0.00    +0.027 A 
ATOM     34  C   UNL     1      11.758  -0.272   3.027  0.00  0.00    +0.047 A 
BRANCH  29  35
ATOM     35  O   UNL     1      13.622  -1.745   2.894  0.00  0.00    -0.492 OA
BRANCH  35  37
ATOM     36  C   UNL     1      15.674  -1.403   4.124  0.00  0.00    +0.048 C 
ATOM     37  C   UNL     1      14.272  -0.872   3.820  0.00  0.00    +0.225 C 
ENDBRANCH  35  37
ENDBRANCH  29  35
ENDBRANCH  25  32
ENDBRANCH  24  26
ENDBRANCH  23  24
ENDBRANCH   1  23
TORSDOF 7
