REMARK  Name = ZINC59008794
REMARK  5 active torsions:
REMARK  status: ('A' for Active; 'I' for Inactive)
REMARK    1  A    between atoms: C_1  and  C_2
REMARK    2  A    between atoms: C_2  and  C_20
REMARK    3  A    between atoms: N_5  and  C_9
REMARK    4  A    between atoms: C_9  and  C_10
REMARK    5  A    between atoms: C_12  and  C_15
REMARK                            x       y       z     vdW  Elec       q    Type
REMARK                         _______ _______ _______ _____ _____    ______ ____
ROOT
ATOM      1  C   UNL     1      -0.019   1.526   0.010  0.00  0.00    +0.047 C 
ATOM      2  C   UNL     1       0.002  -0.004   0.002  0.00  0.00    +0.136 C 
ATOM      3  C   UNL     1       0.815  -0.520  -1.169  0.00  0.00    +0.251 C 
ATOM      4  O   UNL     1       0.595  -0.342  -2.348  0.00  0.00    -0.272 OA
ATOM      5  N   UNL     1       1.833  -1.217  -0.627  0.00  0.00    -0.216 N 
ATOM      6  C   UNL     1       1.777  -1.214   0.710  0.00  0.00    +0.310 C 
ATOM      7  O   UNL     1       2.586  -1.776   1.421  0.00  0.00    -0.252 OA
ATOM      8  N   UNL     1       0.724  -0.519   1.178  0.00  0.00    -0.281 N 
ATOM      9  H   UNL     1       0.487  -0.383   2.109  0.00  0.00    +0.152 HD
ENDROOT
BRANCH   2  10
ATOM     10  C   UNL     1      -1.401  -0.551  -0.040  0.00  0.00    +0.003 A 
ATOM     11  C   UNL     1      -1.863  -1.350   0.990  0.00  0.00    +0.009 A 
ATOM     12  C   UNL     1      -3.150  -1.852   0.952  0.00  0.00    +0.020 A 
ATOM     13  C   UNL     1      -3.977  -1.556  -0.117  0.00  0.00    +0.042 A 
ATOM     14  C   UNL     1      -3.516  -0.757  -1.147  0.00  0.00    +0.040 A 
ATOM     15  C   UNL     1      -2.229  -0.250  -1.106  0.00  0.00    +0.048 A 
ATOM     16 CL   UNL     1      -1.652   0.758  -2.396  0.00  0.00    -0.083 Cl
ATOM     17 CL   UNL     1      -5.593  -2.188  -0.164  0.00  0.00    -0.083 Cl
ENDBRANCH   2  10
BRANCH   5  18
ATOM     18  C   UNL     1       2.871  -1.896  -1.406  0.00  0.00    +0.197 C 
BRANCH  18  19
ATOM     19  C   UNL     1       4.020  -0.950  -1.644  0.00  0.00    +0.190 A 
ATOM     20  N   UNL     1       4.138  -0.122  -2.684  0.00  0.00    -0.190 NA
ATOM     21  C   UNL     1       5.256   0.564  -2.587  0.00  0.00    +0.259 A 
ATOM     22  O   UNL     1       5.884   0.179  -1.461  0.00  0.00    -0.333 OA
ATOM     23  N   UNL     1       5.053  -0.805  -0.863  0.00  0.00    -0.059 NA
BRANCH  21  24
ATOM     24  C   UNL     1       5.738   1.577  -3.544  0.00  0.00    +0.046 A 
ATOM     25  C   UNL     1       6.987   2.268  -3.342  0.00  0.00    +0.021 A 
ATOM     26  C   UNL     1       7.314   3.171  -4.290  0.00  0.00    +0.046 A 
ATOM     27  S   UNL     1       5.946   3.071  -5.424  0.00  0.00    -0.104 S 
ATOM     28  C   UNL     1       5.022   1.896  -4.662  0.00  0.00    +0.058 A 
ENDBRANCH  21  24
ENDBRANCH  18  19
ENDBRANCH   5  18
TORSDOF 4
