REMARK  Name = ZINC44015574
REMARK  8 active torsions:
REMARK  status: ('A' for Active; 'I' for Inactive)
REMARK    1  A    between atoms: C_1  and  C_2
REMARK    2  A    between atoms: C_2  and  C_3
REMARK    3  A    between atoms: C_3  and  C_5
REMARK    4  A    between atoms: C_3  and  N_21
REMARK    5  A    between atoms: C_5  and  N_6
REMARK    6  A    between atoms: N_9  and  C_10
REMARK    7  A    between atoms: C_14  and  N_16
REMARK    8  A    between atoms: C_17  and  C_19
REMARK                            x       y       z     vdW  Elec       q    Type
REMARK                         _______ _______ _______ _____ _____    ______ ____
ROOT
ATOM      1  N   UNL     1      -1.799  -1.731  -0.487  0.00  0.00    -0.301 N 
ATOM      2  C   UNL     1      -1.788  -3.065  -0.675  0.00  0.00    +0.304 C 
ATOM      3  O   UNL     1      -0.816  -3.717  -0.349  0.00  0.00    -0.253 OA
ATOM      4  N   UNL     1      -2.856  -3.677  -1.225  0.00  0.00    -0.269 N 
ATOM      5  H   UNL     1      -2.575  -1.210  -0.748  0.00  0.00    +0.150 HD
ATOM      6  H   UNL     1      -3.602  -3.150  -1.553  0.00  0.00    +0.156 HD
ENDROOT
BRANCH   4   7
ATOM      7  C   UNL     1      -2.890  -5.074  -1.323  0.00  0.00    +0.037 A 
ATOM      8  C   UNL     1      -2.306  -5.853  -0.333  0.00  0.00    +0.026 A 
ATOM      9  C   UNL     1      -2.338  -7.232  -0.427  0.00  0.00    +0.042 A 
ATOM     10  C   UNL     1      -2.952  -7.839  -1.508  0.00  0.00    +0.145 A 
ATOM     11  C   UNL     1      -3.538  -7.063  -2.502  0.00  0.00    +0.071 A 
ATOM     12  C   UNL     1      -3.512  -5.679  -2.405  0.00  0.00    +0.049 A 
ATOM     13  F   UNL     1      -2.982  -9.186  -1.598  0.00  0.00    -0.204 F 
BRANCH  11  14
ATOM     14  N   UNL     1      -4.158  -7.677  -3.597  0.00  0.00    -0.283 N 
ATOM     15  C   UNL     1      -4.141  -7.079  -4.804  0.00  0.00    +0.214 C 
ATOM     16  O   UNL     1      -3.516  -6.051  -4.964  0.00  0.00    -0.276 OA
ATOM     17  C   UNL     1      -4.899  -7.686  -5.957  0.00  0.00    +0.109 C 
ATOM     18  H   UNL     1      -4.601  -8.533  -3.486  0.00  0.00    +0.155 HD
ENDBRANCH  11  14
ENDBRANCH   4   7
BRANCH   1  19
ATOM     19  C   UNL     1      -0.638  -1.066   0.110  0.00  0.00    +0.090 C 
BRANCH  19  20
ATOM     20  C   UNL     1      -0.956   0.414   0.331  0.00  0.00    -0.051 C 
BRANCH  20  21
ATOM     21  N   UNL     1      -1.865   0.554   1.476  0.00  0.00    +0.385 N 
ATOM     22  C   UNL     1      -1.290  -0.126   2.647  0.00  0.00    -0.073 C 
ATOM     23  C   UNL     1      -2.083   0.285   3.888  0.00  0.00    +0.017 C 
ATOM     24  C   UNL     1      -3.558   0.092   3.638  0.00  0.00    -0.048 A 
ATOM     25  C   UNL     1      -4.419   0.072   4.724  0.00  0.00    +0.004 A 
ATOM     26  C   UNL     1      -5.775  -0.100   4.535  0.00  0.00    +0.000 A 
ATOM     27  C   UNL     1      -6.277  -0.252   3.255  0.00  0.00    +0.000 A 
ATOM     28  C   UNL     1      -5.420  -0.233   2.174  0.00  0.00    +0.002 A 
ATOM     29  C   UNL     1      -4.056  -0.063   2.362  0.00  0.00    -0.061 A 
ATOM     30  C   UNL     1      -3.157  -0.058   1.155  0.00  0.00    -0.042 C 
ATOM     31  H   UNL     1      -1.997   1.533   1.684  0.00  0.00    -0.081 HD
ENDBRANCH  20  21
BRANCH  20  33
ATOM     32  C   UNL     1       0.031   2.668   0.764  0.00  0.00    +0.002 C 
ATOM     33  C   UNL     1       0.340   1.178   0.612  0.00  0.00    -0.017 C 
ENDBRANCH  20  33
ENDBRANCH  19  20
ENDBRANCH   1  19
TORSDOF 6
