REMARK  Name = ZINC13068723
REMARK  13 active torsions:
REMARK  status: ('A' for Active; 'I' for Inactive)
REMARK    1  A    between atoms: C_1  and  C_2
REMARK    2  A    between atoms: C_2  and  N_3
REMARK    3  A    between atoms: N_3  and  C_4
REMARK    4  A    between atoms: N_3  and  S_18
REMARK    5  A    between atoms: C_4  and  C_5
REMARK    6  A    between atoms: N_7  and  C_8
REMARK    7  A    between atoms: C_11  and  N_14
REMARK    8  A    between atoms: C_15  and  C_17
REMARK    9  A    between atoms: S_18  and  C_21
REMARK   10  A    between atoms: C_23  and  C_29
REMARK   11  A    between atoms: C_26  and  O_27
REMARK   12  A    between atoms: O_27  and  C_28
REMARK   13  A    between atoms: C_30  and  C_31
REMARK                            x       y       z     vdW  Elec       q    Type
REMARK                         _______ _______ _______ _____ _____    ______ ____
ROOT
ATOM      1  N   UNL     1       1.739  10.269  -0.054  0.00  0.00    -0.168 NA
ENDROOT
BRANCH   1   2
ATOM      2  S   UNL     1       2.356  10.590  -1.557  0.00  0.00    +0.065 S 
ATOM      3  O   UNL     1       3.764  10.420  -1.463  0.00  0.00    -0.153 OA
ATOM      4  O   UNL     1       1.562   9.865  -2.486  0.00  0.00    -0.153 OA
BRANCH   2   5
ATOM      5  C   UNL     1       2.075  12.299  -1.881  0.00  0.00    +0.147 A 
ATOM      6  C   UNL     1       3.143  13.159  -2.008  0.00  0.00    +0.040 A 
ATOM      7  C   UNL     1       2.918  14.515  -2.271  0.00  0.00    -0.023 A 
ATOM      8  C   UNL     1       1.608  14.992  -2.392  0.00  0.00    +0.011 A 
ATOM      9  C   UNL     1       0.547  14.126  -2.258  0.00  0.00    +0.048 A 
ATOM     10  C   UNL     1       0.776  12.778  -2.002  0.00  0.00    +0.146 A 
BRANCH  10  11
ATOM     11  O   UNL     1      -0.274  11.927  -1.870  0.00  0.00    -0.493 OA
ATOM     12  C   UNL     1      -1.582  12.485  -2.006  0.00  0.00    +0.277 C 
ENDBRANCH  10  11
BRANCH   7  13
ATOM     13  C   UNL     1       4.055  15.437  -2.413  0.00  0.00    +0.015 C 
ATOM     14  C   UNL     1       3.835  16.746  -2.662  0.00  0.00    +0.096 C 
BRANCH  14  15
ATOM     15  C   UNL     1       4.931  17.635  -2.799  0.00  0.00    +0.380 C 
ATOM     16  O   UNL     1       6.069  17.218  -2.693  0.00  0.00    -0.241 OA
ATOM     17  O   UNL     1       4.712  18.943  -3.047  0.00  0.00    -0.241 OA
ENDBRANCH  14  15
ENDBRANCH   7  13
ENDBRANCH   2   5
ENDBRANCH   1   2
BRANCH   1  19
ATOM     18  C   UNL     1       3.192   9.051   1.490  0.00  0.00    +0.022 C 
ATOM     19  C   UNL     1       2.588  10.409   1.131  0.00  0.00    +0.106 C 
ENDBRANCH   1  19
BRANCH   1  20
ATOM     20  C   UNL     1       0.344   9.844   0.089  0.00  0.00    +0.205 C 
BRANCH  20  21
ATOM     21  C   UNL     1       0.280   8.339   0.136  0.00  0.00    +0.233 C 
ATOM     22  O   UNL     1       1.299   7.686   0.057  0.00  0.00    -0.274 OA
ATOM     23  N   UNL     1      -0.909   7.718   0.266  0.00  0.00    -0.284 N 
ATOM     24  H   UNL     1      -1.716   8.240   0.404  0.00  0.00    +0.155 HD
BRANCH  23  25
ATOM     25  C   UNL     1      -0.982   6.321   0.201  0.00  0.00    +0.034 A 
ATOM     26  C   UNL     1      -1.918   5.638   0.965  0.00  0.00    +0.025 A 
ATOM     27  C   UNL     1      -1.990   4.261   0.901  0.00  0.00    +0.025 A 
ATOM     28  C   UNL     1      -1.125   3.559   0.071  0.00  0.00    +0.033 A 
ATOM     29  C   UNL     1      -0.184   4.242  -0.689  0.00  0.00    +0.025 A 
ATOM     30  C   UNL     1      -0.117   5.619  -0.629  0.00  0.00    +0.025 A 
BRANCH  28  31
ATOM     31  N   UNL     1      -1.197   2.161   0.006  0.00  0.00    -0.286 N 
ATOM     32  C   UNL     1      -0.924   1.526  -1.151  0.00  0.00    +0.214 C 
ATOM     33  O   UNL     1      -0.708   2.166  -2.158  0.00  0.00    -0.276 OA
ATOM     34  C   UNL     1      -0.893   0.020  -1.194  0.00  0.00    +0.109 C 
ATOM     35  H   UNL     1      -1.444   1.651   0.793  0.00  0.00    +0.155 HD
ENDBRANCH  28  31
ENDBRANCH  23  25
ENDBRANCH  20  21
ENDBRANCH   1  20
TORSDOF 10
