REMARK  Name = ZINC13232575
REMARK  11 active torsions:
REMARK  status: ('A' for Active; 'I' for Inactive)
REMARK    1  A    between atoms: C_1  and  C_2
REMARK    2  A    between atoms: C_2  and  C_3
REMARK    3  A    between atoms: C_5  and  C_9
REMARK    4  A    between atoms: C_7  and  C_8
REMARK    5  A    between atoms: N_11  and  N_12
REMARK    6  A    between atoms: C_13  and  C_15
REMARK    7  A    between atoms: C_15  and  S_16
REMARK    8  A    between atoms: S_16  and  C_17
REMARK    9  A    between atoms: C_20  and  C_25
REMARK   10  A    between atoms: N_21  and  C_22
REMARK   11  A    between atoms: C_22  and  C_23
REMARK                            x       y       z     vdW  Elec       q    Type
REMARK                         _______ _______ _______ _____ _____    ______ ____
ROOT
ATOM      1  C   UNL     1      -0.530   6.248  -0.191  0.00  0.00    +0.174 C 
ENDROOT
BRANCH   1   3
ATOM      2  N   UNL     1      -0.491   8.717  -0.334  0.00  0.00    -0.233 N 
ATOM      3  C   UNL     1      -1.220   7.586  -0.264  0.00  0.00    +0.239 C 
ATOM      4  O   UNL     1      -2.432   7.644  -0.261  0.00  0.00    -0.273 OA
ATOM      5  H   UNL     1       0.478   8.670  -0.337  0.00  0.00    +0.173 HD
BRANCH   2   8
ATOM      6  C   UNL     1      -0.403  11.092  -0.472  0.00  0.00    +0.267 C 
ATOM      7  O   UNL     1       0.812  11.033  -0.476  0.00  0.00    -0.268 OA
ATOM      8  N   UNL     1      -1.132   9.961  -0.403  0.00  0.00    -0.230 N 
ATOM      9  H   UNL     1      -2.101  10.008  -0.400  0.00  0.00    +0.173 HD
BRANCH   6  12
ATOM     10  C   UNL     1      -1.385  14.722  -0.678  0.00  0.00    -0.037 A 
ATOM     11  C   UNL     1      -0.517  13.660  -0.620  0.00  0.00    +0.024 A 
ATOM     12  C   UNL     1      -1.074  12.393  -0.544  0.00  0.00    +0.076 A 
ATOM     13  S   UNL     1      -2.820  12.759  -0.563  0.00  0.00    -0.089 S 
ATOM     14  C   UNL     1      -2.724  14.487  -0.657  0.00  0.00    -0.009 A 
ATOM     15  C   UNL     1      -3.850  15.486  -0.710  0.00  0.00    +0.052 C 
BRANCH  10  17
ATOM     16  C   UNL     1      -0.793  16.737   0.641  0.00  0.00    +0.009 C 
ATOM     17  C   UNL     1      -0.860  16.132  -0.763  0.00  0.00    +0.032 C 
ENDBRANCH  10  17
ENDBRANCH   6  12
ENDBRANCH   2   8
ENDBRANCH   1   3
BRANCH   1  18
ATOM     18  S   UNL     1      -1.771   4.933  -0.108  0.00  0.00    -0.077 S 
BRANCH  18  19
ATOM     19  C   UNL     1      -0.718   3.522  -0.032  0.00  0.00    +0.193 A 
ATOM     20  N   UNL     1       0.596   3.530  -0.040  0.00  0.00    -0.122 NA
ATOM     21  N   UNL     1       1.044   2.327   0.027  0.00  0.00    -0.128 NA
ATOM     22  C   UNL     1       0.044   1.478   0.082  0.00  0.00    +0.165 A 
ATOM     23  N   UNL     1      -1.115   2.218   0.040  0.00  0.00    -0.291 N 
BRANCH  22  24
ATOM     24  C   UNL     1       0.145   0.006   0.166  0.00  0.00    +0.019 A 
ATOM     25  C   UNL     1      -0.943  -0.746   0.612  0.00  0.00    +0.013 A 
ATOM     26  C   UNL     1      -0.844  -2.120   0.685  0.00  0.00    +0.021 A 
ATOM     27  C   UNL     1       0.334  -2.752   0.326  0.00  0.00    +0.041 A 
ATOM     28  C   UNL     1       1.419  -2.011  -0.112  0.00  0.00    +0.021 A 
ATOM     29  C   UNL     1       1.331  -0.637  -0.194  0.00  0.00    +0.013 A 
ATOM     30 CL   UNL     1       0.453  -4.481   0.426  0.00  0.00    -0.084 Cl
ENDBRANCH  22  24
BRANCH  23  31
ATOM     31  C   UNL     1      -2.490   1.711   0.070  0.00  0.00    +0.250 C 
BRANCH  31  32
ATOM     32  C   UNL     1      -2.971   1.649   1.497  0.00  0.00    +0.375 C 
ATOM     33  O   UNL     1      -2.241   1.993   2.396  0.00  0.00    -0.244 OA
ATOM     34  O   UNL     1      -4.211   1.212   1.768  0.00  0.00    -0.244 OA
ENDBRANCH  31  32
ENDBRANCH  23  31
ENDBRANCH  18  19
ENDBRANCH   1  18
TORSDOF 9
