REMARK  Name = ZINC39479661
REMARK  7 active torsions:
REMARK  status: ('A' for Active; 'I' for Inactive)
REMARK    1  A    between atoms: C_1  and  C_2
REMARK    2  A    between atoms: C_2  and  C_3
REMARK    3  A    between atoms: C_2  and  S_4
REMARK    4  A    between atoms: S_4  and  C_7
REMARK    5  A    between atoms: C_9  and  S_26
REMARK    6  A    between atoms: N_13  and  C_25
REMARK    7  A    between atoms: S_26  and  C_27
REMARK                            x       y       z     vdW  Elec       q    Type
REMARK                         _______ _______ _______ _____ _____    ______ ____
ROOT
ATOM      1  C   UNL     1       2.185  -0.056  -1.269  0.00  0.00    +0.111 A 
ATOM      2  C   UNL     1       3.179  -1.019  -1.153  0.00  0.00    +0.043 A 
ATOM      3  C   UNL     1       4.524  -0.662  -1.114  0.00  0.00    +0.010 A 
ATOM      4  C   UNL     1       4.897   0.668  -1.337  0.00  0.00    +0.020 A 
ATOM      5  C   UNL     1       3.916   1.572  -1.514  0.00  0.00    -0.017 A 
ATOM      6  C   UNL     1       2.578   1.262  -1.312  0.00  0.00    +0.064 A 
ATOM      7  N   UNL     1       1.866   2.288  -0.701  0.00  0.00    -0.285 N 
ATOM      8  C   UNL     1       0.544   2.619  -0.759  0.00  0.00    +0.156 A 
ATOM      9  C   UNL     1       0.615   3.936  -1.428  0.00  0.00    +0.142 A 
ATOM     10  C   UNL     1      -0.548   4.580  -1.679  0.00  0.00    +0.160 A 
ATOM     11  N   UNL     1      -1.694   4.004  -1.306  0.00  0.00    -0.222 NA
ATOM     12  C   UNL     1      -1.711   2.831  -0.701  0.00  0.00    +0.225 A 
ATOM     13  N   UNL     1      -0.600   2.152  -0.433  0.00  0.00    -0.218 NA
ATOM     14 CL   UNL     1      -0.552   6.124  -2.471  0.00  0.00    -0.060 Cl
ATOM     15  N   UNL     1       1.935   4.191  -1.625  0.00  0.00    -0.238 NA
ATOM     16  C   UNL     1       2.585   3.318  -2.308  0.00  0.00    +0.089 C 
ATOM     17  C   UNL     1       4.061   2.970  -2.172  0.00  0.00    +0.100 C 
ATOM     18 BR   UNL     1       1.599   2.365  -3.610  0.00  0.00    -0.033 Br
ATOM     19  C   UNL     1       2.675   3.163   0.151  0.00  0.00    +0.137 C 
ENDROOT
BRANCH   1  20
ATOM     20  S   UNL     1       0.484  -0.506  -1.365  0.00  0.00    +0.001 S 
ATOM     21  O   UNL     1       0.465  -1.679  -2.167  0.00  0.00    -0.169 OA
ATOM     22  O   UNL     1      -0.179   0.676  -1.793  0.00  0.00    -0.169 OA
BRANCH  20  24
ATOM     23  C   UNL     1       0.396   0.253   1.261  0.00  0.00    +0.032 C 
ATOM     24  C   UNL     1       0.011  -0.906   0.339  0.00  0.00    +0.130 C 
ATOM     25  C   UNL     1      -1.500  -1.133   0.409  0.00  0.00    +0.032 C 
ENDBRANCH  20  24
ENDBRANCH   1  20
BRANCH   3  26
ATOM     26  S   UNL     1       5.753  -1.881  -0.785  0.00  0.00    -0.129 S 
ATOM     27  C   UNL     1       7.313  -0.957  -0.838  0.00  0.00    +0.090 C 
ENDBRANCH   3  26
TORSDOF 3
