REMARK  Name = ZINC13739451
REMARK  7 active torsions:
REMARK  status: ('A' for Active; 'I' for Inactive)
REMARK    1  A    between atoms: C_1  and  C_2
REMARK    2  A    between atoms: C_7  and  C_8
REMARK    3  A    between atoms: C_14  and  C_29
REMARK    4  A    between atoms: C_15  and  C_22
REMARK    5  A    between atoms: C_17  and  C_20
REMARK    6  A    between atoms: C_18  and  N_19
REMARK    7  A    between atoms: C_27  and  C_28
REMARK                            x       y       z     vdW  Elec       q    Type
REMARK                         _______ _______ _______ _____ _____    ______ ____
ROOT
ATOM      1  C   UNL     1       0.408   0.101  -0.366  0.00  0.00    +0.028 C 
ATOM      2  C   UNL     1       1.481   0.893  -0.113  0.00  0.00    +0.080 A 
ATOM      3  C   UNL     1       2.793   0.535   0.442  0.00  0.00    +0.271 A 
ATOM      4  O   UNL     1       3.047  -0.614   0.749  0.00  0.00    -0.266 OA
ATOM      5  N   UNL     1       3.710   1.510   0.599  0.00  0.00    -0.256 N 
ATOM      6  C   UNL     1       3.349   2.794   0.235  0.00  0.00    +0.104 A 
ATOM      7  C   UNL     1       4.162   3.876   0.340  0.00  0.00    +0.072 C 
ATOM      8  C   UNL     1       5.559   3.675   0.893  0.00  0.00    +0.106 C 
ATOM      9  C   UNL     1       5.916   2.254   1.280  0.00  0.00    +0.080 C 
ATOM     10  C   UNL     1       4.991   1.283   1.113  0.00  0.00    +0.119 C 
ATOM     11  S   UNL     1       1.675   2.650  -0.357  0.00  0.00    -0.065 S 
ENDROOT
BRANCH   1  18
ATOM     12  C   UNL     1      -1.610  -1.533  -1.643  0.00  0.00    +0.044 C 
ATOM     13  C   UNL     1      -1.862  -0.073  -1.368  0.00  0.00    -0.043 A 
ATOM     14  C   UNL     1      -3.066   0.500  -1.720  0.00  0.00    +0.004 A 
ATOM     15  C   UNL     1      -3.296   1.842  -1.474  0.00  0.00    +0.000 A 
ATOM     16  C   UNL     1      -2.324   2.620  -0.869  0.00  0.00    +0.001 A 
ATOM     17  C   UNL     1      -1.117   2.061  -0.505  0.00  0.00    +0.008 A 
ATOM     18  C   UNL     1      -0.876   0.705  -0.750  0.00  0.00    -0.021 A 
ENDBRANCH   1  18
BRANCH   8  19
ATOM     19  C   UNL     1       6.544   4.142  -0.147  0.00  0.00    -0.031 A 
ATOM     20  C   UNL     1       6.745   3.395  -1.293  0.00  0.00    +0.005 A 
ATOM     21  C   UNL     1       7.649   3.822  -2.248  0.00  0.00    +0.000 A 
ATOM     22  C   UNL     1       8.351   4.998  -2.056  0.00  0.00    +0.000 A 
ATOM     23  C   UNL     1       8.150   5.745  -0.911  0.00  0.00    +0.003 A 
ATOM     24  C   UNL     1       7.243   5.319   0.041  0.00  0.00    -0.046 A 
ATOM     25  C   UNL     1       7.019   6.136   1.288  0.00  0.00    +0.044 C 
ENDBRANCH   8  19
BRANCH  10  26
ATOM     26  N   UNL     1       5.329  -0.001   1.468  0.00  0.00    -0.343 N 
ATOM     27  H   UNL     1       6.256  -0.283   1.444  0.00  0.00    +0.144 HD
ATOM     28  H   UNL     1       4.639  -0.625   1.744  0.00  0.00    +0.144 HD
ENDBRANCH  10  26
BRANCH   9  29
ATOM     29  C   UNL     1       7.208   1.947   1.814  0.00  0.00    +0.099 C 
ATOM     30  N   UNL     1       8.234   1.703   2.237  0.00  0.00    -0.191 NA
ENDBRANCH   9  29
BRANCH   7  31
ATOM     31  C   UNL     1       3.710   5.174  -0.060  0.00  0.00    +0.098 C 
ATOM     32  N   UNL     1       3.352   6.205  -0.378  0.00  0.00    -0.191 NA
ENDBRANCH   7  31
TORSDOF 5
