REMARK  Name = ZINC08814406
REMARK  8 active torsions:
REMARK  status: ('A' for Active; 'I' for Inactive)
REMARK    1  A    between atoms: C_1  and  C_2
REMARK    2  A    between atoms: C_2  and  C_4
REMARK    3  A    between atoms: C_2  and  S_17
REMARK    4  A    between atoms: N_6  and  C_7
REMARK    5  A    between atoms: C_10  and  S_13
REMARK    6  A    between atoms: S_13  and  N_16
REMARK    7  A    between atoms: S_17  and  C_18
REMARK    8  A    between atoms: C_22  and  N_24
REMARK                            x       y       z     vdW  Elec       q    Type
REMARK                         _______ _______ _______ _____ _____    ______ ____
ROOT
ATOM      1  C   UNL     1      -2.180   4.798   0.161  0.00  0.00    +0.230 C 
ATOM      2  O   UNL     1      -3.291   4.404  -0.124  0.00  0.00    -0.274 OA
ATOM      3  N   UNL     1      -2.004   6.064   0.589  0.00  0.00    -0.285 N 
ATOM      4  H   UNL     1      -1.127   6.359   0.881  0.00  0.00    +0.155 HD
ENDROOT
BRANCH   3   5
ATOM      5  C   UNL     1      -3.086   6.951   0.615  0.00  0.00    +0.034 A 
ATOM      6  C   UNL     1      -2.888   8.297   0.339  0.00  0.00    +0.025 A 
ATOM      7  C   UNL     1      -3.959   9.169   0.358  0.00  0.00    +0.030 A 
ATOM      8  C   UNL     1      -5.225   8.705   0.664  0.00  0.00    +0.105 A 
ATOM      9  C   UNL     1      -5.424   7.366   0.946  0.00  0.00    +0.030 A 
ATOM     10  C   UNL     1      -4.358   6.488   0.921  0.00  0.00    +0.025 A 
BRANCH   8  11
ATOM     11  S   UNL     1      -6.587   9.822   0.696  0.00  0.00    +0.056 S 
ATOM     12  O   UNL     1      -6.233  10.918  -0.136  0.00  0.00    -0.153 OA
ATOM     13  O   UNL     1      -7.755   9.044   0.474  0.00  0.00    -0.153 OA
BRANCH  11  14
ATOM     14  N   UNL     1      -6.699  10.415   2.238  0.00  0.00    -0.204 NA
ATOM     15  H   UNL     1      -6.069  10.124   2.916  0.00  0.00    +0.144 HD
ATOM     16  H   UNL     1      -7.394  11.053   2.463  0.00  0.00    +0.144 HD
ENDBRANCH  11  14
ENDBRANCH   8  11
ENDBRANCH   3   5
BRANCH   1  18
ATOM     17  C   UNL     1      -0.254   4.172  -1.270  0.00  0.00    +0.029 C 
ATOM     18  C   UNL     1      -0.997   3.874   0.034  0.00  0.00    +0.137 C 
BRANCH  18  19
ATOM     19  S   UNL     1      -1.571   2.157   0.023  0.00  0.00    -0.073 S 
BRANCH  19  20
ATOM     20  C   UNL     1      -0.022   1.317   0.022  0.00  0.00    +0.192 A 
ATOM     21  N   UNL     1       1.097   2.026   0.023  0.00  0.00    -0.207 NA
ATOM     22  C   UNL     1       2.285   1.426   0.017  0.00  0.00    +0.122 A 
ATOM     23  C   UNL     1       2.341   0.035   0.009  0.00  0.00    +0.086 A 
ATOM     24  C   UNL     1       1.144  -0.676   0.008  0.00  0.00    +0.122 A 
ATOM     25  N   UNL     1      -0.007  -0.008   0.014  0.00  0.00    -0.207 NA
ATOM     26  N   UNL     1       3.451   2.175   0.019  0.00  0.00    -0.343 N 
ATOM     27  H   UNL     1       4.313   1.731   0.015  0.00  0.00    +0.144 HD
ATOM     28  H   UNL     1       3.405   3.144   0.025  0.00  0.00    +0.144 HD
BRANCH  24  29
ATOM     29  N   UNL     1       1.152  -2.063   0.000  0.00  0.00    -0.343 N 
ATOM     30  H   UNL     1       0.314  -2.552  -0.000  0.00  0.00    +0.144 HD
ATOM     31  H   UNL     1       1.994  -2.543  -0.004  0.00  0.00    +0.144 HD
ENDBRANCH  24  29
ENDBRANCH  19  20
ENDBRANCH  18  19
ENDBRANCH   1  18
TORSDOF 7
