REMARK  Name = ZINC40072149
REMARK  4 active torsions:
REMARK  status: ('A' for Active; 'I' for Inactive)
REMARK    1  A    between atoms: C_7  and  C_10
REMARK    2  A    between atoms: N_14  and  C_18
REMARK    3  A    between atoms: N_23  and  C_26
REMARK    4  A    between atoms: C_30  and  C_32
REMARK                            x       y       z     vdW  Elec       q    Type
REMARK                         _______ _______ _______ _____ _____    ______ ____
ROOT
ATOM      1  C   UNL     1       1.362  -2.660  -0.335  0.00  0.00    +0.026 C 
ATOM      2  C   UNL     1       1.678  -3.999  -0.441  0.00  0.00    +0.077 C 
ATOM      3  C   UNL     1       2.992  -4.677  -0.292  0.00  0.00    +0.259 C 
ATOM      4  O   UNL     1       4.007  -4.058  -0.040  0.00  0.00    -0.269 OA
ATOM      5  N   UNL     1       2.997  -5.990  -0.449  0.00  0.00    -0.243 N 
ATOM      6  C   UNL     1       1.868  -6.672  -0.728  0.00  0.00    +0.121 C 
ATOM      7  S   UNL     1       1.676  -8.357  -0.963  0.00  0.00    -0.027 S 
ATOM      8  S   UNL     1       0.619  -5.397  -0.786  0.00  0.00    -0.061 S 
ENDROOT
BRANCH   1  15
ATOM      9  C   UNL     1       1.274   1.872  -0.337  0.00  0.00    +0.001 A 
ATOM     10  C   UNL     1       2.541   2.455  -0.233  0.00  0.00    +0.002 A 
ATOM     11  C   UNL     1       3.667   1.709  -0.141  0.00  0.00    +0.026 A 
ATOM     12  C   UNL     1       3.576   0.290  -0.150  0.00  0.00    +0.043 A 
ATOM     13  N   UNL     1       4.500  -0.642  -0.076  0.00  0.00    -0.380 N 
ATOM     14  C   UNL     1       3.865  -1.962  -0.130  0.00  0.00    +0.149 C 
ATOM     15  C   UNL     1       2.379  -1.706  -0.251  0.00  0.00    -0.018 C 
ATOM     16  C   UNL     1       2.237  -0.319  -0.260  0.00  0.00    +0.003 A 
ATOM     17  C   UNL     1       1.110   0.525  -0.352  0.00  0.00    +0.010 A 
ATOM     18  H   UNL     1       5.454  -0.481   0.001  0.00  0.00    +0.160 HD
ENDBRANCH   1  15
BRANCH   5  19
ATOM     19  C   UNL     1       4.259  -6.721  -0.316  0.00  0.00    +0.178 C 
ATOM     20  C   UNL     1       4.151  -7.795   0.785  0.00  0.00    +0.129 C 
ATOM     21  C   UNL     1       4.386  -9.092   0.041  0.00  0.00    +0.228 C 
ATOM     22  O   UNL     1       4.387 -10.197   0.539  0.00  0.00    -0.275 OA
ATOM     23  N   UNL     1       4.593  -8.825  -1.254  0.00  0.00    -0.209 N 
ATOM     24  C   UNL     1       4.546  -7.521  -1.569  0.00  0.00    +0.248 C 
ATOM     25  O   UNL     1       4.706  -7.056  -2.677  0.00  0.00    -0.273 OA
BRANCH  23  26
ATOM     26  C   UNL     1       4.841  -9.825  -2.205  0.00  0.00    +0.044 A 
ATOM     27  C   UNL     1       3.914 -10.076  -3.208  0.00  0.00    +0.024 A 
ATOM     28  C   UNL     1       4.161 -11.062  -4.143  0.00  0.00    +0.002 A 
ATOM     29  C   UNL     1       5.330 -11.799  -4.081  0.00  0.00    +0.012 A 
ATOM     30  C   UNL     1       6.255 -11.550  -3.083  0.00  0.00    +0.057 A 
ATOM     31  C   UNL     1       6.016 -10.562  -2.149  0.00  0.00    +0.036 A 
BRANCH  30  32
ATOM     32  C   UNL     1       7.527 -12.355  -3.020  0.00  0.00    +0.417 C 
ATOM     33  F   UNL     1       7.545 -13.284  -4.066  0.00  0.00    -0.166 F 
ATOM     34  F   UNL     1       8.627 -11.499  -3.138  0.00  0.00    -0.166 F 
ATOM     35  F   UNL     1       7.591 -13.030  -1.796  0.00  0.00    -0.166 F 
ENDBRANCH  30  32
ENDBRANCH  23  26
ENDBRANCH   5  19
TORSDOF 4
