REMARK  Name = ZINC10315823
REMARK  8 active torsions:
REMARK  status: ('A' for Active; 'I' for Inactive)
REMARK    1  A    between atoms: C_1  and  C_2
REMARK    2  A    between atoms: C_5  and  N_9
REMARK    3  A    between atoms: C_6  and  C_8
REMARK    4  A    between atoms: C_18  and  S_19
REMARK    5  A    between atoms: S_19  and  C_20
REMARK    6  A    between atoms: C_20  and  C_22
REMARK    7  A    between atoms: C_20  and  C_23
REMARK    8  A    between atoms: N_28  and  C_29
REMARK                            x       y       z     vdW  Elec       q    Type
REMARK                         _______ _______ _______ _____ _____    ______ ____
ROOT
ATOM      1  N   UNL     1       0.059  -4.171  -0.021  0.00  0.00    -0.255 N 
ATOM      2  C   UNL     1      -1.105  -4.847  -0.024  0.00  0.00    +0.268 A 
ATOM      3  O   UNL     1      -2.167  -4.249  -0.021  0.00  0.00    -0.267 OA
ATOM      4  C   UNL     1      -1.079  -6.278  -0.032  0.00  0.00    +0.076 A 
ATOM      5  C   UNL     1      -2.212  -7.206  -0.035  0.00  0.00    -0.023 A 
ATOM      6  C   UNL     1      -1.924  -8.523  -0.043  0.00  0.00    -0.004 A 
ATOM      7  S   UNL     1      -0.153  -8.607  -0.046  0.00  0.00    -0.073 S 
ATOM      8  C   UNL     1       0.197  -6.867  -0.036  0.00  0.00    +0.117 A 
ATOM      9  N   UNL     1       1.310  -6.143  -0.032  0.00  0.00    -0.215 NA
ATOM     10  C   UNL     1       1.258  -4.826  -0.031  0.00  0.00    +0.178 A 
ATOM     11  C   UNL     1      -2.894  -9.664  -0.047  0.00  0.00    +0.043 C 
ATOM     12  C   UNL     1      -4.280  -9.123   0.335  0.00  0.00    +0.005 C 
ATOM     13  C   UNL     1      -4.562  -7.868  -0.495  0.00  0.00    +0.005 C 
ATOM     14  C   UNL     1      -3.660  -6.724  -0.029  0.00  0.00    +0.037 C 
ENDROOT
BRANCH   1  19
ATOM     15  C   UNL     1      -0.018   1.503   0.010  0.00  0.00    +0.044 C 
ATOM     16  C   UNL     1       0.002  -0.004   0.002  0.00  0.00    -0.050 A 
ATOM     17  C   UNL     1       0.006  -0.688  -1.200  0.00  0.00    +0.005 A 
ATOM     18  C   UNL     1       0.025  -2.068  -1.211  0.00  0.00    +0.027 A 
ATOM     19  C   UNL     1       0.040  -2.771  -0.013  0.00  0.00    +0.055 A 
ATOM     20  C   UNL     1       0.037  -2.082   1.192  0.00  0.00    -0.026 A 
ATOM     21  C   UNL     1       0.023  -0.700   1.196  0.00  0.00    +0.008 A 
ATOM     22  C   UNL     1       0.053  -2.840   2.494  0.00  0.00    +0.046 C 
ENDBRANCH   1  19
BRANCH  10  23
ATOM     23  S   UNL     1       2.756  -3.898  -0.034  0.00  0.00    -0.075 S 
BRANCH  23  24
ATOM     24  C   UNL     1       4.056  -5.162  -0.048  0.00  0.00    +0.137 C 
ATOM     25  C   UNL     1       4.004  -5.962   1.256  0.00  0.00    +0.029 C 
BRANCH  24  26
ATOM     26  C   UNL     1       5.402  -4.497  -0.175  0.00  0.00    +0.233 C 
ATOM     27  O   UNL     1       5.550  -3.352   0.194  0.00  0.00    -0.274 OA
ATOM     28  N   UNL     1       6.442  -5.175  -0.701  0.00  0.00    -0.239 N 
ATOM     29  C   UNL     1       7.646  -4.580  -0.815  0.00  0.00    +0.306 C 
ATOM     30  O   UNL     1       7.794  -3.432  -0.444  0.00  0.00    -0.252 OA
ATOM     31  N   UNL     1       8.686  -5.258  -1.340  0.00  0.00    -0.302 N 
ATOM     32  C   UNL     1       9.994  -4.611  -1.464  0.00  0.00    +0.129 C 
ATOM     33  H   UNL     1       6.324  -6.091  -0.997  0.00  0.00    +0.159 HD
ATOM     34  H   UNL     1       8.568  -6.174  -1.636  0.00  0.00    +0.150 HD
ENDBRANCH  24  26
ENDBRANCH  23  24
ENDBRANCH  10  23
TORSDOF 4
