REMARK  Name = ZINC09631168
REMARK  6 active torsions:
REMARK  status: ('A' for Active; 'I' for Inactive)
REMARK    1  A    between atoms: C_4  and  C_8
REMARK    2  A    between atoms: N_10  and  C_11
REMARK    3  A    between atoms: C_12  and  C_26
REMARK    4  A    between atoms: N_15  and  C_16
REMARK    5  A    between atoms: C_19  and  S_22
REMARK    6  A    between atoms: S_22  and  N_25
REMARK                            x       y       z     vdW  Elec       q    Type
REMARK                         _______ _______ _______ _____ _____    ______ ____
ROOT
ATOM      1  C   UNL     1      -2.577   3.701   5.912  0.00  0.00    +0.141 A 
ATOM      2  C   UNL     1      -3.413   3.305   6.951  0.00  0.00    +0.096 A 
ATOM      3  C   UNL     1      -4.633   2.892   6.367  0.00  0.00    +0.149 A 
ATOM      4  N   UNL     1      -4.535   3.035   5.075  0.00  0.00    -0.172 NA
ATOM      5  N   UNL     1      -3.269   3.540   4.762  0.00  0.00    -0.218 N 
ENDROOT
BRANCH   5   6
ATOM      6  C   UNL     1      -2.796   3.826   3.474  0.00  0.00    +0.068 A 
ATOM      7  C   UNL     1      -3.071   2.960   2.424  0.00  0.00    +0.030 A 
ATOM      8  C   UNL     1      -2.603   3.244   1.156  0.00  0.00    +0.030 A 
ATOM      9  C   UNL     1      -1.860   4.388   0.932  0.00  0.00    +0.105 A 
ATOM     10  C   UNL     1      -1.580   5.250   1.977  0.00  0.00    +0.030 A 
ATOM     11  C   UNL     1      -2.050   4.974   3.246  0.00  0.00    +0.030 A 
BRANCH   9  12
ATOM     12  S   UNL     1      -1.264   4.746  -0.687  0.00  0.00    +0.056 S 
ATOM     13  O   UNL     1      -1.193   3.506  -1.377  0.00  0.00    -0.153 OA
ATOM     14  O   UNL     1      -0.135   5.594  -0.525  0.00  0.00    -0.153 OA
BRANCH  12  15
ATOM     15  N   UNL     1      -2.426   5.646  -1.449  0.00  0.00    -0.204 NA
ATOM     16  H   UNL     1      -2.836   5.319  -2.265  0.00  0.00    +0.144 HD
ATOM     17  H   UNL     1      -2.698   6.501  -1.079  0.00  0.00    +0.144 HD
ENDBRANCH  12  15
ENDBRANCH   9  12
ENDBRANCH   5   6
BRANCH   2  18
ATOM     18  C   UNL     1      -3.088   3.310   8.384  0.00  0.00    +0.246 C 
ATOM     19  O   UNL     1      -1.996   3.692   8.759  0.00  0.00    -0.270 OA
ATOM     20  N   UNL     1      -4.000   2.890   9.283  0.00  0.00    -0.325 N 
ATOM     21  H   UNL     1      -4.871   2.586   8.985  0.00  0.00    +0.145 HD
ATOM     22  H   UNL     1      -3.786   2.893  10.229  0.00  0.00    +0.145 HD
ENDBRANCH   2  18
BRANCH   1  25
ATOM     23  C   UNL     1      -0.275   3.553   5.388  0.00  0.00    +0.255 C 
ATOM     24  O   UNL     1      -0.517   2.659   4.600  0.00  0.00    -0.270 OA
ATOM     25  N   UNL     1      -1.282   4.174   6.032  0.00  0.00    -0.266 N 
ATOM     26  H   UNL     1      -1.099   4.953   6.581  0.00  0.00    +0.157 HD
BRANCH  23  30
ATOM     27  C   UNL     1       3.747   4.718   6.106  0.00  0.00    +0.006 A 
ATOM     28  C   UNL     1       3.022   5.333   5.101  0.00  0.00    +0.039 A 
ATOM     29  C   UNL     1       1.713   4.960   4.860  0.00  0.00    +0.138 A 
ATOM     30  C   UNL     1       1.121   3.958   5.637  0.00  0.00    +0.107 A 
ATOM     31  C   UNL     1       1.860   3.345   6.656  0.00  0.00    +0.138 A 
ATOM     32  C   UNL     1       3.170   3.727   6.879  0.00  0.00    +0.039 A 
ATOM     33  F   UNL     1       1.296   2.381   7.415  0.00  0.00    -0.205 F 
ATOM     34  F   UNL     1       1.007   5.561   3.878  0.00  0.00    -0.205 F 
ENDBRANCH  23  30
ENDBRANCH   1  25
TORSDOF 6
