REMARK  Name = ZINC36694872
REMARK  9 active torsions:
REMARK  status: ('A' for Active; 'I' for Inactive)
REMARK    1  A    between atoms: C_1  and  C_2
REMARK    2  A    between atoms: C_2  and  C_3
REMARK    3  A    between atoms: C_2  and  C_4
REMARK    4  A    between atoms: C_2  and  N_5
REMARK    5  A    between atoms: N_5  and  S_6
REMARK    6  A    between atoms: S_6  and  C_9
REMARK    7  A    between atoms: C_11  and  C_16
REMARK    8  A    between atoms: N_18  and  C_19
REMARK    9  A    between atoms: C_19  and  C_20
REMARK                            x       y       z     vdW  Elec       q    Type
REMARK                         _______ _______ _______ _____ _____    ______ ____
ROOT
ATOM      1  C   UNL     1       3.044  -0.327  -0.147  0.00  0.00    +0.124 A 
ATOM      2  C   UNL     1       4.164  -1.089  -0.406  0.00  0.00    +0.043 A 
ATOM      3  C   UNL     1       4.984  -1.500   0.645  0.00  0.00    +0.039 A 
ATOM      4  C   UNL     1       4.666  -1.136   1.955  0.00  0.00    +0.014 A 
ATOM      5  C   UNL     1       3.544  -0.374   2.203  0.00  0.00    +0.023 A 
ATOM      6  C   UNL     1       2.737   0.036   1.154  0.00  0.00    +0.067 A 
ATOM      7 CL   UNL     1       1.330   1.002   1.472  0.00  0.00    -0.082 Cl
ENDROOT
BRANCH   3   8
ATOM      8  C   UNL     1       6.185  -2.318   0.374  0.00  0.00    +0.244 C 
ATOM      9  O   UNL     1       6.460  -2.633  -0.767  0.00  0.00    -0.270 OA
ATOM     10  N   UNL     1       6.975  -2.713   1.391  0.00  0.00    -0.307 N 
ATOM     11  H   UNL     1       6.756  -2.461   2.302  0.00  0.00    +0.149 HD
BRANCH  10  12
ATOM     12  C   UNL     1       8.166  -3.524   1.122  0.00  0.00    +0.140 C 
BRANCH  12  13
ATOM     13  C   UNL     1       8.869  -3.829   2.419  0.00  0.00    -0.027 A 
ATOM     14  C   UNL     1       9.840  -2.968   2.897  0.00  0.00    +0.009 A 
ATOM     15  C   UNL     1      10.488  -3.244   4.087  0.00  0.00    +0.050 A 
ATOM     16  C   UNL     1      10.166  -4.385   4.803  0.00  0.00    +0.166 A 
ATOM     17  C   UNL     1       9.188  -5.252   4.322  0.00  0.00    +0.167 A 
ATOM     18  C   UNL     1       8.539  -4.967   3.132  0.00  0.00    +0.054 A 
ATOM     19  O   UNL     1       9.056  -6.290   5.199  0.00  0.00    -0.453 OA
ATOM     20  C   UNL     1      10.245  -6.262   6.010  0.00  0.00    +0.466 C 
ATOM     21  O   UNL     1      10.646  -4.880   5.981  0.00  0.00    -0.453 OA
ENDBRANCH  12  13
ENDBRANCH  10  12
ENDBRANCH   3   8
BRANCH   1  22
ATOM     22  S   UNL     1       2.008   0.193  -1.473  0.00  0.00    +0.060 S 
ATOM     23  O   UNL     1       2.552  -0.369  -2.659  0.00  0.00    -0.153 OA
ATOM     24  O   UNL     1       1.814   1.592  -1.313  0.00  0.00    -0.153 OA
BRANCH  22  25
ATOM     25  N   UNL     1       0.529  -0.518  -1.247  0.00  0.00    -0.185 NA
ATOM     26  H   UNL     1      -0.248   0.029  -1.056  0.00  0.00    +0.149 HD
BRANCH  25  28
ATOM     27  C   UNL     1       1.216  -2.631  -0.224  0.00  0.00    +0.029 C 
ATOM     28  C   UNL     1       0.396  -1.975  -1.337  0.00  0.00    +0.032 C 
ATOM     29  C   UNL     1       0.909  -2.451  -2.697  0.00  0.00    +0.029 C 
ATOM     30  C   UNL     1      -1.076  -2.362  -1.183  0.00  0.00    +0.029 C 
ENDBRANCH  25  28
ENDBRANCH  22  25
ENDBRANCH   1  22
TORSDOF 6
