REMARK  Name = ZINC08914683
REMARK  10 active torsions:
REMARK  status: ('A' for Active; 'I' for Inactive)
REMARK    1  A    between atoms: C_1  and  N_2
REMARK    2  A    between atoms: N_2  and  C_3
REMARK    3  A    between atoms: N_2  and  C_4
REMARK    4  A    between atoms: C_7  and  C_10
REMARK    5  A    between atoms: C_12  and  C_32
REMARK    6  A    between atoms: C_25  and  C_26
REMARK    7  A    between atoms: C_25  and  C_28
REMARK    8  A    between atoms: C_28  and  O_30
REMARK    9  A    between atoms: O_30  and  C_31
REMARK   10  A    between atoms: C_32  and  C_34
REMARK                            x       y       z     vdW  Elec       q    Type
REMARK                         _______ _______ _______ _____ _____    ______ ____
ROOT
ATOM      1  C   UNL     1       4.074  -0.326   0.693  0.00  0.00    +0.080 C 
ATOM      2  C   UNL     1       2.550  -0.164   0.443  0.00  0.00    +0.155 C 
ATOM      3  N   UNL     1       2.424   1.230   0.003  0.00  0.00    -0.310 N 
ATOM      4  C   UNL     1       1.181   1.816   0.004  0.00  0.00    +0.038 A 
ATOM      5  C   UNL     1      -0.002   1.104   0.058  0.00  0.00    +0.024 A 
ATOM      6  C   UNL     1      -1.211   1.775   0.057  0.00  0.00    +0.002 A 
ATOM      7  C   UNL     1      -1.247   3.159   0.016  0.00  0.00    +0.001 A 
ATOM      8  C   UNL     1      -0.075   3.888  -0.038  0.00  0.00    +0.010 A 
ATOM      9  C   UNL     1       1.146   3.227  -0.046  0.00  0.00    -0.004 A 
ATOM     10  C   UNL     1       2.429   3.966  -0.111  0.00  0.00    +0.007 C 
ATOM     11  C   UNL     1       3.526   3.353   0.369  0.00  0.00    -0.002 C 
ATOM     12  C   UNL     1       3.326   1.974   0.922  0.00  0.00    +0.129 C 
ATOM     13  C   UNL     1       4.590   1.111   0.964  0.00  0.00    +0.184 C 
ENDROOT
BRANCH   1  17
ATOM     14  C   UNL     1       4.766  -2.820   4.094  0.00  0.00    +0.029 A 
ATOM     15  C   UNL     1       5.203  -3.219   2.838  0.00  0.00    +0.023 A 
ATOM     16  C   UNL     1       4.978  -2.411   1.741  0.00  0.00    +0.006 A 
ATOM     17  C   UNL     1       4.318  -1.206   1.892  0.00  0.00    -0.040 A 
ATOM     18  C   UNL     1       3.886  -0.802   3.142  0.00  0.00    +0.006 A 
ATOM     19  C   UNL     1       4.103  -1.608   4.243  0.00  0.00    +0.023 A 
BRANCH  14  21
ATOM     20  C   UNL     1       5.692  -4.912   5.048  0.00  0.00    +0.129 C 
ATOM     21  N   UNL     1       4.992  -3.634   5.206  0.00  0.00    -0.336 N 
ATOM     22  C   UNL     1       4.531  -3.211   6.530  0.00  0.00    +0.129 C 
ENDBRANCH  14  21
ENDBRANCH   1  17
BRANCH  13  23
ATOM     23  C   UNL     1       5.533   1.527  -0.087  0.00  0.00    +0.084 C 
ATOM     24  N   UNL     1       6.262   1.848  -0.897  0.00  0.00    -0.195 NA
ENDBRANCH  13  23
BRANCH  13  25
ATOM     25  C   UNL     1       5.239   1.192   2.321  0.00  0.00    +0.330 C 
ATOM     26  O   UNL     1       4.748   1.877   3.186  0.00  0.00    -0.249 OA
BRANCH  25  27
ATOM     27  O   UNL     1       6.364   0.502   2.569  0.00  0.00    -0.467 OA
ATOM     28  C   UNL     1       6.934   0.627   3.898  0.00  0.00    +0.280 C 
ENDBRANCH  25  27
ENDBRANCH  13  25
BRANCH   2  29
ATOM     29  C   UNL     1       1.776  -0.390   1.717  0.00  0.00    +0.184 C 
ATOM     30  O   UNL     1       1.373   0.557   2.358  0.00  0.00    -0.290 OA
BRANCH  29  31
ATOM     31  C   UNL     1       1.510  -1.760   2.182  0.00  0.00    +0.019 A 
ATOM     32  C   UNL     1       1.968  -2.855   1.442  0.00  0.00    +0.013 A 
ATOM     33  C   UNL     1       1.720  -4.136   1.886  0.00  0.00    +0.020 A 
ATOM     34  C   UNL     1       1.008  -4.340   3.057  0.00  0.00    +0.041 A 
ATOM     35  C   UNL     1       0.546  -3.260   3.793  0.00  0.00    +0.020 A 
ATOM     36  C   UNL     1       0.792  -1.974   3.363  0.00  0.00    +0.013 A 
ATOM     37 CL   UNL     1       0.694  -5.957   3.606  0.00  0.00    -0.084 Cl
ENDBRANCH  29  31
ENDBRANCH   2  29
TORSDOF 7
