REMARK  Name = ZINC04403687
REMARK  17 active torsions:
REMARK  status: ('A' for Active; 'I' for Inactive)
REMARK    1  A    between atoms: C_4  and  N_7
REMARK    2  A    between atoms: N_7  and  N_8
REMARK    3  A    between atoms: C_9  and  C_10
REMARK    4  A    between atoms: C_10  and  C_19
REMARK    5  A    between atoms: N_11  and  N_12
REMARK    6  A    between atoms: N_12  and  C_13
REMARK    7  A    between atoms: C_19  and  C_21
REMARK    8  A    between atoms: C_19  and  O_35
REMARK    9  A    between atoms: C_21  and  C_23
REMARK   10  A    between atoms: C_21  and  O_34
REMARK   11  A    between atoms: C_23  and  C_25
REMARK   12  A    between atoms: C_23  and  O_33
REMARK   13  A    between atoms: C_25  and  C_27
REMARK   14  A    between atoms: C_25  and  O_32
REMARK   15  A    between atoms: C_27  and  C_29
REMARK   16  A    between atoms: C_27  and  O_31
REMARK   17  A    between atoms: C_29  and  O_30
REMARK                            x       y       z     vdW  Elec       q    Type
REMARK                         _______ _______ _______ _____ _____    ______ ____
ROOT
ATOM      1  C   UNL     1       4.781  -4.088  -0.057  0.00  0.00    +0.110 C 
ATOM      2  N   UNL     1       3.686  -4.788   0.029  0.00  0.00    -0.183 NA
ENDROOT
BRANCH   2   3
ATOM      3  N   UNL     1       3.744  -6.187  -0.023  0.00  0.00    -0.237 N 
ATOM      4  H   UNL     1       4.604  -6.636  -0.043  0.00  0.00    +0.174 HD
BRANCH   3   5
ATOM      5  C   UNL     1       2.566  -6.934  -0.045  0.00  0.00    +0.048 A 
ATOM      6  C   UNL     1       1.334  -6.291  -0.022  0.00  0.00    +0.025 A 
ATOM      7  C   UNL     1       0.170  -7.034  -0.044  0.00  0.00    +0.002 A 
ATOM      8  C   UNL     1       0.229  -8.415  -0.089  0.00  0.00    +0.000 A 
ATOM      9  C   UNL     1       1.454  -9.057  -0.113  0.00  0.00    +0.002 A 
ATOM     10  C   UNL     1       2.622  -8.322  -0.097  0.00  0.00    +0.025 A 
ENDBRANCH   3   5
ENDBRANCH   2   3
BRANCH   1  12
ATOM     11  N   UNL     1       3.557  -2.029  -0.071  0.00  0.00    -0.189 NA
ATOM     12  C   UNL     1       4.712  -2.628  -0.109  0.00  0.00    +0.157 C 
BRANCH  11  13
ATOM     13  N   UNL     1       3.491  -0.631  -0.122  0.00  0.00    -0.238 N 
ATOM     14  H   UNL     1       4.306  -0.109  -0.185  0.00  0.00    +0.174 HD
BRANCH  13  18
ATOM     15  C   UNL     1      -0.203   1.285   0.000  0.00  0.00    +0.000 A 
ATOM     16  C   UNL     1       0.959   2.031  -0.090  0.00  0.00    +0.002 A 
ATOM     17  C   UNL     1       2.186   1.399  -0.131  0.00  0.00    +0.025 A 
ATOM     18  C   UNL     1       2.253   0.011  -0.080  0.00  0.00    +0.048 A 
ATOM     19  C   UNL     1       1.084  -0.735   0.010  0.00  0.00    +0.025 A 
ATOM     20  C   UNL     1      -0.140  -0.096   0.050  0.00  0.00    +0.002 A 
ENDBRANCH  13  18
ENDBRANCH  11  13
ENDBRANCH   1  12
BRANCH   1  21
ATOM     21  C   UNL     1       6.118  -4.781  -0.101  0.00  0.00    +0.197 C 
BRANCH  21  22
ATOM     22  O   UNL     1       7.007  -4.048  -0.946  0.00  0.00    -0.383 OA
ATOM     23  H   UNL     1       7.166  -3.139  -0.656  0.00  0.00    +0.210 HD
ENDBRANCH  21  22
BRANCH  21  24
ATOM     24  C   UNL     1       6.702  -4.854   1.311  0.00  0.00    +0.180 C 
BRANCH  24  25
ATOM     25  O   UNL     1       5.767  -5.498   2.180  0.00  0.00    -0.386 OA
ATOM     26  H   UNL     1       5.543  -6.401   1.917  0.00  0.00    +0.210 HD
ENDBRANCH  24  25
BRANCH  24  27
ATOM     27  C   UNL     1       8.006  -5.654   1.283  0.00  0.00    +0.177 C 
BRANCH  27  28
ATOM     28  O   UNL     1       7.766  -6.936   0.698  0.00  0.00    -0.386 OA
ATOM     29  H   UNL     1       7.115  -7.469   1.173  0.00  0.00    +0.210 HD
ENDBRANCH  27  28
BRANCH  27  30
ATOM     30  C   UNL     1       8.525  -5.834   2.711  0.00  0.00    +0.176 C 
BRANCH  30  31
ATOM     31  O   UNL     1       8.764  -4.552   3.296  0.00  0.00    -0.386 OA
ATOM     32  H   UNL     1       9.416  -4.019   2.821  0.00  0.00    +0.210 HD
ENDBRANCH  30  31
BRANCH  30  33
ATOM     33  C   UNL     1       9.829  -6.633   2.683  0.00  0.00    +0.171 C 
BRANCH  33  34
ATOM     34  O   UNL     1       9.589  -7.915   2.099  0.00  0.00    -0.387 OA
ATOM     35  H   UNL     1       8.938  -8.449   2.574  0.00  0.00    +0.210 HD
ENDBRANCH  33  34
BRANCH  33  36
ATOM     36  C   UNL     1      10.347  -6.813   4.111  0.00  0.00    +0.189 C 
BRANCH  36  37
ATOM     37  O   UNL     1      11.622  -7.458   4.077  0.00  0.00    -0.392 OA
ATOM     38  H   UNL     1      12.012  -7.604   4.950  0.00  0.00    +0.210 HD
ENDBRANCH  36  37
ENDBRANCH  33  36
ENDBRANCH  30  33
ENDBRANCH  27  30
ENDBRANCH  24  27
ENDBRANCH  21  24
ENDBRANCH   1  21
TORSDOF 17
