REMARK  Name = ZINC22073854
REMARK  9 active torsions:
REMARK  status: ('A' for Active; 'I' for Inactive)
REMARK    1  A    between atoms: C_1  and  C_2
REMARK    2  A    between atoms: C_2  and  O_3
REMARK    3  A    between atoms: O_3  and  C_4
REMARK    4  A    between atoms: C_6  and  C_16
REMARK    5  A    between atoms: C_9  and  O_10
REMARK    6  A    between atoms: O_10  and  C_11
REMARK    7  A    between atoms: C_11  and  C_12
REMARK    8  A    between atoms: C_16  and  N_17
REMARK    9  A    between atoms: N_17  and  C_18
REMARK                            x       y       z     vdW  Elec       q    Type
REMARK                         _______ _______ _______ _____ _____    ______ ____
ROOT
ATOM      1  C   UNL     1      -0.561   0.005   2.998  0.00  0.00    +0.163 A 
ATOM      2  C   UNL     1      -0.011  -0.365   4.215  0.00  0.00    +0.051 A 
ATOM      3  C   UNL     1       0.938   0.440   4.818  0.00  0.00    -0.060 A 
ATOM      4  C   UNL     1       1.344   1.611   4.208  0.00  0.00    +0.021 A 
ATOM      5  C   UNL     1       0.803   1.984   2.991  0.00  0.00    +0.063 A 
ATOM      6  C   UNL     1      -0.148   1.182   2.381  0.00  0.00    +0.176 A 
ATOM      7 BR   UNL     1       1.361   3.589   2.160  0.00  0.00    -0.046 Br
ENDROOT
BRANCH   1   8
ATOM      8  O   UNL     1      -1.498  -0.782   2.406  0.00  0.00    -0.489 OA
BRANCH   8  10
ATOM      9  C   UNL     1      -2.931  -2.725   2.284  0.00  0.00    +0.048 C 
ATOM     10  C   UNL     1      -1.874  -1.975   3.098  0.00  0.00    +0.226 C 
ENDBRANCH   8  10
ENDBRANCH   1   8
BRANCH   6  11
ATOM     11  O   UNL     1      -0.682   1.547   1.184  0.00  0.00    -0.478 OA
BRANCH  11  12
ATOM     12  C   UNL     1      -0.013   1.086   0.008  0.00  0.00    +0.324 C 
BRANCH  12  13
ATOM     13  C   UNL     1      -0.742   1.585  -1.213  0.00  0.00    +0.248 C 
ATOM     14  O   UNL     1      -1.736   2.268  -1.088  0.00  0.00    -0.272 OA
ATOM     15  N   UNL     1      -0.288   1.272  -2.443  0.00  0.00    -0.327 N 
ATOM     16  H   UNL     1      -0.820   1.637  -3.334  0.00  0.00    +0.145 HD
ATOM     17  H   UNL     1       0.614   0.653  -2.556  0.00  0.00    +0.145 HD
ENDBRANCH  12  13
ENDBRANCH  11  12
ENDBRANCH   6  11
BRANCH   3  18
ATOM     18  C   UNL     1       1.530   0.038   6.145  0.00  0.00    -0.046 C 
BRANCH  18  19
ATOM     19  N   UNL     1       0.717   0.599   7.233  0.00  0.00    +0.384 N 
ATOM     20  H   UNL     1       0.705   1.696   7.154  0.00  0.00    -0.085 HD
ATOM     21  H   UNL     1      -0.310   0.214   7.159  0.00  0.00    -0.085 HD
BRANCH  19  22
ATOM     22  C   UNL     1       1.266   0.228   8.544  0.00  0.00    -0.065 C 
ATOM     23  C   UNL     1       0.736  -1.150   8.947  0.00  0.00    -0.024 C 
ATOM     24  C   UNL     1       1.307  -1.537  10.313  0.00  0.00    +0.005 C 
ATOM     25  C   UNL     1       0.881  -0.502  11.356  0.00  0.00    -0.010 C 
ATOM     26  C   UNL     1      -0.647  -0.458  11.435  0.00  0.00    +0.007 C 
ATOM     27  C   UNL     1      -1.218  -0.071  10.070  0.00  0.00    -0.010 C 
ATOM     28  C   UNL     1      -0.791  -1.106   9.027  0.00  0.00    +0.005 C 
ATOM     29  C   UNL     1      -0.688   1.306   9.667  0.00  0.00    +0.005 C 
ATOM     30  C   UNL     1       0.839   1.262   9.587  0.00  0.00    -0.024 C 
ATOM     31  C   UNL     1       1.410   0.876  10.953  0.00  0.00    +0.005 C 
ENDBRANCH  19  22
ENDBRANCH  18  19
ENDBRANCH   3  18
TORSDOF 8
