REMARK  Name = ZINC06821166
REMARK  13 active torsions:
REMARK  status: ('A' for Active; 'I' for Inactive)
REMARK    1  A    between atoms: C_1  and  C_2
REMARK    2  A    between atoms: C_2  and  C_3
REMARK    3  A    between atoms: C_3  and  C_5
REMARK    4  A    between atoms: C_3  and  N_13
REMARK    5  A    between atoms: N_7  and  C_8
REMARK    6  A    between atoms: C_8  and  C_9
REMARK    7  A    between atoms: C_9  and  C_10
REMARK    8  A    between atoms: C_10  and  C_11
REMARK    9  A    between atoms: C_10  and  C_12
REMARK   10  A    between atoms: N_13  and  C_14
REMARK   11  A    between atoms: C_22  and  C_24
REMARK   12  A    between atoms: C_25  and  N_32
REMARK   13  A    between atoms: C_26  and  C_29
REMARK                            x       y       z     vdW  Elec       q    Type
REMARK                         _______ _______ _______ _____ _____    ______ ____
ROOT
ATOM      1  N   UNL     1      -3.656   1.833   0.002  0.00  0.00    -0.255 N 
ATOM      2  C   UNL     1      -4.723   1.502  -0.752  0.00  0.00    +0.261 C 
ATOM      3  O   UNL     1      -4.577   0.802  -1.738  0.00  0.00    -0.269 OA
ENDROOT
BRANCH   1   4
ATOM      4  C   UNL     1      -3.801   2.738   1.060  0.00  0.00    +0.039 A 
ATOM      5  C   UNL     1      -3.663   2.303   2.372  0.00  0.00    +0.026 A 
ATOM      6  C   UNL     1      -3.805   3.197   3.414  0.00  0.00    +0.041 A 
ATOM      7  C   UNL     1      -4.086   4.528   3.153  0.00  0.00    +0.142 A 
ATOM      8  C   UNL     1      -4.224   4.965   1.845  0.00  0.00    +0.078 A 
ATOM      9  C   UNL     1      -4.077   4.074   0.799  0.00  0.00    +0.046 A 
ATOM     10 CL   UNL     1      -4.575   6.634   1.521  0.00  0.00    -0.081 Cl
ATOM     11  F   UNL     1      -4.226   5.401   4.174  0.00  0.00    -0.204 F 
ENDBRANCH   1   4
BRANCH   2  12
ATOM     12  C   UNL     1      -6.056   1.983  -0.386  0.00  0.00    +0.116 A 
ATOM     13  C   UNL     1      -7.261   1.864  -1.080  0.00  0.00    +0.076 A 
ATOM     14  C   UNL     1      -8.328   2.456  -0.404  0.00  0.00    +0.155 A 
ATOM     15  N   UNL     1      -8.112   3.037   0.755  0.00  0.00    -0.203 NA
ATOM     16  S   UNL     1      -6.576   2.871   1.067  0.00  0.00    +0.019 S 
BRANCH  14  17
ATOM     17  C   UNL     1      -9.683   2.431  -0.984  0.00  0.00    +0.262 C 
ATOM     18  O   UNL     1      -9.876   1.893  -2.057  0.00  0.00    -0.269 OA
ATOM     19  N   UNL     1     -10.709   3.006  -0.324  0.00  0.00    -0.324 N 
ATOM     20  H   UNL     1     -10.555   3.436   0.532  0.00  0.00    +0.145 HD
ATOM     21  H   UNL     1     -11.601   2.989  -0.705  0.00  0.00    +0.145 HD
ENDBRANCH  14  17
BRANCH  13  22
ATOM     22  N   UNL     1      -7.385   1.227  -2.308  0.00  0.00    -0.355 N 
ATOM     23  H   UNL     1      -6.605   0.833  -2.731  0.00  0.00    +0.142 HD
ATOM     24  H   UNL     1      -8.250   1.176  -2.743  0.00  0.00    +0.142 HD
ENDBRANCH  13  22
ENDBRANCH   2  12
BRANCH   1  25
ATOM     25  C   UNL     1      -2.345   1.246  -0.285  0.00  0.00    +0.167 C 
BRANCH  25  26
ATOM     26  C   UNL     1      -1.331   2.345  -0.469  0.00  0.00    +0.234 C 
ATOM     27  O   UNL     1      -1.670   3.506  -0.369  0.00  0.00    -0.274 OA
ATOM     28  N   UNL     1      -0.048   2.040  -0.743  0.00  0.00    -0.314 N 
ATOM     29  H   UNL     1       0.224   1.112  -0.822  0.00  0.00    +0.149 HD
BRANCH  28  30
ATOM     30  C   UNL     1       0.937   3.109  -0.928  0.00  0.00    +0.104 C 
BRANCH  30  31
ATOM     31  C   UNL     1       2.305   2.496  -1.233  0.00  0.00    +0.022 C 
BRANCH  31  32
ATOM     32  C   UNL     1       3.333   3.612  -1.426  0.00  0.00    -0.016 C 
ATOM     33  C   UNL     1       3.514   4.371  -0.110  0.00  0.00    +0.007 C 
ATOM     34  C   UNL     1       4.671   3.006  -1.853  0.00  0.00    +0.007 C 
ENDBRANCH  31  32
ENDBRANCH  30  31
ENDBRANCH  28  30
ENDBRANCH  25  26
BRANCH  25  36
ATOM     35  C   UNL     1      -2.896  -0.822   1.005  0.00  0.00    +0.006 C 
ATOM     36  C   UNL     1      -1.921   0.351   0.881  0.00  0.00    +0.029 C 
ENDBRANCH  25  36
ENDBRANCH   1  25
TORSDOF 10
