REMARK  Name = ZINC40298942
REMARK  7 active torsions:
REMARK  status: ('A' for Active; 'I' for Inactive)
REMARK    1  A    between atoms: C_1  and  C_2
REMARK    2  A    between atoms: C_2  and  C_4
REMARK    3  A    between atoms: C_2  and  N_24
REMARK    4  A    between atoms: N_12  and  C_13
REMARK    5  A    between atoms: C_13  and  C_14
REMARK    6  A    between atoms: N_16  and  C_17
REMARK    7  A    between atoms: C_25  and  C_27
REMARK                            x       y       z     vdW  Elec       q    Type
REMARK                         _______ _______ _______ _____ _____    ______ ____
ROOT
ATOM      1  C   UNL     1      -1.438  -0.530   0.007  0.00  0.00    +0.131 A 
ATOM      2  N   UNL     1      -2.227  -0.534   1.042  0.00  0.00    -0.230 NA
ATOM      3  C   UNL     1      -3.422  -1.084   0.703  0.00  0.00    +0.089 A 
ATOM      4  C   UNL     1      -4.603  -1.332   1.406  0.00  0.00    +0.030 A 
ATOM      5  C   UNL     1      -5.663  -1.915   0.773  0.00  0.00    +0.002 A 
ATOM      6  C   UNL     1      -5.581  -2.266  -0.567  0.00  0.00    +0.002 A 
ATOM      7  C   UNL     1      -4.426  -2.031  -1.282  0.00  0.00    +0.028 A 
ATOM      8  C   UNL     1      -3.338  -1.439  -0.654  0.00  0.00    +0.069 A 
ATOM      9  N   UNL     1      -2.073  -1.071  -1.067  0.00  0.00    -0.317 N 
ENDROOT
BRANCH   1  11
ATOM     10  C   UNL     1      -0.060   1.532   0.006  0.00  0.00    +0.036 C 
ATOM     11  C   UNL     1      -0.028   0.002  -0.001  0.00  0.00    +0.136 C 
BRANCH  11  12
ATOM     12  N   UNL     1       0.681  -0.477   1.188  0.00  0.00    -0.299 N 
ATOM     13  C   UNL     1       2.025  -0.577   1.176  0.00  0.00    +0.280 C 
ATOM     14  O   UNL     1       2.649  -0.270   0.177  0.00  0.00    -0.267 OA
ATOM     15  H   UNL     1       0.184  -0.721   1.984  0.00  0.00    +0.150 HD
BRANCH  13  16
ATOM     16  C   UNL     1       2.736  -1.056   2.366  0.00  0.00    +0.189 A 
ATOM     17  C   UNL     1       4.088  -1.200   2.490  0.00  0.00    +0.054 A 
ATOM     18  C   UNL     1       4.325  -1.682   3.787  0.00  0.00    +0.042 A 
ATOM     19  C   UNL     1       3.123  -1.809   4.390  0.00  0.00    +0.196 A 
ATOM     20  O   UNL     1       2.168  -1.427   3.533  0.00  0.00    -0.458 OA
ENDBRANCH  13  16
ENDBRANCH  11  12
ENDBRANCH   1  11
BRANCH   9  21
ATOM     21  C   UNL     1      -1.517  -1.235  -2.413  0.00  0.00    +0.219 C 
BRANCH  21  22
ATOM     22  C   UNL     1      -0.838  -2.577  -2.515  0.00  0.00    +0.237 C 
ATOM     23  O   UNL     1      -0.821  -3.323  -1.559  0.00  0.00    -0.274 OA
ATOM     24  N   UNL     1      -0.251  -2.948  -3.670  0.00  0.00    -0.283 N 
ATOM     25  H   UNL     1      -0.320  -2.381  -4.454  0.00  0.00    +0.155 HD
BRANCH  24  26
ATOM     26  C   UNL     1       0.460  -4.152  -3.738  0.00  0.00    +0.052 A 
ATOM     27  C   UNL     1       0.034  -5.254  -3.008  0.00  0.00    +0.025 A 
ATOM     28  C   UNL     1       0.737  -6.441  -3.078  0.00  0.00    +0.002 A 
ATOM     29  C   UNL     1       1.864  -6.533  -3.873  0.00  0.00    +0.002 A 
ATOM     30  C   UNL     1       2.292  -5.439  -4.602  0.00  0.00    +0.022 A 
ATOM     31  C   UNL     1       1.590  -4.249  -4.541  0.00  0.00    +0.062 A 
ATOM     32 CL   UNL     1       2.123  -2.877  -5.462  0.00  0.00    -0.082 Cl
ENDBRANCH  24  26
ENDBRANCH  21  22
ENDBRANCH   9  21
TORSDOF 6
