REMARK  Name = ZINC03978290
REMARK  6 active torsions:
REMARK  status: ('A' for Active; 'I' for Inactive)
REMARK    1  A    between atoms: C_1  and  C_2
REMARK    2  A    between atoms: C_2  and  C_36
REMARK    3  A    between atoms: C_7  and  C_35
REMARK    4  A    between atoms: C_13  and  C_34
REMARK    5  A    between atoms: C_18  and  C_33
REMARK    6  A    between atoms: C_26  and  C_28
REMARK                            x       y       z     vdW  Elec       q    Type
REMARK                         _______ _______ _______ _____ _____    ______ ____
ROOT
ATOM      1  C   UNL     1       0.125   1.358  -0.388  0.00  0.00    +0.015 C 
ATOM      2  C   UNL     1       0.117  -0.171  -0.324  0.00  0.00    -0.012 C 
ATOM      3  C   UNL     1       0.654  -0.713  -1.615  0.00  0.00    -0.017 C 
ATOM      4  C   UNL     1       1.665  -1.567  -1.705  0.00  0.00    +0.043 C 
ATOM      5  C   UNL     1       2.333  -2.011  -0.475  0.00  0.00    +0.162 C 
ATOM      6  O   UNL     1       2.848  -3.093  -0.378  0.00  0.00    -0.292 OA
ATOM      7  C   UNL     1       2.317  -1.005   0.674  0.00  0.00    +0.038 C 
ATOM      8  C   UNL     1       0.835  -0.686   0.906  0.00  0.00    +0.019 C 
ATOM      9  C   UNL     1       0.683   0.253   2.103  0.00  0.00    +0.080 C 
ATOM     10  C   UNL     1       1.267  -0.473   3.308  0.00  0.00    +0.143 C 
ATOM     11  O   UNL     1       0.592  -0.683   4.281  0.00  0.00    -0.297 OA
ATOM     12  C   UNL     1       2.716  -0.906   3.204  0.00  0.00    +0.062 C 
ATOM     13  C   UNL     1       2.892  -1.681   1.908  0.00  0.00    +0.019 C 
ATOM     14  C   UNL     1       4.294  -2.211   1.714  0.00  0.00    +0.006 C 
ATOM     15  C   UNL     1       5.142  -2.211   2.974  0.00  0.00    +0.014 C 
ATOM     16  C   UNL     1       4.374  -2.616   4.226  0.00  0.00    +0.042 C 
ATOM     17  C   UNL     1       3.061  -1.852   4.360  0.00  0.00    +0.128 C 
ATOM     18  C   UNL     1       2.575  -1.459   5.757  0.00  0.00    +0.260 C 
ATOM     19  O   UNL     1       1.983  -2.524   5.019  0.00  0.00    -0.351 OA
ATOM     20  C   UNL     1       3.491  -1.796   6.907  0.00  0.00    +0.340 C 
ATOM     21  O   UNL     1       3.265  -1.374   8.017  0.00  0.00    -0.248 OA
ATOM     22  O   UNL     1       4.558  -2.570   6.674  0.00  0.00    -0.454 OA
ATOM     23  C   UNL     1       5.258  -2.427   5.452  0.00  0.00    +0.218 C 
ATOM     24  C   UNL     1       4.045  -4.115   4.134  0.00  0.00    +0.018 C 
ATOM     25  C   UNL     1       3.600   0.334   3.306  0.00  0.00    +0.022 C 
ATOM     26  C   UNL     1       3.116   0.222   0.244  0.00  0.00    +0.020 C 
ATOM     27  C   UNL     1      -1.359  -0.616  -0.233  0.00  0.00    +0.015 C 
ENDROOT
BRANCH  23  28
ATOM     28  C   UNL     1       6.362  -3.453   5.418  0.00  0.00    +0.031 A 
ATOM     29  C   UNL     1       7.695  -3.242   5.000  0.00  0.00    +0.048 A 
ATOM     30  C   UNL     1       8.336  -4.417   5.132  0.00  0.00    +0.195 A 
ATOM     31  O   UNL     1       7.466  -5.324   5.605  0.00  0.00    -0.471 OA
ATOM     32  C   UNL     1       6.268  -4.743   5.786  0.00  0.00    +0.202 A 
ENDBRANCH  23  28
TORSDOF 1
