REMARK  Name = ZINC33078228
REMARK  4 active torsions:
REMARK  status: ('A' for Active; 'I' for Inactive)
REMARK    1  A    between atoms: C_1  and  C_2
REMARK    2  A    between atoms: C_2  and  C_3
REMARK    3  A    between atoms: C_15  and  C_18
REMARK    4  A    between atoms: N_20  and  C_21
REMARK                            x       y       z     vdW  Elec       q    Type
REMARK                         _______ _______ _______ _____ _____    ______ ____
ROOT
ATOM      1  C   UNL     1       8.887  -5.710  -4.659  0.00  0.00    -0.008 A 
ATOM      2  C   UNL     1       8.149  -5.323  -3.609  0.00  0.00    +0.024 A 
ATOM      3  C   UNL     1       8.557  -5.715  -2.271  0.00  0.00    +0.048 A 
ATOM      4  C   UNL     1       7.951  -5.434  -1.016  0.00  0.00    +0.133 A 
ATOM      5  N   UNL     1       8.511  -5.898   0.089  0.00  0.00    -0.220 NA
ATOM      6  C   UNL     1       9.613  -6.626   0.067  0.00  0.00    +0.224 A 
ATOM      7  N   UNL     1      10.221  -6.920  -1.066  0.00  0.00    -0.228 NA
ATOM      8  C   UNL     1       9.734  -6.493  -2.214  0.00  0.00    +0.113 A 
ATOM      9  S   UNL     1      10.209  -6.647  -3.916  0.00  0.00    -0.074 S 
ATOM     10  N   UNL     1       6.794  -4.679  -0.951  0.00  0.00    -0.315 N 
ATOM     11  C   UNL     1       5.904  -5.171   0.109  0.00  0.00    +0.107 C 
ATOM     12  C   UNL     1       4.577  -4.409   0.057  0.00  0.00    +0.032 C 
ATOM     13  C   UNL     1       4.845  -2.913   0.243  0.00  0.00    +0.078 C 
ATOM     14  C   UNL     1       5.812  -2.437  -0.844  0.00  0.00    +0.032 C 
ATOM     15  C   UNL     1       7.103  -3.255  -0.766  0.00  0.00    +0.107 C 
ENDROOT
BRANCH  13  16
ATOM     16  C   UNL     1       3.549  -2.152   0.134  0.00  0.00    +0.220 C 
ATOM     17  O   UNL     1       2.513  -2.747  -0.073  0.00  0.00    -0.275 OA
ATOM     18  N   UNL     1       3.542  -0.811   0.265  0.00  0.00    -0.285 N 
ATOM     19  H   UNL     1       4.491  -0.263   0.366  0.00  0.00    +0.155 HD
BRANCH  18  20
ATOM     20  C   UNL     1       2.327  -0.114   0.274  0.00  0.00    +0.037 A 
ATOM     21  C   UNL     1       1.194  -0.700   0.822  0.00  0.00    +0.027 A 
ATOM     22  C   UNL     1      -0.005  -0.014   0.829  0.00  0.00    +0.051 A 
ATOM     23  C   UNL     1      -0.081   1.261   0.289  0.00  0.00    +0.162 A 
ATOM     24  C   UNL     1       1.052   1.852  -0.258  0.00  0.00    +0.164 A 
ATOM     25  C   UNL     1       2.255   1.162  -0.266  0.00  0.00    +0.072 A 
ATOM     26  O   UNL     1       0.999   3.106  -0.784  0.00  0.00    -0.485 OA
ATOM     27  C   UNL     1      -0.301   3.619  -1.097  0.00  0.00    +0.270 C 
ATOM     28  C   UNL     1      -1.228   3.336   0.093  0.00  0.00    +0.270 C 
ATOM     29  O   UNL     1      -1.274   1.919   0.298  0.00  0.00    -0.485 OA
ENDBRANCH  18  20
ENDBRANCH  13  16
BRANCH   1  31
ATOM     30  C   UNL     1       9.365  -4.122  -6.503  0.00  0.00    +0.009 C 
ATOM     31  C   UNL     1       8.655  -5.422  -6.120  0.00  0.00    +0.039 C 
ENDBRANCH   1  31
TORSDOF 3
