REMARK  Name = ZINC09478940
REMARK  3 active torsions:
REMARK  status: ('A' for Active; 'I' for Inactive)
REMARK    1  A    between atoms: C_1  and  C_2
REMARK    2  A    between atoms: C_4  and  C_34
REMARK    3  A    between atoms: N_20  and  C_23
REMARK                            x       y       z     vdW  Elec       q    Type
REMARK                         _______ _______ _______ _____ _____    ______ ____
ROOT
ATOM      1  C   UNL     1      -2.497   6.891  -2.335  0.00  0.00    +0.044 C 
ATOM      2  C   UNL     1      -1.655   5.771  -2.889  0.00  0.00    -0.050 A 
ATOM      3  C   UNL     1      -1.369   5.722  -4.241  0.00  0.00    +0.008 A 
ATOM      4  C   UNL     1      -0.598   4.699  -4.753  0.00  0.00    -0.029 A 
ATOM      5  C   UNL     1      -0.102   3.706  -3.911  0.00  0.00    +0.039 A 
ATOM      6  C   UNL     1      -0.397   3.766  -2.552  0.00  0.00    -0.027 A 
ATOM      7  C   UNL     1      -1.167   4.789  -2.045  0.00  0.00    +0.008 A 
ATOM      8  C   UNL     1       0.273   2.572  -1.933  0.00  0.00    +0.053 C 
ATOM      9  C   UNL     1      -0.742   1.656  -1.239  0.00  0.00    +0.089 C 
ATOM     10  C   UNL     1       0.007   1.113   0.009  0.00  0.00    +0.074 C 
ATOM     11  C   UNL     1       1.405   1.756  -0.048  0.00  0.00    -0.054 C 
ATOM     12  C   UNL     1       0.627   3.978   0.043  0.00  0.00    -0.076 C 
ATOM     13  C   UNL     1       1.296   3.726   1.409  0.00  0.00    -0.020 C 
ATOM     14  C   UNL     1       1.787   2.266   1.354  0.00  0.00    -0.016 C 
ATOM     15  C   UNL     1      -0.764   1.688   1.175  0.00  0.00    +0.228 C 
ATOM     16  O   UNL     1      -0.501   1.511   2.345  0.00  0.00    -0.275 OA
ATOM     17  N   UNL     1      -1.791   2.423   0.692  0.00  0.00    -0.210 N 
ATOM     18  C   UNL     1      -1.865   2.475  -0.643  0.00  0.00    +0.229 C 
ATOM     19  O   UNL     1      -2.701   3.082  -1.276  0.00  0.00    -0.275 OA
ATOM     20  C   UNL     1       0.953   1.869  -3.077  0.00  0.00    +0.212 C 
ATOM     21  O   UNL     1       1.611   0.852  -3.014  0.00  0.00    -0.277 OA
ATOM     22  N   UNL     1       0.688   2.588  -4.185  0.00  0.00    -0.286 N 
ATOM     23  C   UNL     1      -0.293   4.654  -6.228  0.00  0.00    +0.045 C 
ATOM     24  H   UNL     1       1.009   2.356  -5.070  0.00  0.00    +0.155 HD
ATOM     25  N   UNL     1       1.213   2.936  -0.847  0.00  0.00    +0.395 N 
ATOM     26  H   UNL     1       2.102   3.265  -1.242  0.00  0.00    -0.079 HD
ENDROOT
BRANCH  17  27
ATOM     27  C   UNL     1      -2.701   3.087   1.527  0.00  0.00    +0.047 A 
ATOM     28  C   UNL     1      -3.587   2.357   2.308  0.00  0.00    +0.044 A 
ATOM     29  C   UNL     1      -4.481   3.014   3.134  0.00  0.00    +0.044 A 
ATOM     30  C   UNL     1      -4.499   4.397   3.176  0.00  0.00    +0.040 A 
ATOM     31  C   UNL     1      -3.620   5.126   2.394  0.00  0.00    +0.044 A 
ATOM     32  C   UNL     1      -2.722   4.474   1.570  0.00  0.00    +0.044 A 
ATOM     33 CL   UNL     1      -3.647   6.861   2.448  0.00  0.00    -0.083 Cl
ATOM     34 CL   UNL     1      -5.584   2.102   4.117  0.00  0.00    -0.083 Cl
ENDBRANCH  17  27
TORSDOF 1
