REMARK  Name = ZINC40020056
REMARK  17 active torsions:
REMARK  status: ('A' for Active; 'I' for Inactive)
REMARK    1  A    between atoms: C_1  and  C_2
REMARK    2  A    between atoms: C_2  and  C_3
REMARK    3  A    between atoms: C_3  and  C_4
REMARK    4  A    between atoms: C_4  and  N_5
REMARK    5  A    between atoms: N_5  and  C_6
REMARK    6  A    between atoms: N_5  and  C_10
REMARK    7  A    between atoms: C_6  and  C_7
REMARK    8  A    between atoms: C_7  and  C_8
REMARK    9  A    between atoms: C_8  and  C_9
REMARK   10  A    between atoms: C_10  and  C_11
REMARK   11  A    between atoms: C_11  and  C_12
REMARK   12  A    between atoms: C_12  and  N_13
REMARK   13  A    between atoms: C_14  and  C_31
REMARK   14  A    between atoms: C_16  and  C_21
REMARK   15  A    between atoms: C_21  and  C_23
REMARK   16  A    between atoms: C_26  and  C_30
REMARK   17  A    between atoms: C_32  and  C_33
REMARK                            x       y       z     vdW  Elec       q    Type
REMARK                         _______ _______ _______ _____ _____    ______ ____
ROOT
ATOM      1  N   UNL     1      -2.156  -5.788  -4.060  0.00  0.00    -0.284 N 
ATOM      2  C   UNL     1      -3.007  -6.557  -3.145  0.00  0.00    +0.138 C 
ATOM      3  C   UNL     1      -4.060  -7.218  -4.003  0.00  0.00    +0.076 C 
ATOM      4  C   UNL     1      -3.812  -6.847  -5.281  0.00  0.00    +0.249 C 
ATOM      5  C   UNL     1      -2.632  -5.956  -5.307  0.00  0.00    +0.288 C 
ATOM      6  O   UNL     1      -2.161  -5.451  -6.307  0.00  0.00    -0.266 OA
ATOM      7  O   UNL     1      -4.531  -7.227  -6.362  0.00  0.00    -0.282 OA
ENDROOT
BRANCH   3   8
ATOM      8  C   UNL     1      -5.142  -8.093  -3.542  0.00  0.00    +0.195 C 
ATOM      9  O   UNL     1      -6.300  -7.732  -3.639  0.00  0.00    -0.287 OA
BRANCH   8  10
ATOM     10  C   UNL     1      -4.826  -9.414  -2.958  0.00  0.00    +0.025 A 
ATOM     11  C   UNL     1      -3.500  -9.847  -2.879  0.00  0.00    +0.012 A 
ATOM     12  C   UNL     1      -3.211 -11.080  -2.334  0.00  0.00    +0.007 A 
ATOM     13  C   UNL     1      -4.231 -11.890  -1.865  0.00  0.00    -0.015 A 
ATOM     14  C   UNL     1      -5.549 -11.468  -1.940  0.00  0.00    +0.127 A 
ATOM     15  C   UNL     1      -5.851 -10.232  -2.479  0.00  0.00    +0.050 A 
ATOM     16  F   UNL     1      -6.539 -12.263  -1.480  0.00  0.00    -0.205 F 
ATOM     17  C   UNL     1      -3.907 -13.236  -1.270  0.00  0.00    +0.047 C 
ENDBRANCH   8  10
ENDBRANCH   3   8
BRANCH   2  18
ATOM     18  C   UNL     1      -3.656  -5.635  -2.144  0.00  0.00    +0.001 C 
ATOM     19  C   UNL     1      -3.414  -5.786  -0.850  0.00  0.00    +0.006 C 
BRANCH  19  20
ATOM     20  C   UNL     1      -4.142  -4.963   0.139  0.00  0.00    -0.025 A 
ATOM     21  C   UNL     1      -5.089  -4.031  -0.286  0.00  0.00    +0.008 A 
ATOM     22  C   UNL     1      -5.766  -3.267   0.642  0.00  0.00    +0.001 A 
ATOM     23  C   UNL     1      -5.506  -3.422   1.992  0.00  0.00    +0.000 A 
ATOM     24  C   UNL     1      -4.568  -4.344   2.420  0.00  0.00    +0.001 A 
ATOM     25  C   UNL     1      -3.889  -5.120   1.502  0.00  0.00    +0.008 A 
ENDBRANCH  19  20
ENDBRANCH   2  18
BRANCH   1  26
ATOM     26  C   UNL     1      -0.996  -4.977  -3.682  0.00  0.00    +0.107 C 
BRANCH  26  27
ATOM     27  C   UNL     1      -1.451  -3.548  -3.377  0.00  0.00    +0.000 C 
BRANCH  27  28
ATOM     28  C   UNL     1      -0.239  -2.701  -2.983  0.00  0.00    -0.077 C 
BRANCH  28  29
ATOM     29  N   UNL     1      -0.676  -1.329  -2.690  0.00  0.00    +0.380 N 
ATOM     30  H   UNL     1      -1.183  -0.962  -3.481  0.00  0.00    -0.082 HD
BRANCH  29  31
ATOM     31  C   UNL     1      -1.548  -1.334  -1.508  0.00  0.00    -0.079 C 
BRANCH  31  32
ATOM     32  C   UNL     1      -2.125   0.066  -1.294  0.00  0.00    -0.019 C 
BRANCH  32  34
ATOM     33  C   UNL     1      -3.713   1.432   0.069  0.00  0.00    +0.004 C 
ATOM     34  C   UNL     1      -3.136   0.031  -0.146  0.00  0.00    -0.005 C 
ENDBRANCH  32  34
ENDBRANCH  31  32
ENDBRANCH  29  31
BRANCH  29  35
ATOM     35  C   UNL     1       0.499  -0.487  -2.428  0.00  0.00    -0.079 C 
BRANCH  35  36
ATOM     36  C   UNL     1       1.328  -0.355  -3.707  0.00  0.00    -0.019 C 
BRANCH  36  37
ATOM     37  C   UNL     1       2.476   0.628  -3.472  0.00  0.00    -0.005 C 
ATOM     38  C   UNL     1       3.305   0.759  -4.751  0.00  0.00    +0.004 C 
ENDBRANCH  36  37
ENDBRANCH  35  36
ENDBRANCH  29  35
ENDBRANCH  28  29
ENDBRANCH  27  28
ENDBRANCH  26  27
ENDBRANCH   1  26
TORSDOF 14
