REMARK  Name = ZINC39937114
REMARK  11 active torsions:
REMARK  status: ('A' for Active; 'I' for Inactive)
REMARK    1  A    between atoms: C_1  and  O_2
REMARK    2  A    between atoms: O_2  and  C_3
REMARK    3  A    between atoms: C_8  and  O_9
REMARK    4  A    between atoms: O_9  and  C_10
REMARK    5  A    between atoms: C_12  and  O_25
REMARK    6  A    between atoms: C_14  and  O_24
REMARK    7  A    between atoms: C_16  and  O_23
REMARK    8  A    between atoms: C_18  and  C_21
REMARK    9  A    between atoms: C_21  and  O_22
REMARK   10  A    between atoms: C_28  and  C_31
REMARK   11  A    between atoms: C_34  and  O_37
REMARK                            x       y       z     vdW  Elec       q    Type
REMARK                         _______ _______ _______ _____ _____    ______ ____
ROOT
ATOM      1  C   UNL     1      -1.201  -0.638   0.010  0.00  0.00    +0.163 A 
ATOM      2  C   UNL     1      -2.368   0.098   0.019  0.00  0.00    +0.064 A 
ATOM      3  C   UNL     1      -3.597  -0.562   0.029  0.00  0.00    +0.068 A 
ATOM      4  C   UNL     1      -3.655  -1.966   0.034  0.00  0.00    +0.142 A 
ATOM      5  C   UNL     1      -2.471  -2.693   0.020  0.00  0.00    +0.096 A 
ATOM      6  C   UNL     1      -1.255  -2.034   0.003  0.00  0.00    +0.169 A 
ATOM      7  O   UNL     1      -4.846  -2.598   0.058  0.00  0.00    -0.462 OA
ATOM      8  C   UNL     1      -5.984  -1.962  -0.224  0.00  0.00    +0.208 A 
ATOM      9  C   UNL     1      -6.083  -0.607  -0.250  0.00  0.00    +0.064 A 
ATOM     10  C   UNL     1      -4.870   0.184   0.030  0.00  0.00    +0.200 A 
ATOM     11  O   UNL     1      -4.917   1.383   0.250  0.00  0.00    -0.286 OA
ENDROOT
BRANCH   9  12
ATOM     12  C   UNL     1      -7.374   0.058  -0.553  0.00  0.00    -0.011 A 
ATOM     13  C   UNL     1      -7.513   0.819  -1.712  0.00  0.00    +0.012 A 
ATOM     14  C   UNL     1      -8.715   1.436  -1.990  0.00  0.00    +0.046 A 
ATOM     15  C   UNL     1      -9.785   1.300  -1.117  0.00  0.00    +0.117 A 
ATOM     16  C   UNL     1      -9.650   0.542   0.038  0.00  0.00    +0.046 A 
ATOM     17  C   UNL     1      -8.453  -0.083   0.319  0.00  0.00    +0.012 A 
BRANCH  15  18
ATOM     18  O   UNL     1     -10.968   1.909  -1.394  0.00  0.00    -0.507 OA
ATOM     19  H   UNL     1     -11.577   1.367  -1.914  0.00  0.00    +0.292 HD
ENDBRANCH  15  18
ENDBRANCH   9  12
BRANCH   1  21
ATOM     20  C   UNL     1      -0.017   1.425   0.010  0.00  0.00    +0.277 C 
ATOM     21  O   UNL     1       0.002  -0.004   0.002  0.00  0.00    -0.491 OA
ENDBRANCH   1  21
BRANCH   6  22
ATOM     22  O   UNL     1      -0.102  -2.752  -0.015  0.00  0.00    -0.457 OA
BRANCH  22  23
ATOM     23  C   UNL     1      -0.224  -4.176  -0.021  0.00  0.00    +0.339 C 
ATOM     24  C   UNL     1       1.164  -4.806  -0.167  0.00  0.00    +0.214 C 
ATOM     25  C   UNL     1       1.032  -6.331  -0.113  0.00  0.00    +0.180 C 
ATOM     26  C   UNL     1       0.348  -6.727   1.200  0.00  0.00    +0.177 C 
ATOM     27  C   UNL     1      -1.008  -6.022   1.293  0.00  0.00    +0.179 C 
ATOM     28  O   UNL     1      -0.816  -4.609   1.205  0.00  0.00    -0.331 OA
BRANCH  26  29
ATOM     29  O   UNL     1       0.155  -8.142   1.230  0.00  0.00    -0.386 OA
ATOM     30  H   UNL     1       0.975  -8.652   1.171  0.00  0.00    +0.210 HD
ENDBRANCH  26  29
BRANCH  25  31
ATOM     31  O   UNL     1       2.329  -6.926  -0.176  0.00  0.00    -0.386 OA
ATOM     32  H   UNL     1       2.821  -6.712  -0.981  0.00  0.00    +0.210 HD
ENDBRANCH  25  31
BRANCH  24  33
ATOM     33  O   UNL     1       2.005  -4.360   0.898  0.00  0.00    -0.383 OA
ATOM     34  H   UNL     1       2.129  -3.401   0.926  0.00  0.00    +0.210 HD
ENDBRANCH  24  33
BRANCH  27  35
ATOM     35  C   UNL     1      -1.670  -6.365   2.629  0.00  0.00    +0.190 C 
BRANCH  35  36
ATOM     36  O   UNL     1      -2.984  -5.803   2.667  0.00  0.00    -0.392 OA
ATOM     37  H   UNL     1      -3.464  -5.981   3.487  0.00  0.00    +0.210 HD
ENDBRANCH  35  36
ENDBRANCH  27  35
ENDBRANCH  22  23
ENDBRANCH   6  22
TORSDOF 10
