REMARK  Name = ZINC59302192
REMARK  9 active torsions:
REMARK  status: ('A' for Active; 'I' for Inactive)
REMARK    1  A    between atoms: C_1  and  C_2
REMARK    2  A    between atoms: C_7  and  N_8
REMARK    3  A    between atoms: N_11  and  N_12
REMARK    4  A    between atoms: C_13  and  C_14
REMARK    5  A    between atoms: C_16  and  C_32
REMARK    6  A    between atoms: N_17  and  C_20
REMARK    7  A    between atoms: C_18  and  C_19
REMARK    8  A    between atoms: C_22  and  C_29
REMARK    9  A    between atoms: C_24  and  C_26
REMARK                            x       y       z     vdW  Elec       q    Type
REMARK                         _______ _______ _______ _____ _____    ______ ____
ROOT
ATOM      1  C   UNL     1      -0.288   3.492   5.879  0.00  0.00    +0.016 A 
ATOM      2  C   UNL     1      -0.384   4.365   7.052  0.00  0.00    +0.032 A 
ATOM      3  C   UNL     1      -0.366   5.630   6.593  0.00  0.00    +0.022 A 
ATOM      4  N   UNL     1      -0.267   5.604   5.231  0.00  0.00    -0.317 N 
ATOM      5  C   UNL     1      -0.214   4.316   4.793  0.00  0.00    +0.030 A 
ATOM      6  C   UNL     1      -0.098   3.876   3.357  0.00  0.00    +0.064 C 
ATOM      7  C   UNL     1      -0.443   6.872   7.442  0.00  0.00    +0.064 C 
ENDROOT
BRANCH   4   8
ATOM      8  C   UNL     1      -0.222   6.737   4.406  0.00  0.00    +0.048 A 
ATOM      9  C   UNL     1      -1.255   6.985   3.516  0.00  0.00    +0.041 A 
ATOM     10  C   UNL     1      -1.214   8.113   2.691  0.00  0.00    +0.066 A 
ATOM     11  C   UNL     1      -0.132   8.989   2.765  0.00  0.00    +0.030 A 
ATOM     12  C   UNL     1       0.905   8.735   3.662  0.00  0.00    +0.066 A 
ATOM     13  C   UNL     1       0.854   7.608   4.487  0.00  0.00    +0.041 A 
BRANCH  12  14
ATOM     14  C   UNL     1       2.053   9.659   3.745  0.00  0.00    +0.387 C 
ATOM     15  O   UNL     1       2.095  10.648   3.026  0.00  0.00    -0.241 OA
ATOM     16  O   UNL     1       2.962   9.436   4.532  0.00  0.00    -0.241 OA
ENDBRANCH  12  14
BRANCH  10  17
ATOM     17  C   UNL     1      -2.314   8.376   1.744  0.00  0.00    +0.387 C 
ATOM     18  O   UNL     1      -3.263   7.607   1.679  0.00  0.00    -0.241 OA
ATOM     19  O   UNL     1      -2.277   9.363   1.022  0.00  0.00    -0.241 OA
ENDBRANCH  10  17
ENDBRANCH   4   8
BRANCH   1  21
ATOM     20  N   UNL     1      -0.173   1.374   4.750  0.00  0.00    -0.186 NA
ATOM     21  C   UNL     1      -0.269   2.018   5.873  0.00  0.00    +0.140 C 
BRANCH  20  25
ATOM     22  N   UNL     1       0.026  -0.015   2.417  0.00  0.00    -0.268 N 
ATOM     23  C   UNL     1      -0.056  -0.694   3.578  0.00  0.00    +0.323 C 
ATOM     24  O   UNL     1      -0.040  -1.910   3.573  0.00  0.00    -0.251 OA
ATOM     25  N   UNL     1      -0.155  -0.026   4.744  0.00  0.00    -0.191 N 
ATOM     26  H   UNL     1       0.079   0.954   2.425  0.00  0.00    +0.156 HD
ATOM     27  H   UNL     1      -0.214  -0.516   5.580  0.00  0.00    +0.179 HD
BRANCH  22  34
ATOM     28  C   UNL     1      -1.267   1.183   0.182  0.00  0.00    +0.045 C 
ATOM     29  C   UNL     1      -0.585  -0.158   0.085  0.00  0.00    -0.029 A 
ATOM     30  C   UNL     1      -0.570  -0.840  -1.116  0.00  0.00    +0.005 A 
ATOM     31  C   UNL     1       0.054  -2.071  -1.206  0.00  0.00    +0.000 A 
ATOM     32  C   UNL     1       0.666  -2.622  -0.095  0.00  0.00    +0.002 A 
ATOM     33  C   UNL     1       0.655  -1.945   1.108  0.00  0.00    +0.023 A 
ATOM     34  C   UNL     1       0.034  -0.706   1.201  0.00  0.00    +0.038 A 
ENDBRANCH  22  34
ENDBRANCH  20  25
ENDBRANCH   1  21
TORSDOF 6
