REMARK  Name = ZINC32819362
REMARK  5 active torsions:
REMARK  status: ('A' for Active; 'I' for Inactive)
REMARK    1  A    between atoms: C_1  and  C_2
REMARK    2  A    between atoms: C_4  and  O_5
REMARK    3  A    between atoms: N_13  and  C_14
REMARK    4  A    between atoms: C_14  and  C_15
REMARK    5  A    between atoms: C_21  and  C_23
REMARK                            x       y       z     vdW  Elec       q    Type
REMARK                         _______ _______ _______ _____ _____    ______ ____
ROOT
ATOM      1  C   UNL     1      -1.627   3.991  -1.556  0.00  0.00    +0.235 C 
ATOM      2  O   UNL     1      -1.985   5.049  -1.083  0.00  0.00    -0.274 OA
ATOM      3  N   UNL     1      -1.288   2.970  -0.744  0.00  0.00    -0.293 N 
ATOM      4  C   UNL     1      -0.838   1.637  -1.182  0.00  0.00    +0.108 C 
ATOM      5  C   UNL     1      -0.013   1.086   0.008  0.00  0.00    +0.021 C 
ATOM      6  C   UNL     1      -0.816   1.624   1.221  0.00  0.00    +0.029 C 
ATOM      7  C   UNL     1      -1.307   3.002   0.726  0.00  0.00    +0.106 C 
ENDROOT
BRANCH   7   8
ATOM      8  C   UNL     1      -2.709   3.253   1.216  0.00  0.00    -0.023 A 
ATOM      9  C   UNL     1      -3.779   2.643   0.587  0.00  0.00    +0.009 A 
ATOM     10  C   UNL     1      -5.069   2.869   1.031  0.00  0.00    +0.050 A 
ATOM     11  C   UNL     1      -5.287   3.710   2.110  0.00  0.00    +0.162 A 
ATOM     12  C   UNL     1      -4.213   4.322   2.741  0.00  0.00    +0.162 A 
ATOM     13  C   UNL     1      -2.922   4.089   2.298  0.00  0.00    +0.055 A 
ATOM     14  O   UNL     1      -4.438   5.149   3.803  0.00  0.00    -0.488 OA
ATOM     15  C   UNL     1      -4.915   4.520   4.995  0.00  0.00    +0.232 C 
ATOM     16  C   UNL     1      -6.426   4.354   4.948  0.00  0.00    +0.082 C 
ATOM     17  C   UNL     1      -6.870   3.406   3.844  0.00  0.00    +0.232 C 
ATOM     18  O   UNL     1      -6.554   3.942   2.558  0.00  0.00    -0.488 OA
ENDBRANCH   7   8
BRANCH   1  19
ATOM     19  C   UNL     1      -1.561   3.818  -3.051  0.00  0.00    +0.209 C 
BRANCH  19  31
ATOM     20  C   UNL     1      -1.659   4.214 -10.179  0.00  0.00    +0.045 C 
ATOM     21  C   UNL     1      -2.056   5.385  -9.317  0.00  0.00    -0.033 A 
ATOM     22  C   UNL     1      -2.448   6.561  -9.875  0.00  0.00    +0.091 A 
ATOM     23  C   UNL     1      -2.815   7.641  -9.048  0.00  0.00    +0.285 A 
ATOM     24  O   UNL     1      -2.789   7.545  -7.710  0.00  0.00    -0.425 OA
ATOM     25  C   UNL     1      -2.409   6.407  -7.092  0.00  0.00    +0.141 A 
ATOM     26  C   UNL     1      -2.030   5.287  -7.857  0.00  0.00    +0.021 A 
ATOM     27  C   UNL     1      -1.635   4.104  -7.221  0.00  0.00    +0.014 A 
ATOM     28  C   UNL     1      -1.620   4.038  -5.859  0.00  0.00    +0.026 A 
ATOM     29  C   UNL     1      -1.995   5.144  -5.095  0.00  0.00    +0.039 A 
ATOM     30  C   UNL     1      -2.394   6.322  -5.709  0.00  0.00    +0.072 A 
ATOM     31  N   UNL     1      -1.975   5.061  -3.705  0.00  0.00    -0.376 N 
ATOM     32  H   UNL     1      -2.270   5.930  -3.099  0.00  0.00    +0.160 HD
BRANCH  23  33
ATOM     33  O   UNL     1      -3.164   8.689  -9.562  0.00  0.00    -0.480 OA
ATOM     34  H   UNL     1      -3.453   9.542  -8.930  0.00  0.00    +0.295 HD
ENDBRANCH  23  33
ENDBRANCH  19  31
ENDBRANCH   1  19
TORSDOF 4
