REMARK  Name = ZINC01876813
REMARK  7 active torsions:
REMARK  status: ('A' for Active; 'I' for Inactive)
REMARK    1  A    between atoms: C_5  and  S_6
REMARK    2  A    between atoms: S_6  and  N_9
REMARK    3  A    between atoms: C_15  and  C_17
REMARK    4  A    between atoms: C_17  and  C_18
REMARK    5  A    between atoms: C_18  and  C_19
REMARK    6  A    between atoms: C_19  and  N_21
REMARK    7  A    between atoms: C_26  and  C_28
REMARK                            x       y       z     vdW  Elec       q    Type
REMARK                         _______ _______ _______ _____ _____    ______ ____
ROOT
ATOM      1  N   UNL     1      -0.020   1.652   0.011  0.00  0.00    -0.173 NA
ATOM      2  C   UNL     1      -1.296   2.382   0.021  0.00  0.00    +0.128 C 
ATOM      3  C   UNL     1      -1.297   3.339   1.225  0.00  0.00    +0.125 C 
ATOM      4  N   UNL     1      -0.043   4.104   1.218  0.00  0.00    -0.299 N 
ATOM      5  C   UNL     1       1.232   3.374   1.202  0.00  0.00    +0.125 C 
ATOM      6  C   UNL     1       1.234   2.417   0.003  0.00  0.00    +0.128 C 
ATOM      7  C   UNL     1      -0.061   5.452   1.225  0.00  0.00    +0.216 C 
ATOM      8  O   UNL     1       0.981   6.073   1.219  0.00  0.00    -0.276 OA
ENDROOT
BRANCH   1   9
ATOM      9  S   UNL     1       0.002  -0.004   0.002  0.00  0.00    +0.067 S 
ATOM     10  O   UNL     1      -1.243  -0.424  -0.539  0.00  0.00    -0.152 OA
ATOM     11  O   UNL     1       1.248  -0.390  -0.563  0.00  0.00    -0.152 OA
BRANCH   9  16
ATOM     12  C   UNL     1      -1.016  -0.805   2.506  0.00  0.00    +0.037 A 
ATOM     13  C   UNL     1      -0.758  -1.211   3.802  0.00  0.00    +0.025 A 
ATOM     14  C   UNL     1       0.530  -1.326   4.210  0.00  0.00    +0.057 A 
ATOM     15  S   UNL     1       1.427  -0.861   2.739  0.00  0.00    -0.062 S 
ATOM     16  C   UNL     1       0.025  -0.534   1.682  0.00  0.00    +0.144 A 
ATOM     17 BR   UNL     1       1.202  -1.852   5.898  0.00  0.00    -0.043 Br
ENDBRANCH   9  16
ENDBRANCH   1   9
BRANCH   7  18
ATOM     18  C   UNL     1      -1.376   6.188   1.241  0.00  0.00    +0.105 C 
BRANCH  18  19
ATOM     19  C   UNL     1      -1.117   7.696   1.247  0.00  0.00    +0.107 C 
BRANCH  19  20
ATOM     20  C   UNL     1      -2.432   8.431   1.262  0.00  0.00    +0.239 C 
ATOM     21  O   UNL     1      -3.477   7.809   1.269  0.00  0.00    -0.274 OA
BRANCH  20  22
ATOM     22  N   UNL     1      -2.450   9.758   1.270  0.00  0.00    -0.155 NA
ATOM     23  C   UNL     1      -3.615  10.409   1.284  0.00  0.00    +0.181 A 
ATOM     24  N   UNL     1      -4.875   9.908   1.287  0.00  0.00    -0.256 N 
ATOM     25  H   UNL     1      -5.027   8.950   1.278  0.00  0.00    +0.191 HD
ATOM     26  N   UNL     1      -5.933  10.789   1.307  0.00  0.00    -0.169 NA
ATOM     27  C   UNL     1      -5.695  12.069   1.312  0.00  0.00    +0.105 A 
ATOM     28  S   UNL     1      -3.912  12.119   1.296  0.00  0.00    -0.036 S 
BRANCH  27  29
ATOM     29  C   UNL     1      -6.674  13.215   1.327  0.00  0.00    +0.047 C 
ATOM     30  C   UNL     1      -6.050  14.410   2.050  0.00  0.00    +0.010 C 
ATOM     31  C   UNL     1      -7.044  15.573   2.066  0.00  0.00    +0.001 C 
ATOM     32  C   UNL     1      -8.318  15.144   2.796  0.00  0.00    +0.000 C 
ATOM     33  C   UNL     1      -8.943  13.949   2.074  0.00  0.00    +0.001 C 
ATOM     34  C   UNL     1      -7.948  12.786   2.058  0.00  0.00    +0.010 C 
ENDBRANCH  27  29
ENDBRANCH  20  22
ENDBRANCH  19  20
ENDBRANCH  18  19
ENDBRANCH   7  18
TORSDOF 7
