REMARK  Name = ZINC08955137
REMARK  7 active torsions:
REMARK  status: ('A' for Active; 'I' for Inactive)
REMARK    1  A    between atoms: C_1  and  C_2
REMARK    2  A    between atoms: C_5  and  C_8
REMARK    3  A    between atoms: N_13  and  C_15
REMARK    4  A    between atoms: C_15  and  C_16
REMARK    5  A    between atoms: N_18  and  C_19
REMARK    6  A    between atoms: C_22  and  C_25
REMARK    7  A    between atoms: C_29  and  C_31
REMARK                            x       y       z     vdW  Elec       q    Type
REMARK                         _______ _______ _______ _____ _____    ______ ____
ROOT
ATOM      1  C   UNL     1       5.463   6.774   1.701  0.00  0.00    +0.107 A 
ATOM      2  C   UNL     1       6.302   6.723   0.528  0.00  0.00    +0.072 A 
ATOM      3  C   UNL     1       5.759   6.594  -0.763  0.00  0.00    +0.146 A 
ATOM      4  C   UNL     1       4.287   6.511  -0.823  0.00  0.00    +0.294 A 
ATOM      5  O   UNL     1       3.724   6.394  -1.899  0.00  0.00    -0.264 OA
ATOM      6  N   UNL     1       3.567   6.571   0.309  0.00  0.00    -0.218 N 
ATOM      7  N   UNL     1       4.155   6.699   1.569  0.00  0.00    -0.167 NA
ATOM      8  N   UNL     1       6.662   6.561  -1.751  0.00  0.00    -0.239 NA
ATOM      9  C   UNL     1       7.946   6.642  -1.533  0.00  0.00    +0.077 A 
ATOM     10  S   UNL     1       8.043   6.783   0.196  0.00  0.00    -0.070 S 
ATOM     11  C   UNL     1       9.071   6.618  -2.536  0.00  0.00    +0.073 C 
ENDROOT
BRANCH   1  16
ATOM     12  C   UNL     1       7.819   7.301   6.928  0.00  0.00    +0.044 C 
ATOM     13  C   UNL     1       7.203   7.163   5.560  0.00  0.00    -0.050 A 
ATOM     14  C   UNL     1       5.952   6.588   5.423  0.00  0.00    +0.004 A 
ATOM     15  C   UNL     1       5.382   6.459   4.173  0.00  0.00    +0.010 A 
ATOM     16  C   UNL     1       6.070   6.910   3.047  0.00  0.00    +0.003 A 
ATOM     17  C   UNL     1       7.332   7.482   3.190  0.00  0.00    +0.010 A 
ATOM     18  C   UNL     1       7.890   7.611   4.446  0.00  0.00    +0.004 A 
ENDBRANCH   1  16
BRANCH   6  19
ATOM     19  C   UNL     1       2.107   6.492   0.220  0.00  0.00    +0.243 C 
BRANCH  19  20
ATOM     20  C   UNL     1       1.676   5.050   0.300  0.00  0.00    +0.239 C 
ATOM     21  O   UNL     1       2.507   4.175   0.421  0.00  0.00    -0.273 OA
ATOM     22  N   UNL     1       0.367   4.733   0.238  0.00  0.00    -0.284 N 
ATOM     23  H   UNL     1      -0.291   5.424   0.062  0.00  0.00    +0.155 HD
BRANCH  22  24
ATOM     24  C   UNL     1      -0.040   3.413   0.428  0.00  0.00    +0.033 A 
ATOM     25  C   UNL     1      -1.170   2.935  -0.228  0.00  0.00    +0.024 A 
ATOM     26  C   UNL     1      -1.575   1.632  -0.043  0.00  0.00    +0.015 A 
ATOM     27  C   UNL     1      -0.850   0.790   0.805  0.00  0.00    +0.037 A 
ATOM     28  C   UNL     1       0.285   1.274   1.462  0.00  0.00    +0.015 A 
ATOM     29  C   UNL     1       0.684   2.578   1.273  0.00  0.00    +0.024 A 
BRANCH  27  30
ATOM     30  C   UNL     1      -1.281  -0.607   1.006  0.00  0.00    +0.242 C 
ATOM     31  O   UNL     1      -2.268  -1.027   0.434  0.00  0.00    -0.270 OA
ATOM     32  N   UNL     1      -0.581  -1.418   1.823  0.00  0.00    -0.325 N 
ATOM     33  H   UNL     1       0.207  -1.083   2.280  0.00  0.00    +0.145 HD
ATOM     34  H   UNL     1      -0.864  -2.336   1.956  0.00  0.00    +0.145 HD
ENDBRANCH  27  30
ENDBRANCH  22  24
ENDBRANCH  19  20
ENDBRANCH   6  19
TORSDOF 5
