REMARK  Name = ZINC00753424
REMARK  4 active torsions:
REMARK  status: ('A' for Active; 'I' for Inactive)
REMARK    1  A    between atoms: C_4  and  C_7
REMARK    2  A    between atoms: C_10  and  C_13
REMARK    3  A    between atoms: C_15  and  C_31
REMARK    4  A    between atoms: C_16  and  N_30
REMARK                            x       y       z     vdW  Elec       q    Type
REMARK                         _______ _______ _______ _____ _____    ______ ____
ROOT
ATOM      1  C   UNL     1       7.434  -2.768  -0.085  0.00  0.00    +0.102 C 
ATOM      2  C   UNL     1       7.518  -3.612  -1.326  0.00  0.00    +0.098 C 
ATOM      3  C   UNL     1       7.312  -4.950  -1.267  0.00  0.00    +0.199 C 
ATOM      4  O   UNL     1       7.025  -5.561  -0.105  0.00  0.00    -0.437 OA
ATOM      5  C   UNL     1       7.332  -4.966   1.069  0.00  0.00    +0.185 C 
ATOM      6  C   UNL     1       7.537  -3.638   1.142  0.00  0.00    +0.058 C 
ATOM      7  C   UNL     1       7.868  -3.006   2.426  0.00  0.00    +0.194 C 
ATOM      8  O   UNL     1       8.054  -1.805   2.480  0.00  0.00    -0.287 OA
ATOM      9  C   UNL     1       7.976  -3.821   3.655  0.00  0.00    +0.033 A 
ATOM     10  C   UNL     1       8.284  -3.236   4.876  0.00  0.00    +0.012 A 
ATOM     11  C   UNL     1       8.379  -4.023   6.013  0.00  0.00    +0.001 A 
ATOM     12  C   UNL     1       8.168  -5.387   5.941  0.00  0.00    +0.001 A 
ATOM     13  C   UNL     1       7.859  -5.986   4.729  0.00  0.00    +0.012 A 
ATOM     14  C   UNL     1       7.761  -5.209   3.580  0.00  0.00    +0.036 A 
ATOM     15  C   UNL     1       7.436  -5.813   2.284  0.00  0.00    +0.229 C 
ATOM     16  O   UNL     1       7.250  -7.011   2.207  0.00  0.00    -0.283 OA
ENDROOT
BRANCH   1  20
ATOM     17  C   UNL     1       3.699  -0.689  -0.037  0.00  0.00    -0.018 A 
ATOM     18  C   UNL     1       4.896   0.024  -0.040  0.00  0.00    +0.009 A 
ATOM     19  C   UNL     1       6.099  -0.652  -0.055  0.00  0.00    +0.005 A 
ATOM     20  C   UNL     1       6.118  -2.035  -0.068  0.00  0.00    -0.035 A 
ATOM     21  C   UNL     1       4.932  -2.748  -0.066  0.00  0.00    +0.005 A 
ATOM     22  C   UNL     1       3.724  -2.082  -0.045  0.00  0.00    +0.009 A 
BRANCH  17  26
ATOM     23  C   UNL     1      -0.017   1.379   0.010  0.00  0.00    +0.000 A 
ATOM     24  C   UNL     1       1.169   2.092   0.002  0.00  0.00    +0.001 A 
ATOM     25  C   UNL     1       2.377   1.426  -0.013  0.00  0.00    +0.008 A 
ATOM     26  C   UNL     1       2.402   0.033  -0.021  0.00  0.00    -0.018 A 
ATOM     27  C   UNL     1       1.205  -0.680  -0.013  0.00  0.00    +0.008 A 
ATOM     28  C   UNL     1       0.002  -0.004   0.002  0.00  0.00    +0.001 A 
ENDBRANCH  17  26
ENDBRANCH   1  20
BRANCH   3  29
ATOM     29  N   UNL     1       7.396  -5.696  -2.417  0.00  0.00    -0.328 N 
ATOM     30  H   UNL     1       7.602  -5.264  -3.261  0.00  0.00    +0.145 HD
ATOM     31  H   UNL     1       7.250  -6.654  -2.385  0.00  0.00    +0.145 HD
ENDBRANCH   3  29
BRANCH   2  32
ATOM     32  C   UNL     1       7.820  -2.995  -2.583  0.00  0.00    +0.101 C 
ATOM     33  N   UNL     1       8.060  -2.507  -3.580  0.00  0.00    -0.191 NA
ENDBRANCH   2  32
TORSDOF 4
