REMARK  Name = ZINC09541725
REMARK  4 active torsions:
REMARK  status: ('A' for Active; 'I' for Inactive)
REMARK    1  A    between atoms: C_6  and  C_7
REMARK    2  A    between atoms: C_10  and  C_24
REMARK    3  A    between atoms: C_13  and  C_15
REMARK    4  A    between atoms: C_29  and  O_30
REMARK                            x       y       z     vdW  Elec       q    Type
REMARK                         _______ _______ _______ _____ _____    ______ ____
ROOT
ATOM      1  C   UNL     1      -1.293  -0.775   0.010  0.00  0.00    +0.081 C 
ATOM      2  N   UNL     1      -1.083  -2.063   0.680  0.00  0.00    +0.401 N 
ATOM      3  C   UNL     1      -2.382  -2.739   0.834  0.00  0.00    -0.028 C 
ATOM      4  C   UNL     1      -3.215  -1.953   1.852  0.00  0.00    +0.044 C 
ATOM      5  C   UNL     1      -3.171  -0.489   1.509  0.00  0.00    +0.040 C 
ATOM      6  N   UNL     1      -2.312   0.007   0.699  0.00  0.00    -0.299 NA
ATOM      7  H   UNL     1      -0.468  -2.637   0.124  0.00  0.00    -0.081 HD
ATOM      8  H   UNL     1      -0.673  -1.908   1.589  0.00  0.00    -0.081 HD
ENDROOT
BRANCH   5   9
ATOM      9  C   UNL     1      -4.157   0.412   2.133  0.00  0.00    -0.001 A 
ATOM     10  C   UNL     1      -5.103  -0.096   3.027  0.00  0.00    +0.013 A 
ATOM     11  C   UNL     1      -6.023   0.749   3.609  0.00  0.00    +0.050 A 
ATOM     12  C   UNL     1      -6.015   2.104   3.311  0.00  0.00    +0.166 A 
ATOM     13  C   UNL     1      -5.073   2.618   2.419  0.00  0.00    +0.167 A 
ATOM     14  C   UNL     1      -4.144   1.778   1.836  0.00  0.00    +0.059 A 
ATOM     15  O   UNL     1      -5.276   3.963   2.298  0.00  0.00    -0.453 OA
ATOM     16  C   UNL     1      -6.603   4.198   2.804  0.00  0.00    +0.466 C 
ATOM     17  O   UNL     1      -6.804   3.128   3.746  0.00  0.00    -0.453 OA
ENDBRANCH   5   9
BRANCH   1  23
ATOM     18  C   UNL     1      -0.017   1.378   0.010  0.00  0.00    +0.005 A 
ATOM     19  C   UNL     1       1.171   2.086   0.002  0.00  0.00    +0.015 A 
ATOM     20  C   UNL     1       2.378   1.411  -0.013  0.00  0.00    +0.018 A 
ATOM     21  C   UNL     1       2.396   0.027  -0.021  0.00  0.00    +0.015 A 
ATOM     22  C   UNL     1       1.208  -0.679  -0.013  0.00  0.00    +0.005 A 
ATOM     23  C   UNL     1       0.002  -0.004   0.002  0.00  0.00    -0.040 A 
ATOM     24 BR   UNL     1       4.003   2.378  -0.024  0.00  0.00    -0.050 Br
ENDBRANCH   1  23
BRANCH   3  25
ATOM     25  C   UNL     1      -2.168  -4.146   1.329  0.00  0.00    -0.018 A 
ATOM     26  C   UNL     1      -1.030  -4.460   2.046  0.00  0.00    +0.025 A 
ATOM     27  C   UNL     1      -0.832  -5.752   2.500  0.00  0.00    +0.041 A 
ATOM     28  C   UNL     1      -1.775  -6.731   2.238  0.00  0.00    +0.023 A 
ATOM     29  C   UNL     1      -2.914  -6.420   1.522  0.00  0.00    +0.047 A 
ATOM     30  C   UNL     1      -3.116  -5.124   1.070  0.00  0.00    +0.119 A 
ATOM     31 CL   UNL     1       0.599  -6.146   3.400  0.00  0.00    -0.084 Cl
BRANCH  30  32
ATOM     32  O   UNL     1      -4.240  -4.815   0.370  0.00  0.00    -0.507 OA
ATOM     33  H   UNL     1      -4.151  -4.927  -0.586  0.00  0.00    +0.292 HD
ENDBRANCH  30  32
ENDBRANCH   3  25
TORSDOF 4
