REMARK  Name = ZINC03321601
REMARK  10 active torsions:
REMARK  status: ('A' for Active; 'I' for Inactive)
REMARK    1  A    between atoms: C_1  and  C_2
REMARK    2  A    between atoms: C_2  and  O_3
REMARK    3  A    between atoms: O_3  and  C_4
REMARK    4  A    between atoms: C_4  and  C_6
REMARK    5  A    between atoms: C_7  and  C_30
REMARK    6  A    between atoms: C_10  and  N_11
REMARK    7  A    between atoms: C_12  and  C_14
REMARK    8  A    between atoms: C_14  and  N_15
REMARK    9  A    between atoms: C_18  and  C_22
REMARK   10  A    between atoms: C_18  and  C_23
REMARK                            x       y       z     vdW  Elec       q    Type
REMARK                         _______ _______ _______ _____ _____    ______ ____
ROOT
ATOM      1  N   UNL     1      -3.041  -2.527   2.495  0.00  0.00    -0.278 N 
ATOM      2  C   UNL     1      -3.819  -2.871   3.540  0.00  0.00    +0.236 C 
ATOM      3  O   UNL     1      -4.920  -3.342   3.348  0.00  0.00    -0.274 OA
ATOM      4  H   UNL     1      -2.161  -2.150   2.649  0.00  0.00    +0.155 HD
ENDROOT
BRANCH   1   9
ATOM      5  C   UNL     1      -2.841  -2.416   0.016  0.00  0.00    +0.095 A 
ATOM      6  C   UNL     1      -3.552  -2.716  -1.214  0.00  0.00    +0.006 A 
ATOM      7  C   UNL     1      -4.791  -3.249  -1.056  0.00  0.00    +0.056 A 
ATOM      8  S   UNL     1      -4.976  -3.337   0.712  0.00  0.00    -0.080 S 
ATOM      9  C   UNL     1      -3.499  -2.710   1.200  0.00  0.00    +0.086 A 
BRANCH   6  10
ATOM     10  C   UNL     1      -2.966  -2.457  -2.551  0.00  0.00    +0.002 A 
ATOM     11  C   UNL     1      -3.541  -1.508  -3.395  0.00  0.00    +0.010 A 
ATOM     12  C   UNL     1      -2.991  -1.271  -4.638  0.00  0.00    +0.001 A 
ATOM     13  C   UNL     1      -1.871  -1.973  -5.048  0.00  0.00    +0.001 A 
ATOM     14  C   UNL     1      -1.297  -2.916  -4.216  0.00  0.00    +0.020 A 
ATOM     15  C   UNL     1      -1.835  -3.158  -2.967  0.00  0.00    +0.049 A 
ATOM     16 CL   UNL     1      -1.108  -4.338  -1.921  0.00  0.00    -0.083 Cl
ENDBRANCH   6  10
BRANCH   5  17
ATOM     17  C   UNL     1      -1.497  -1.838   0.006  0.00  0.00    +0.342 C 
ATOM     18  O   UNL     1      -0.522  -2.566  -0.007  0.00  0.00    -0.245 OA
BRANCH  17  19
ATOM     19  O   UNL     1      -1.339  -0.499   0.012  0.00  0.00    -0.461 OA
BRANCH  19  21
ATOM     20  C   UNL     1      -0.019   1.526   0.010  0.00  0.00    +0.048 C 
ATOM     21  C   UNL     1       0.002  -0.004   0.002  0.00  0.00    +0.229 C 
ENDBRANCH  19  21
ENDBRANCH  17  19
ENDBRANCH   5  17
ENDBRANCH   1   9
BRANCH   2  22
ATOM     22  C   UNL     1      -3.321  -2.671   4.948  0.00  0.00    +0.214 C 
BRANCH  22  23
ATOM     23  N   UNL     1      -4.343  -3.120   5.896  0.00  0.00    -0.215 N 
ATOM     24  C   UNL     1      -5.315  -2.329   6.393  0.00  0.00    +0.251 C 
ATOM     25  O   UNL     1      -5.500  -1.156   6.148  0.00  0.00    -0.272 OA
ATOM     26  C   UNL     1      -6.128  -3.210   7.320  0.00  0.00    +0.135 C 
ATOM     27  N   UNL     1      -5.457  -4.519   7.230  0.00  0.00    -0.281 N 
ATOM     28  C   UNL     1      -4.432  -4.367   6.372  0.00  0.00    +0.310 C 
ATOM     29  O   UNL     1      -3.669  -5.263   6.067  0.00  0.00    -0.252 OA
ATOM     30  C   UNL     1      -7.575  -3.313   6.833  0.00  0.00    +0.047 C 
ATOM     31  H   UNL     1      -5.708  -5.332   7.695  0.00  0.00    +0.152 HD
BRANCH  26  32
ATOM     32  C   UNL     1      -6.077  -2.685   8.731  0.00  0.00    -0.015 A 
ATOM     33  C   UNL     1      -5.938  -1.328   8.958  0.00  0.00    +0.007 A 
ATOM     34  C   UNL     1      -5.891  -0.846  10.253  0.00  0.00    +0.020 A 
ATOM     35  C   UNL     1      -5.985  -1.720  11.321  0.00  0.00    +0.041 A 
ATOM     36  C   UNL     1      -6.125  -3.077  11.092  0.00  0.00    +0.020 A 
ATOM     37  C   UNL     1      -6.177  -3.558   9.798  0.00  0.00    +0.007 A 
ATOM     38 CL   UNL     1      -5.926  -1.114  12.947  0.00  0.00    -0.084 Cl
ENDBRANCH  26  32
ENDBRANCH  22  23
ENDBRANCH   2  22
TORSDOF 8
