REMARK  Name = ZINC39551947
REMARK  7 active torsions:
REMARK  status: ('A' for Active; 'I' for Inactive)
REMARK    1  A    between atoms: C_1  and  C_2
REMARK    2  A    between atoms: C_2  and  C_17
REMARK    3  A    between atoms: N_5  and  C_9
REMARK    4  A    between atoms: C_9  and  C_10
REMARK    5  A    between atoms: N_20  and  C_23
REMARK    6  A    between atoms: C_23  and  C_24
REMARK    7  A    between atoms: C_29  and  C_30
REMARK                            x       y       z     vdW  Elec       q    Type
REMARK                         _______ _______ _______ _____ _____    ______ ____
ROOT
ATOM      1  C   UNL     1       0.901  -0.173  -1.170  0.00  0.00    +0.018 C 
ATOM      2  C   UNL     1      -0.031   0.066  -2.361  0.00  0.00    -0.013 C 
ATOM      3  C   UNL     1       0.615  -0.499  -3.628  0.00  0.00    -0.078 C 
ATOM      4  N   UNL     1       1.899   0.170  -3.868  0.00  0.00    +0.380 N 
ATOM      5  C   UNL     1       2.822  -0.115  -2.763  0.00  0.00    -0.078 C 
ATOM      6  C   UNL     1       2.262   0.465  -1.462  0.00  0.00    -0.013 C 
ATOM      7  H   UNL     1       1.751   1.165  -3.933  0.00  0.00    -0.082 HD
ENDROOT
BRANCH   1   9
ATOM      8  C   UNL     1       0.239   1.982  -0.055  0.00  0.00    +0.042 C 
ATOM      9  C   UNL     1       0.299   0.459   0.086  0.00  0.00    +0.112 C 
ATOM     10  C   UNL     1      -1.081  -0.105   0.363  0.00  0.00    +0.247 C 
ATOM     11  O   UNL     1      -2.057  -0.036  -0.352  0.00  0.00    -0.273 OA
ATOM     12  N   UNL     1      -0.995  -0.702   1.568  0.00  0.00    -0.220 N 
ATOM     13  C   UNL     1       0.233  -0.593   2.087  0.00  0.00    +0.310 C 
ATOM     14  O   UNL     1       0.554  -1.052   3.165  0.00  0.00    -0.252 OA
ATOM     15  N   UNL     1       1.074   0.080   1.280  0.00  0.00    -0.285 N 
ATOM     16  H   UNL     1       2.008   0.277   1.452  0.00  0.00    +0.151 HD
BRANCH  12  17
ATOM     17  C   UNL     1      -2.111  -1.383   2.230  0.00  0.00    +0.153 C 
BRANCH  17  18
ATOM     18  C   UNL     1      -2.121  -2.836   1.828  0.00  0.00    -0.029 A 
ATOM     19  C   UNL     1      -2.832  -3.239   0.713  0.00  0.00    +0.008 A 
ATOM     20  C   UNL     1      -2.842  -4.570   0.343  0.00  0.00    +0.038 A 
ATOM     21  C   UNL     1      -2.139  -5.501   1.090  0.00  0.00    +0.123 A 
ATOM     22  C   UNL     1      -1.428  -5.096   2.207  0.00  0.00    +0.038 A 
ATOM     23  C   UNL     1      -1.415  -3.763   2.572  0.00  0.00    +0.008 A 
ATOM     24  F   UNL     1      -2.149  -6.803   0.730  0.00  0.00    -0.205 F 
ENDBRANCH  17  18
ENDBRANCH  12  17
ENDBRANCH   1   9
BRANCH   4  25
ATOM     25  C   UNL     1       2.478  -0.321  -5.126  0.00  0.00    -0.063 C 
BRANCH  25  26
ATOM     26  C   UNL     1       1.598   0.121  -6.298  0.00  0.00    +0.066 C 
ATOM     27  C   UNL     1       1.667   1.624  -6.480  0.00  0.00    +0.115 C 
ATOM     28  N   UNL     1       2.156   1.820  -7.662  0.00  0.00    -0.161 NA
ATOM     29  N   UNL     1       2.436   0.630  -8.326  0.00  0.00    -0.153 NA
ATOM     30  C   UNL     1       2.140  -0.421  -7.606  0.00  0.00    +0.077 C 
BRANCH  30  31
ATOM     31  C   UNL     1       2.300  -1.834  -7.983  0.00  0.00    -0.001 A 
ATOM     32  C   UNL     1       1.929  -2.845  -7.091  0.00  0.00    +0.011 A 
ATOM     33  C   UNL     1       2.081  -4.167  -7.451  0.00  0.00    +0.020 A 
ATOM     34  C   UNL     1       2.600  -4.495  -8.693  0.00  0.00    +0.041 A 
ATOM     35  C   UNL     1       2.970  -3.498  -9.581  0.00  0.00    +0.020 A 
ATOM     36  C   UNL     1       2.818  -2.172  -9.237  0.00  0.00    +0.011 A 
ATOM     37 CL   UNL     1       2.788  -6.162  -9.138  0.00  0.00    -0.084 Cl
ENDBRANCH  30  31
ENDBRANCH  25  26
ENDBRANCH   4  25
TORSDOF 6
