REMARK  Name = ZINC08893963
REMARK  8 active torsions:
REMARK  status: ('A' for Active; 'I' for Inactive)
REMARK    1  A    between atoms: C_1  and  C_2
REMARK    2  A    between atoms: C_2  and  O_3
REMARK    3  A    between atoms: O_3  and  C_4
REMARK    4  A    between atoms: C_7  and  C_10
REMARK    5  A    between atoms: N_17  and  C_20
REMARK    6  A    between atoms: C_20  and  C_22
REMARK    7  A    between atoms: C_20  and  C_23
REMARK    8  A    between atoms: N_25  and  C_26
REMARK                            x       y       z     vdW  Elec       q    Type
REMARK                         _______ _______ _______ _____ _____    ______ ____
ROOT
ATOM      1  C   UNL     1      -2.566   0.445  -4.276  0.00  0.00    +0.004 A 
ATOM      2  C   UNL     1      -3.169   1.131  -5.277  0.00  0.00    +0.056 A 
ATOM      3  S   UNL     1      -2.915   2.835  -4.822  0.00  0.00    -0.076 S 
ATOM      4  C   UNL     1      -2.014   2.590  -3.313  0.00  0.00    +0.116 A 
ATOM      5  C   UNL     1      -1.932   1.193  -3.197  0.00  0.00    +0.080 A 
ATOM      6  C   UNL     1      -1.240   0.706  -2.043  0.00  0.00    +0.263 A 
ATOM      7  O   UNL     1      -1.116  -0.492  -1.855  0.00  0.00    -0.267 OA
ATOM      8  N   UNL     1      -0.727   1.591  -1.168  0.00  0.00    -0.287 N 
ATOM      9  C   UNL     1      -0.860   2.929  -1.359  0.00  0.00    +0.204 A 
ATOM     10  N   UNL     1      -1.482   3.403  -2.404  0.00  0.00    -0.230 NA
ENDROOT
BRANCH   1  14
ATOM     11  C   UNL     1      -2.528  -3.808  -4.280  0.00  0.00    +0.121 A 
ATOM     12  C   UNL     1      -3.722  -3.126  -4.473  0.00  0.00    +0.046 A 
ATOM     13  C   UNL     1      -3.738  -1.747  -4.472  0.00  0.00    +0.012 A 
ATOM     14  C   UNL     1      -2.553  -1.038  -4.277  0.00  0.00    -0.016 A 
ATOM     15  C   UNL     1      -1.355  -1.726  -4.089  0.00  0.00    +0.012 A 
ATOM     16  C   UNL     1      -1.347  -3.105  -4.086  0.00  0.00    +0.046 A 
BRANCH  11  17
ATOM     17  O   UNL     1      -2.516  -5.167  -4.282  0.00  0.00    -0.492 OA
BRANCH  17  19
ATOM     18  C   UNL     1      -1.437  -7.323  -4.112  0.00  0.00    +0.048 C 
ATOM     19  C   UNL     1      -1.253  -5.804  -4.078  0.00  0.00    +0.225 C 
ENDBRANCH  17  19
ENDBRANCH  11  17
ENDBRANCH   1  14
BRANCH   8  20
ATOM     20  C   UNL     1      -0.018   1.101   0.017  0.00  0.00    +0.174 C 
ATOM     21  C   UNL     1      -0.726   1.600   1.278  0.00  0.00    +0.041 C 
BRANCH  20  22
ATOM     22  C   UNL     1       1.400   1.613   0.000  0.00  0.00    +0.240 C 
ATOM     23  O   UNL     1       1.780   2.317  -0.911  0.00  0.00    -0.273 OA
ATOM     24  N   UNL     1       2.245   1.288   0.998  0.00  0.00    -0.283 N 
ATOM     25  H   UNL     1       1.924   0.779   1.759  0.00  0.00    +0.155 HD
BRANCH  24  26
ATOM     26  C   UNL     1       3.586   1.684   0.937  0.00  0.00    +0.053 A 
ATOM     27  C   UNL     1       3.926   2.900   0.359  0.00  0.00    +0.044 A 
ATOM     28  C   UNL     1       5.251   3.289   0.300  0.00  0.00    +0.043 A 
ATOM     29  C   UNL     1       6.239   2.467   0.816  0.00  0.00    +0.021 A 
ATOM     30  C   UNL     1       5.903   1.256   1.392  0.00  0.00    +0.023 A 
ATOM     31  C   UNL     1       4.579   0.864   1.459  0.00  0.00    +0.062 A 
ATOM     32 CL   UNL     1       4.158  -0.653   2.189  0.00  0.00    -0.082 Cl
ATOM     33 CL   UNL     1       5.678   4.809  -0.422  0.00  0.00    -0.083 Cl
ENDBRANCH  24  26
ENDBRANCH  20  22
ENDBRANCH   8  20
TORSDOF 6
