REMARK  Name = ZINC22396914
REMARK  7 active torsions:
REMARK  status: ('A' for Active; 'I' for Inactive)
REMARK    1  A    between atoms: C_1  and  C_2
REMARK    2  A    between atoms: C_12  and  C_14
REMARK    3  A    between atoms: C_16  and  S_26
REMARK    4  A    between atoms: C_19  and  N_20
REMARK    5  A    between atoms: S_26  and  N_29
REMARK    6  A    between atoms: N_29  and  C_30
REMARK    7  A    between atoms: N_29  and  C_31
REMARK                            x       y       z     vdW  Elec       q    Type
REMARK                         _______ _______ _______ _____ _____    ______ ____
ROOT
ATOM      1  C   UNL     1       7.710   3.564  -0.051  0.00  0.00    +0.060 A 
ATOM      2  C   UNL     1       8.761   2.643  -0.066  0.00  0.00    +0.043 A 
ATOM      3  C   UNL     1      10.065   3.087  -0.076  0.00  0.00    +0.106 A 
ATOM      4  C   UNL     1      10.341   4.446  -0.071  0.00  0.00    +0.030 A 
ATOM      5  C   UNL     1       9.316   5.368  -0.056  0.00  0.00    +0.026 A 
ATOM      6  C   UNL     1       7.994   4.939  -0.053  0.00  0.00    +0.042 A 
ENDROOT
BRANCH   1  18
ATOM      7  C   UNL     1      -1.288  -0.783   0.011  0.00  0.00    +0.044 C 
ATOM      8  C   UNL     1       0.002  -0.004   0.002  0.00  0.00    -0.049 A 
ATOM      9  C   UNL     1      -0.017   1.383   0.010  0.00  0.00    +0.005 A 
ATOM     10  C   UNL     1       1.142   2.115   0.003  0.00  0.00    +0.029 A 
ATOM     11  C   UNL     1       2.402   1.474  -0.013  0.00  0.00    +0.080 A 
ATOM     12  C   UNL     1       2.382   0.060  -0.020  0.00  0.00    +0.041 A 
ATOM     13  C   UNL     1       1.217  -0.665  -0.013  0.00  0.00    +0.020 A 
ATOM     14  S   UNL     1       4.113  -0.342  -0.039  0.00  0.00    -0.052 S 
ATOM     15  C   UNL     1       4.733   1.334  -0.036  0.00  0.00    +0.166 A 
ATOM     16  N   UNL     1       3.627   2.042  -0.021  0.00  0.00    -0.225 NA
ATOM     17  N   UNL     1       6.045   1.774  -0.046  0.00  0.00    -0.261 N 
ATOM     18  C   UNL     1       6.313   3.095  -0.041  0.00  0.00    +0.252 C 
ATOM     19  O   UNL     1       5.402   3.900  -0.029  0.00  0.00    -0.270 OA
ATOM     20  H   UNL     1       6.869   1.046  -0.057  0.00  0.00    +0.157 HD
ENDBRANCH   1  18
BRANCH   6  21
ATOM     21  N   UNL     1       6.959   5.865  -0.044  0.00  0.00    -0.329 N 
ATOM     22  C   UNL     1       6.956   6.662  -1.278  0.00  0.00    +0.105 C 
ATOM     23  C   UNL     1       5.722   7.567  -1.299  0.00  0.00    +0.019 C 
ATOM     24  C   UNL     1       5.750   8.487  -0.075  0.00  0.00    +0.003 C 
ATOM     25  C   UNL     1       5.803   7.634   1.195  0.00  0.00    +0.019 C 
ATOM     26  C   UNL     1       7.034   6.726   1.143  0.00  0.00    +0.105 C 
ENDBRANCH   6  21
BRANCH   3  27
ATOM     27  S   UNL     1      11.387   1.923  -0.094  0.00  0.00    +0.060 S 
ATOM     28  O   UNL     1      12.520   2.587   0.450  0.00  0.00    -0.153 OA
ATOM     29  O   UNL     1      10.874   0.717   0.455  0.00  0.00    -0.153 OA
BRANCH  27  30
ATOM     30  N   UNL     1      11.740   1.608  -1.681  0.00  0.00    -0.183 NA
ATOM     31  C   UNL     1      12.735   2.421  -2.385  0.00  0.00    +0.131 C 
ATOM     32  C   UNL     1      11.058   0.516  -2.380  0.00  0.00    +0.131 C 
ENDBRANCH  27  30
ENDBRANCH   3  27
TORSDOF 4
