REMARK  Name = ZINC12660125
REMARK  13 active torsions:
REMARK  status: ('A' for Active; 'I' for Inactive)
REMARK    1  A    between atoms: C_1  and  C_2
REMARK    2  A    between atoms: C_2  and  C_35
REMARK    3  A    between atoms: C_8  and  C_31
REMARK    4  A    between atoms: C_10  and  C_11
REMARK    5  A    between atoms: C_11  and  C_13
REMARK    6  A    between atoms: C_11  and  O_30
REMARK    7  A    between atoms: C_13  and  C_14
REMARK    8  A    between atoms: C_21  and  O_22
REMARK    9  A    between atoms: O_22  and  C_23
REMARK   10  A    between atoms: C_29  and  N_73
REMARK   11  A    between atoms: C_31  and  C_32
REMARK   12  A    between atoms: C_31  and  C_33
REMARK   13  A    between atoms: C_31  and  C_34
REMARK                            x       y       z     vdW  Elec       q    Type
REMARK                         _______ _______ _______ _____ _____    ______ ____
ROOT
ATOM      1  C   UNL     1      -3.498  -3.523   2.128  0.00  0.00    +0.144 C 
ENDROOT
BRANCH   1  11
ATOM      2  C   UNL     1      -7.672  -0.283   4.095  0.00  0.00    +0.016 C 
ATOM      3  C   UNL     1      -6.219   0.123   3.838  0.00  0.00    -0.009 C 
ATOM      4  C   UNL     1      -5.958   0.298   2.324  0.00  0.00    +0.015 C 
ATOM      5  C   UNL     1      -5.454  -1.102   1.914  0.00  0.00    +0.036 C 
ATOM      6  C   UNL     1      -4.841  -1.686   3.169  0.00  0.00    -0.038 A 
ATOM      7  C   UNL     1      -5.280  -0.981   4.275  0.00  0.00    -0.038 A 
ATOM      8  C   UNL     1      -4.841  -1.338   5.539  0.00  0.00    +0.008 A 
ATOM      9  C   UNL     1      -3.971  -2.399   5.698  0.00  0.00    -0.041 A 
ATOM     10  C   UNL     1      -3.536  -3.106   4.593  0.00  0.00    +0.010 A 
ATOM     11  C   UNL     1      -3.973  -2.752   3.332  0.00  0.00    -0.015 A 
ATOM     12  C   UNL     1      -5.891   1.422   4.578  0.00  0.00    +0.016 C 
BRANCH   9  13
ATOM     13  C   UNL     1      -3.495  -2.784   7.075  0.00  0.00    -0.013 C 
ATOM     14  C   UNL     1      -2.546  -3.980   6.972  0.00  0.00    +0.015 C 
ATOM     15  C   UNL     1      -2.758  -1.602   7.709  0.00  0.00    +0.015 C 
ATOM     16  C   UNL     1      -4.697  -3.160   7.944  0.00  0.00    +0.015 C 
ENDBRANCH   9  13
ENDBRANCH   1  11
BRANCH   1  17
ATOM     17  O   UNL     1      -3.122  -4.843   2.526  0.00  0.00    -0.387 OA
ATOM     18  H   UNL     1      -2.472  -4.869   3.241  0.00  0.00    +0.210 HD
ENDBRANCH   1  17
BRANCH   1  19
ATOM     19  C   UNL     1      -2.290  -2.814   1.511  0.00  0.00    +0.025 C 
BRANCH  19  20
ATOM     20  C   UNL     1      -1.897  -3.515   0.209  0.00  0.00    -0.031 C 
ATOM     21  C   UNL     1      -1.529  -4.945   0.505  0.00  0.00    -0.012 A 
ATOM     22  C   UNL     1      -1.931  -5.983  -0.308  0.00  0.00    -0.040 A 
ATOM     23  C   UNL     1      -1.561  -7.284  -0.006  0.00  0.00    +0.053 A 
ATOM     24  C   UNL     1      -0.791  -7.554   1.113  0.00  0.00    +0.170 A 
ATOM     25  C   UNL     1      -0.386  -6.511   1.939  0.00  0.00    +0.208 A 
ATOM     26  C   UNL     1      -0.756  -5.209   1.631  0.00  0.00    +0.167 A 
ATOM     27  O   UNL     1       0.353  -7.026   2.965  0.00  0.00    -0.449 OA
ATOM     28  C   UNL     1       0.054  -8.435   2.984  0.00  0.00    +0.467 C 
ATOM     29  O   UNL     1      -0.305  -8.725   1.620  0.00  0.00    -0.452 OA
ATOM     30  C   UNL     1      -2.780  -5.745  -1.532  0.00  0.00    +0.017 C 
ATOM     31  C   UNL     1      -2.729  -4.269  -1.923  0.00  0.00    -0.074 C 
ATOM     32  C   UNL     1      -3.330  -2.070  -1.099  0.00  0.00    -0.095 C 
ATOM     33  N   UNL     1      -3.039  -3.470  -0.719  0.00  0.00    +0.383 N 
ATOM     34  H   UNL     1      -3.864  -3.868  -0.255  0.00  0.00    -0.081 HD
BRANCH  26  35
ATOM     35  O   UNL     1      -0.361  -4.186   2.436  0.00  0.00    -0.491 OA
ATOM     36  C   UNL     1       0.885  -3.560   2.126  0.00  0.00    +0.277 C 
ENDBRANCH  26  35
ENDBRANCH  19  20
ENDBRANCH   1  19
TORSDOF 6
