REMARK  Name = ZINC39696093
REMARK  8 active torsions:
REMARK  status: ('A' for Active; 'I' for Inactive)
REMARK    1  A    between atoms: C_1  and  C_2
REMARK    2  A    between atoms: C_2  and  C_3
REMARK    3  A    between atoms: C_6  and  C_9
REMARK    4  A    between atoms: C_9  and  C_11
REMARK    5  A    between atoms: C_9  and  N_12
REMARK    6  A    between atoms: C_13  and  C_15
REMARK    7  A    between atoms: C_26  and  C_28
REMARK    8  A    between atoms: C_32  and  C_34
REMARK                            x       y       z     vdW  Elec       q    Type
REMARK                         _______ _______ _______ _____ _____    ______ ____
ROOT
ATOM      1  C   UNL     1      -8.447  -0.203  -2.562  0.00  0.00    +0.100 C 
ATOM      2  C   UNL     1      -8.103  -1.171  -3.715  0.00  0.00    +0.121 C 
ATOM      3  N   UNL     1      -9.232  -2.131  -3.748  0.00  0.00    -0.296 N 
ATOM      4  C   UNL     1     -10.431  -1.298  -3.489  0.00  0.00    +0.115 C 
ATOM      5  C   UNL     1      -9.976  -0.286  -2.418  0.00  0.00    -0.004 C 
ATOM      6  C   UNL     1     -10.607   1.078  -2.680  0.00  0.00    -0.010 C 
ATOM      7  C   UNL     1     -12.122   0.983  -2.474  0.00  0.00    -0.082 C 
ATOM      8  N   UNL     1     -12.405   0.546  -1.102  0.00  0.00    +0.379 N 
ATOM      9  C   UNL     1     -11.875  -0.806  -0.888  0.00  0.00    -0.082 C 
ATOM     10  C   UNL     1     -10.350  -0.787  -1.027  0.00  0.00    -0.010 C 
ATOM     11  C   UNL     1      -9.180  -3.460  -3.964  0.00  0.00    +0.247 C 
ATOM     12  O   UNL     1      -8.105  -4.022  -4.037  0.00  0.00    -0.270 OA
ATOM     13  H   UNL     1     -11.970   1.183  -0.451  0.00  0.00    -0.086 HD
ATOM     14  H   UNL     1     -13.402   0.543  -0.951  0.00  0.00    -0.086 HD
ENDROOT
BRANCH  11  15
ATOM     15  C   UNL     1     -10.431  -4.234  -4.113  0.00  0.00    +0.037 A 
ATOM     16  C   UNL     1     -11.618  -3.587  -4.463  0.00  0.00    +0.014 A 
ATOM     17  C   UNL     1     -12.781  -4.315  -4.600  0.00  0.00    +0.016 A 
ATOM     18  C   UNL     1     -12.774  -5.684  -4.390  0.00  0.00    +0.021 A 
ATOM     19  C   UNL     1     -11.600  -6.330  -4.042  0.00  0.00    -0.036 A 
ATOM     20  C   UNL     1     -10.428  -5.615  -3.908  0.00  0.00    +0.017 A 
ATOM     21  C   UNL     1     -11.601  -7.820  -3.816  0.00  0.00    +0.045 C 
ATOM     22 BR   UNL     1     -14.374  -6.674  -4.579  0.00  0.00    -0.050 Br
ENDBRANCH  11  15
BRANCH   1  24
ATOM     23  N   UNL     1      -7.532   0.249  -0.308  0.00  0.00    -0.308 N 
ATOM     24  C   UNL     1      -7.776  -0.645  -1.287  0.00  0.00    +0.219 C 
ATOM     25  O   UNL     1      -7.455  -1.806  -1.142  0.00  0.00    -0.275 OA
ATOM     26  H   UNL     1      -7.789   1.177  -0.424  0.00  0.00    +0.149 HD
BRANCH  23  27
ATOM     27  C   UNL     1      -6.880  -0.181   0.931  0.00  0.00    +0.100 C 
ATOM     28  C   UNL     1      -5.362  -0.166   0.740  0.00  0.00    +0.033 C 
BRANCH  27  32
ATOM     29  C   UNL     1      -7.941   2.480   4.099  0.00  0.00    -0.048 A 
ATOM     30  C   UNL     1      -7.864   1.120   4.335  0.00  0.00    +0.004 A 
ATOM     31  C   UNL     1      -7.521   0.259   3.310  0.00  0.00    +0.006 A 
ATOM     32  C   UNL     1      -7.255   0.757   2.048  0.00  0.00    -0.027 A 
ATOM     33  C   UNL     1      -7.333   2.117   1.812  0.00  0.00    +0.006 A 
ATOM     34  C   UNL     1      -7.680   2.978   2.836  0.00  0.00    +0.004 A 
BRANCH  29  36
ATOM     35  C   UNL     1      -9.835   3.591   5.250  0.00  0.00    +0.009 C 
ATOM     36  C   UNL     1      -8.315   3.418   5.217  0.00  0.00    +0.032 C 
ENDBRANCH  29  36
ENDBRANCH  27  32
ENDBRANCH  23  27
ENDBRANCH   1  24
TORSDOF 5
