REMARK  Name = ZINC33812701
REMARK  15 active torsions:
REMARK  status: ('A' for Active; 'I' for Inactive)
REMARK    1  A    between atoms: C_1  and  C_2
REMARK    2  A    between atoms: C_2  and  C_3
REMARK    3  A    between atoms: C_3  and  C_4
REMARK    4  A    between atoms: C_4  and  C_5
REMARK    5  A    between atoms: C_5  and  C_6
REMARK    6  A    between atoms: C_6  and  N_7
REMARK    7  A    between atoms: C_11  and  C_12
REMARK    8  A    between atoms: C_13  and  C_32
REMARK    9  A    between atoms: C_14  and  C_30
REMARK   10  A    between atoms: N_17  and  C_26
REMARK   11  A    between atoms: C_18  and  N_19
REMARK   12  A    between atoms: N_22  and  C_25
REMARK   13  A    between atoms: C_26  and  C_27
REMARK   14  A    between atoms: C_27  and  C_28
REMARK   15  A    between atoms: C_28  and  C_29
REMARK                            x       y       z     vdW  Elec       q    Type
REMARK                         _______ _______ _______ _____ _____    ______ ____
ROOT
ATOM      1  C   UNL     1      -6.483  -5.601   3.564  0.00  0.00    +0.019 A 
ATOM      2  C   UNL     1      -5.161  -5.130   3.638  0.00  0.00    -0.017 A 
ATOM      3  C   UNL     1      -4.587  -4.928   4.889  0.00  0.00    +0.120 A 
ATOM      4  C   UNL     1      -5.346  -5.201   6.056  0.00  0.00    +0.270 A 
ATOM      5  O   UNL     1      -4.849  -5.026   7.155  0.00  0.00    -0.266 OA
ATOM      6  N   UNL     1      -6.610  -5.651   5.959  0.00  0.00    -0.295 N 
ATOM      7  C   UNL     1      -7.193  -5.851   4.750  0.00  0.00    +0.112 A 
ATOM      8  C   UNL     1      -4.377  -4.848   2.381  0.00  0.00    +0.046 C 
ENDROOT
BRANCH   1  13
ATOM      9  N   UNL     1      -7.521  -2.534   0.706  0.00  0.00    -0.255 N 
ATOM     10  C   UNL     1      -7.198  -3.371   1.676  0.00  0.00    +0.258 C 
ATOM     11  O   UNL     1      -6.767  -2.962   2.740  0.00  0.00    -0.269 OA
ATOM     12  C   UNL     1      -7.369  -4.769   1.440  0.00  0.00    +0.077 C 
ATOM     13  C   UNL     1      -7.116  -5.823   2.263  0.00  0.00    +0.032 C 
ATOM     14  S   UNL     1      -8.008  -4.757  -0.229  0.00  0.00    -0.061 S 
ATOM     15  C   UNL     1      -8.005  -2.987  -0.472  0.00  0.00    +0.121 C 
ATOM     16  S   UNL     1      -8.488  -2.092  -1.849  0.00  0.00    -0.027 S 
BRANCH   9  17
ATOM     17  C   UNL     1      -7.359  -1.093   0.912  0.00  0.00    +0.115 C 
BRANCH  17  18
ATOM     18  C   UNL     1      -8.645  -0.514   1.505  0.00  0.00    +0.019 C 
BRANCH  18  19
ATOM     19  C   UNL     1      -8.475   0.991   1.721  0.00  0.00    +0.002 C 
BRANCH  19  20
ATOM     20  C   UNL     1      -9.762   1.570   2.313  0.00  0.00    -0.000 C 
BRANCH  20  22
ATOM     21  C   UNL     1     -10.878   3.654   3.122  0.00  0.00    +0.004 C 
ATOM     22  C   UNL     1      -9.592   3.075   2.529  0.00  0.00    -0.003 C 
ENDBRANCH  20  22
ENDBRANCH  19  20
ENDBRANCH  18  19
ENDBRANCH  17  18
ENDBRANCH   9  17
ENDBRANCH   1  13
BRANCH   7  23
ATOM     23  N   UNL     1      -8.479  -6.303   4.685  0.00  0.00    -0.320 N 
ATOM     24  C   UNL     1      -9.610  -5.363   4.635  0.00  0.00    +0.088 C 
ATOM     25  C   UNL     1     -10.519  -5.760   3.467  0.00  0.00    -0.060 C 
ATOM     26  N   UNL     1     -10.908  -7.169   3.607  0.00  0.00    +0.380 N 
ATOM     27  C   UNL     1      -9.723  -8.028   3.494  0.00  0.00    -0.060 C 
ATOM     28  C   UNL     1      -8.774  -7.744   4.658  0.00  0.00    +0.088 C 
ATOM     29  C   UNL     1     -11.866  -7.518   2.550  0.00  0.00    -0.096 C 
ATOM     30  H   UNL     1     -11.339  -7.309   4.509  0.00  0.00    -0.082 HD
ENDBRANCH   7  23
BRANCH   3  31
ATOM     31  C   UNL     1      -3.242  -4.449   4.999  0.00  0.00    +0.105 C 
ATOM     32  N   UNL     1      -2.175  -4.069   5.085  0.00  0.00    -0.191 NA
ENDBRANCH   3  31
BRANCH   6  33
ATOM     33  C   UNL     1      -7.371  -5.926   7.180  0.00  0.00    +0.126 C 
BRANCH  33  34
ATOM     34  C   UNL     1      -8.005  -4.629   7.688  0.00  0.00    +0.021 C 
BRANCH  34  35
ATOM     35  C   UNL     1      -8.800  -4.916   8.963  0.00  0.00    -0.002 C 
ATOM     36  C   UNL     1      -9.434  -3.619   9.472  0.00  0.00    +0.004 C 
ENDBRANCH  34  35
ENDBRANCH  33  34
ENDBRANCH   6  33
TORSDOF 11
