REMARK  Name = ZINC12493873
REMARK  5 active torsions:
REMARK  status: ('A' for Active; 'I' for Inactive)
REMARK    1  A    between atoms: C_1  and  S_2
REMARK    2  A    between atoms: S_2  and  C_3
REMARK    3  A    between atoms: C_18  and  C_20
REMARK    4  A    between atoms: C_23  and  S_26
REMARK    5  A    between atoms: S_26  and  N_29
REMARK                            x       y       z     vdW  Elec       q    Type
REMARK                         _______ _______ _______ _____ _____    ______ ____
ROOT
ATOM      1  C   UNL     1      -2.675   1.085  -3.906  0.00  0.00    +0.034 A 
ATOM      2  C   UNL     1      -3.521   2.130  -4.209  0.00  0.00    +0.017 A 
ATOM      3  C   UNL     1      -4.857   2.109  -3.838  0.00  0.00    +0.002 A 
ATOM      4  C   UNL     1      -5.353   1.016  -3.150  0.00  0.00    +0.017 A 
ATOM      5  C   UNL     1      -4.518  -0.031  -2.842  0.00  0.00    +0.042 A 
ATOM      6  C   UNL     1      -3.153  -0.050  -3.200  0.00  0.00    +0.094 A 
ATOM      7  N   UNL     1      -2.464  -1.151  -2.826  0.00  0.00    -0.224 NA
ATOM      8  C   UNL     1      -3.022  -2.143  -2.171  0.00  0.00    +0.162 A 
ATOM      9  S   UNL     1      -4.711  -1.584  -2.001  0.00  0.00    -0.052 S 
ATOM     10  N   UNL     1      -2.449  -3.320  -1.728  0.00  0.00    -0.307 N 
ATOM     11  C   UNL     1      -1.816  -4.047  -2.835  0.00  0.00    +0.126 C 
ATOM     12  C   UNL     1      -1.041  -5.246  -2.278  0.00  0.00    +0.127 C 
ATOM     13  N   UNL     1      -1.953  -6.047  -1.448  0.00  0.00    -0.295 N 
ATOM     14  C   UNL     1      -2.729  -5.361  -0.404  0.00  0.00    +0.127 C 
ATOM     15  C   UNL     1      -3.437  -4.157  -1.035  0.00  0.00    +0.126 C 
ATOM     16  C   UNL     1      -2.076  -7.376  -1.640  0.00  0.00    +0.247 C 
ATOM     17  O   UNL     1      -2.781  -8.034  -0.901  0.00  0.00    -0.270 OA
ENDROOT
BRANCH  16  18
ATOM     18  C   UNL     1      -1.351  -8.033  -2.748  0.00  0.00    +0.037 A 
ATOM     19  C   UNL     1       0.013  -7.798  -2.931  0.00  0.00    +0.015 A 
ATOM     20  C   UNL     1       0.684  -8.418  -3.965  0.00  0.00    +0.029 A 
ATOM     21  C   UNL     1       0.006  -9.262  -4.826  0.00  0.00    +0.106 A 
ATOM     22  C   UNL     1      -1.347  -9.495  -4.654  0.00  0.00    +0.029 A 
ATOM     23  C   UNL     1      -2.029  -8.886  -3.621  0.00  0.00    +0.015 A 
BRANCH  21  24
ATOM     24  S   UNL     1       0.869 -10.046  -6.147  0.00  0.00    +0.061 S 
ATOM     25  O   UNL     1       2.237 -10.094  -5.766  0.00  0.00    -0.153 OA
ATOM     26  O   UNL     1       0.129 -11.212  -6.480  0.00  0.00    -0.153 OA
BRANCH  24  27
ATOM     27  N   UNL     1       0.778  -9.037  -7.457  0.00  0.00    -0.172 NA
ATOM     28  C   UNL     1      -0.328  -9.146  -8.422  0.00  0.00    +0.137 C 
ATOM     29  C   UNL     1      -0.931  -7.747  -8.619  0.00  0.00    +0.177 C 
ATOM     30  O   UNL     1       0.113  -6.829  -8.953  0.00  0.00    -0.377 OA
ATOM     31  C   UNL     1       1.100  -6.668  -7.931  0.00  0.00    +0.177 C 
ATOM     32  C   UNL     1       1.804  -8.009  -7.695  0.00  0.00    +0.137 C 
ENDBRANCH  24  27
ENDBRANCH  21  24
ENDBRANCH  16  18
BRANCH   1  34
ATOM     33  C   UNL     1      -0.845   2.756  -5.248  0.00  0.00    +0.090 C 
ATOM     34  S   UNL     1      -0.985   1.159  -4.398  0.00  0.00    -0.126 S 
ENDBRANCH   1  34
TORSDOF 4
