REMARK  Name = ZINC64816386
REMARK  6 active torsions:
REMARK  status: ('A' for Active; 'I' for Inactive)
REMARK    1  A    between atoms: C_1  and  C_2
REMARK    2  A    between atoms: C_2  and  C_24
REMARK    3  A    between atoms: C_7  and  C_9
REMARK    4  A    between atoms: N_16  and  C_17
REMARK    5  A    between atoms: N_26  and  C_27
REMARK    6  A    between atoms: C_27  and  C_28
REMARK                            x       y       z     vdW  Elec       q    Type
REMARK                         _______ _______ _______ _____ _____    ______ ____
ROOT
ATOM      1  C   UNL     1      -0.997   1.247  -0.538  0.00  0.00    +0.044 C 
ATOM      2  C   UNL     1      -0.582  -0.220  -0.407  0.00  0.00    +0.135 C 
ATOM      3  C   UNL     1      -1.836  -1.074  -0.229  0.00  0.00    +0.179 C 
ATOM      4  N   UNL     1      -2.368  -0.878   1.125  0.00  0.00    -0.256 N 
ATOM      5  C   UNL     1      -1.535  -0.579   2.182  0.00  0.00    +0.125 A 
ATOM      6  C   UNL     1      -2.314  -0.485   3.298  0.00  0.00    +0.065 A 
ATOM      7  C   UNL     1      -3.631  -0.729   2.845  0.00  0.00    +0.128 A 
ATOM      8  N   UNL     1      -3.572  -0.948   1.543  0.00  0.00    -0.167 NA
ATOM      9  C   UNL     1      -0.086  -0.404   1.991  0.00  0.00    +0.270 C 
ATOM     10  O   UNL     1       0.678  -0.315   2.933  0.00  0.00    -0.268 OA
ATOM     11  N   UNL     1       0.349  -0.349   0.709  0.00  0.00    -0.250 N 
ENDROOT
BRANCH  11  12
ATOM     12  C   UNL     1       1.722  -0.416   0.450  0.00  0.00    +0.038 A 
ATOM     13  C   UNL     1       2.377   0.669  -0.116  0.00  0.00    +0.025 A 
ATOM     14  C   UNL     1       3.733   0.600  -0.371  0.00  0.00    +0.022 A 
ATOM     15  C   UNL     1       4.438  -0.550  -0.062  0.00  0.00    +0.041 A 
ATOM     16  C   UNL     1       3.787  -1.634   0.502  0.00  0.00    +0.022 A 
ATOM     17  C   UNL     1       2.433  -1.567   0.764  0.00  0.00    +0.025 A 
ATOM     18 CL   UNL     1       6.141  -0.635  -0.384  0.00  0.00    -0.084 Cl
ENDBRANCH  11  12
BRANCH   7  19
ATOM     19  C   UNL     1      -4.853  -0.736   3.678  0.00  0.00    +0.155 A 
ATOM     20  C   UNL     1      -6.116  -0.977   3.237  0.00  0.00    +0.051 A 
ATOM     21  C   UNL     1      -6.963  -0.885   4.361  0.00  0.00    +0.042 A 
ATOM     22  C   UNL     1      -6.182  -0.596   5.420  0.00  0.00    +0.196 A 
ATOM     23  O   UNL     1      -4.907  -0.512   5.004  0.00  0.00    -0.461 OA
ENDBRANCH   7  19
BRANCH   2  24
ATOM     24  C   UNL     1       0.117  -0.642  -1.674  0.00  0.00    +0.239 C 
ATOM     25  O   UNL     1      -0.033   0.000  -2.692  0.00  0.00    -0.273 OA
ATOM     26  N   UNL     1       0.907  -1.734  -1.676  0.00  0.00    -0.309 N 
ATOM     27  H   UNL     1       0.963  -2.293  -0.886  0.00  0.00    +0.149 HD
BRANCH  26  28
ATOM     28  C   UNL     1       1.683  -2.075  -2.871  0.00  0.00    +0.139 C 
BRANCH  28  29
ATOM     29  C   UNL     1       2.382  -3.392  -2.658  0.00  0.00    -0.028 A 
ATOM     30  C   UNL     1       3.666  -3.418  -2.144  0.00  0.00    +0.005 A 
ATOM     31  C   UNL     1       4.308  -4.626  -1.948  0.00  0.00    +0.003 A 
ATOM     32  C   UNL     1       3.668  -5.809  -2.265  0.00  0.00    +0.038 A 
ATOM     33  C   UNL     1       2.383  -5.785  -2.779  0.00  0.00    +0.124 A 
ATOM     34  C   UNL     1       1.738  -4.574  -2.970  0.00  0.00    +0.043 A 
ATOM     35  F   UNL     1       1.757  -6.941  -3.089  0.00  0.00    -0.205 F 
ENDBRANCH  28  29
ENDBRANCH  26  28
ENDBRANCH   2  24
TORSDOF 5
