REMARK  Name = ZINC59170690
REMARK  7 active torsions:
REMARK  status: ('A' for Active; 'I' for Inactive)
REMARK    1  A    between atoms: C_1  and  O_2
REMARK    2  A    between atoms: O_2  and  C_3
REMARK    3  A    between atoms: N_11  and  C_12
REMARK    4  A    between atoms: C_15  and  S_18
REMARK    5  A    between atoms: S_18  and  N_21
REMARK    6  A    between atoms: C_22  and  C_24
REMARK    7  A    between atoms: N_26  and  C_27
REMARK                            x       y       z     vdW  Elec       q    Type
REMARK                         _______ _______ _______ _____ _____    ______ ____
ROOT
ATOM      1  C   UNL     1       0.669  -0.780   1.254  0.00  0.00    +0.163 A 
ATOM      2  C   UNL     1       0.746  -0.172   2.496  0.00  0.00    +0.049 A 
ATOM      3  C   UNL     1       0.735  -0.931   3.656  0.00  0.00    +0.004 A 
ATOM      4  C   UNL     1       0.649  -2.303   3.591  0.00  0.00    +0.012 A 
ATOM      5  C   UNL     1       0.572  -2.936   2.344  0.00  0.00    +0.022 A 
ATOM      6  C   UNL     1       0.574  -2.166   1.167  0.00  0.00    +0.179 A 
ATOM      7  O   UNL     1       0.486  -2.777  -0.040  0.00  0.00    -0.435 OA
ATOM      8  C   UNL     1       0.956  -4.047  -0.123  0.00  0.00    +0.212 A 
ATOM      9  N   UNL     1       1.644  -4.448  -1.171  0.00  0.00    -0.325 N 
ATOM     10  C   UNL     1       0.673  -4.965   0.998  0.00  0.00    +0.098 A 
ATOM     11  C   UNL     1       0.487  -4.395   2.248  0.00  0.00    +0.030 A 
ATOM     12  H   UNL     1       2.074  -5.318  -1.165  0.00  0.00    +0.169 HD
ENDROOT
BRANCH   9  13
ATOM     13  C   UNL     1       1.753  -3.639  -2.268  0.00  0.00    +0.042 A 
ATOM     14  C   UNL     1       0.628  -2.978  -2.767  0.00  0.00    +0.027 A 
ATOM     15  C   UNL     1       0.745  -2.163  -3.873  0.00  0.00    +0.030 A 
ATOM     16  C   UNL     1       1.974  -2.000  -4.489  0.00  0.00    +0.105 A 
ATOM     17  C   UNL     1       3.092  -2.652  -4.001  0.00  0.00    +0.030 A 
ATOM     18  C   UNL     1       2.991  -3.465  -2.891  0.00  0.00    +0.027 A 
BRANCH  16  19
ATOM     19  S   UNL     1       2.114  -0.958  -5.903  0.00  0.00    +0.056 S 
ATOM     20  O   UNL     1       3.257  -1.401  -6.622  0.00  0.00    -0.153 OA
ATOM     21  O   UNL     1       0.822  -0.894  -6.490  0.00  0.00    -0.153 OA
BRANCH  19  22
ATOM     22  N   UNL     1       2.461   0.566  -5.355  0.00  0.00    -0.204 NA
ATOM     23  H   UNL     1       2.987   1.170  -5.902  0.00  0.00    +0.144 HD
ATOM     24  H   UNL     1       2.138   0.854  -4.487  0.00  0.00    +0.144 HD
ENDBRANCH  19  22
ENDBRANCH  16  19
ENDBRANCH   9  13
BRANCH  10  25
ATOM     25  C   UNL     1       0.602  -6.423   0.799  0.00  0.00    +0.253 C 
ATOM     26  O   UNL     1       0.474  -7.162   1.756  0.00  0.00    -0.270 OA
ATOM     27  N   UNL     1       0.679  -6.938  -0.444  0.00  0.00    -0.279 N 
ATOM     28  H   UNL     1       0.829  -6.352  -1.203  0.00  0.00    +0.155 HD
BRANCH  27  29
ATOM     29  C   UNL     1       0.544  -8.317  -0.640  0.00  0.00    +0.069 A 
ATOM     30  C   UNL     1       0.767  -9.194   0.412  0.00  0.00    +0.026 A 
ATOM     31  C   UNL     1       0.633 -10.555   0.216  0.00  0.00    +0.002 A 
ATOM     32  C   UNL     1       0.277 -11.045  -1.028  0.00  0.00    +0.003 A 
ATOM     33  C   UNL     1       0.054 -10.175  -2.079  0.00  0.00    +0.040 A 
ATOM     34  C   UNL     1       0.180  -8.811  -1.888  0.00  0.00    +0.144 A 
ATOM     35  F   UNL     1      -0.044  -7.961  -2.914  0.00  0.00    -0.204 F 
ENDBRANCH  27  29
ENDBRANCH  10  25
BRANCH   1  37
ATOM     36  C   UNL     1       0.779   1.391   0.289  0.00  0.00    +0.277 C 
ATOM     37  O   UNL     1       0.679  -0.025   0.123  0.00  0.00    -0.491 OA
ENDBRANCH   1  37
TORSDOF 6
