REMARK  Name = ZINC40827729
REMARK  3 active torsions:
REMARK  status: ('A' for Active; 'I' for Inactive)
REMARK    1  A    between atoms: C_3  and  N_9
REMARK    2  A    between atoms: N_12  and  C_13
REMARK    3  A    between atoms: C_13  and  N_14
REMARK                            x       y       z     vdW  Elec       q    Type
REMARK                         _______ _______ _______ _____ _____    ______ ____
ROOT
ATOM      1  N   UNL     1       3.585   2.127  -0.021  0.00  0.00    -0.268 N 
ATOM      2  C   UNL     1       3.568   3.472  -0.116  0.00  0.00    +0.305 C 
ATOM      3  O   UNL     1       2.509   4.069  -0.103  0.00  0.00    -0.252 OA
ATOM      4  N   UNL     1       4.726   4.154  -0.225  0.00  0.00    -0.283 N 
ATOM      5  H   UNL     1       4.429   1.656   0.051  0.00  0.00    +0.156 HD
ATOM      6  H   UNL     1       5.570   3.677  -0.236  0.00  0.00    +0.152 HD
ENDROOT
BRANCH   1   9
ATOM      7  C   UNL     1       0.066   1.243  -0.626  0.00  0.00    +0.022 A 
ATOM      8  C   UNL     1       1.251   1.953  -0.622  0.00  0.00    +0.026 A 
ATOM      9  C   UNL     1       2.381   1.410  -0.026  0.00  0.00    +0.053 A 
ATOM     10  C   UNL     1       2.317   0.154   0.565  0.00  0.00    +0.064 A 
ATOM     11  C   UNL     1       1.129  -0.551   0.557  0.00  0.00    +0.041 A 
ATOM     12  C   UNL     1       0.004  -0.007  -0.037  0.00  0.00    +0.042 A 
ATOM     13 CL   UNL     1      -1.488  -0.895  -0.044  0.00  0.00    -0.083 Cl
ATOM     14 CL   UNL     1       3.728  -0.529   1.310  0.00  0.00    -0.082 Cl
ENDBRANCH   1   9
BRANCH   4  15
ATOM     15  C   UNL     1       4.708   5.615  -0.329  0.00  0.00    +0.225 C 
BRANCH  15  16
ATOM     16  N   UNL     1       4.894   6.200   1.001  0.00  0.00    -0.225 N 
ATOM     17  C   UNL     1       3.860   6.498   1.857  0.00  0.00    +0.227 C 
ATOM     18  O   UNL     1       2.720   6.089   1.812  0.00  0.00    -0.275 OA
ATOM     19  C   UNL     1       4.459   7.444   2.860  0.00  0.00    +0.095 C 
ATOM     20  C   UNL     1       4.103   7.395   4.350  0.00  0.00    +0.025 C 
ATOM     21  C   UNL     1       5.441   8.116   4.840  0.00  0.00    +0.016 C 
ATOM     22  C   UNL     1       6.373   6.951   4.306  0.00  0.00    +0.025 C 
ATOM     23  C   UNL     1       5.824   6.644   2.937  0.00  0.00    +0.095 C 
ATOM     24  C   UNL     1       6.133   6.511   1.539  0.00  0.00    +0.227 C 
ATOM     25  O   UNL     1       7.200   6.639   0.978  0.00  0.00    -0.275 OA
ATOM     26  C   UNL     1       5.665   5.789   5.073  0.00  0.00    -0.027 C 
ATOM     27  C   UNL     1       4.352   6.044   4.990  0.00  0.00    -0.027 C 
ENDBRANCH  15  16
ENDBRANCH   4  15
TORSDOF 3
