REMARK  Name = ZINC59288587
REMARK  5 active torsions:
REMARK  status: ('A' for Active; 'I' for Inactive)
REMARK    1  A    between atoms: N_11  and  C_12
REMARK    2  A    between atoms: C_12  and  C_14
REMARK    3  A    between atoms: C_14  and  C_15
REMARK    4  A    between atoms: C_18  and  N_21
REMARK    5  A    between atoms: C_22  and  C_24
REMARK                            x       y       z     vdW  Elec       q    Type
REMARK                         _______ _______ _______ _____ _____    ______ ____
ROOT
ATOM      1  C   UNL     1       7.153  -4.215  -0.384  0.00  0.00    -0.038 A 
ATOM      2  C   UNL     1       7.720  -4.027  -1.631  0.00  0.00    +0.006 A 
ATOM      3  C   UNL     1       9.070  -3.759  -1.744  0.00  0.00    +0.023 A 
ATOM      4  C   UNL     1       9.858  -3.678  -0.603  0.00  0.00    +0.034 A 
ATOM      5  C   UNL     1       9.285  -3.867   0.648  0.00  0.00    +0.023 A 
ATOM      6  C   UNL     1       7.934  -4.130   0.754  0.00  0.00    +0.006 A 
ENDROOT
BRANCH   4   7
ATOM      7  N   UNL     1      11.226  -3.407  -0.713  0.00  0.00    -0.279 N 
ATOM      8  C   UNL     1      12.097  -3.977   0.142  0.00  0.00    +0.284 C 
ATOM      9  O   UNL     1      11.688  -4.662   1.062  0.00  0.00    -0.266 OA
ATOM     10  H   UNL     1      11.547  -2.809  -1.406  0.00  0.00    +0.155 HD
BRANCH   8  11
ATOM     11  C   UNL     1      13.537  -3.773  -0.034  0.00  0.00    +0.191 A 
ATOM     12  C   UNL     1      14.524  -4.295   0.753  0.00  0.00    +0.056 A 
ATOM     13  C   UNL     1      15.743  -3.845   0.224  0.00  0.00    +0.058 A 
ATOM     14  C   UNL     1      15.451  -3.077  -0.851  0.00  0.00    +0.171 A 
ATOM     15  O   UNL     1      14.121  -3.042  -1.006  0.00  0.00    -0.444 OA
ATOM     16 BR   UNL     1      16.713  -2.205  -1.957  0.00  0.00    -0.008 Br
ENDBRANCH   8  11
ENDBRANCH   4   7
BRANCH   1  17
ATOM     17  C   UNL     1       5.679  -4.508  -0.265  0.00  0.00    +0.133 C 
BRANCH  17  18
ATOM     18  C   UNL     1       4.918  -3.212  -0.145  0.00  0.00    +0.243 C 
ATOM     19  O   UNL     1       5.515  -2.153  -0.155  0.00  0.00    -0.273 OA
BRANCH  18  30
ATOM     20  C   UNL     1       0.009   1.437  -0.003  0.00  0.00    +0.002 A 
ATOM     21  C   UNL     1       1.198   2.146  -0.015  0.00  0.00    +0.002 A 
ATOM     22  C   UNL     1       2.407   1.478  -0.025  0.00  0.00    +0.028 A 
ATOM     23  C   UNL     1       2.430   0.091  -0.023  0.00  0.00    +0.065 A 
ATOM     24  C   UNL     1       1.230  -0.624  -0.011  0.00  0.00    +0.065 A 
ATOM     25  C   UNL     1       0.021   0.057  -0.001  0.00  0.00    +0.028 A 
ATOM     26  N   UNL     1       1.559  -1.976  -0.012  0.00  0.00    -0.326 N 
ATOM     27  H   UNL     1       0.929  -2.714  -0.005  0.00  0.00    +0.169 HD
ATOM     28  C   UNL     1       2.913  -2.085  -0.024  0.00  0.00    +0.198 A 
ATOM     29  N   UNL     1       3.462  -0.842  -0.030  0.00  0.00    -0.326 N 
ATOM     30  N   UNL     1       3.594  -3.228  -0.028  0.00  0.00    -0.147 NA
ATOM     31  H   UNL     1       4.411  -0.639  -0.040  0.00  0.00    +0.169 HD
ENDBRANCH  18  30
ENDBRANCH  17  18
ENDBRANCH   1  17
TORSDOF 5
