REMARK  Name = ZINC27651155
REMARK  7 active torsions:
REMARK  status: ('A' for Active; 'I' for Inactive)
REMARK    1  A    between atoms: C_1  and  C_2
REMARK    2  A    between atoms: C_4  and  O_22
REMARK    3  A    between atoms: C_6  and  O_9
REMARK    4  A    between atoms: O_9  and  C_10
REMARK    5  A    between atoms: C_14  and  N_16
REMARK    6  A    between atoms: O_22  and  C_23
REMARK    7  A    between atoms: C_27  and  C_29
REMARK                            x       y       z     vdW  Elec       q    Type
REMARK                         _______ _______ _______ _____ _____    ______ ____
ROOT
ATOM      1  C   UNL     1       0.334   1.584   0.292  0.00  0.00    +0.050 C 
ATOM      2  C   UNL     1      -0.420   2.365   1.338  0.00  0.00    +0.030 A 
ATOM      3  C   UNL     1      -1.579   1.855   1.905  0.00  0.00    +0.191 A 
ATOM      4  C   UNL     1      -2.246   2.600   2.870  0.00  0.00    +0.260 A 
ATOM      5  N   UNL     1      -1.792   3.786   3.241  0.00  0.00    -0.172 NA
ATOM      6  C   UNL     1      -0.693   4.304   2.717  0.00  0.00    +0.260 A 
ATOM      7  C   UNL     1       0.026   3.611   1.751  0.00  0.00    +0.191 A 
ATOM      8  F   UNL     1       1.148   4.146   1.220  0.00  0.00    -0.200 F 
ATOM      9  F   UNL     1      -2.051   0.647   1.528  0.00  0.00    -0.200 F 
ENDROOT
BRANCH   6  10
ATOM     10  O   UNL     1      -0.264   5.525   3.127  0.00  0.00    -0.436 OA
BRANCH  10  11
ATOM     11  C   UNL     1      -1.062   6.231   3.970  0.00  0.00    +0.132 A 
ATOM     12  C   UNL     1      -2.426   5.977   4.012  0.00  0.00    +0.046 A 
ATOM     13  C   UNL     1      -3.239   6.694   4.869  0.00  0.00    +0.005 A 
ATOM     14  C   UNL     1      -2.696   7.667   5.687  0.00  0.00    +0.023 A 
ATOM     15  C   UNL     1      -1.332   7.926   5.649  0.00  0.00    +0.033 A 
ATOM     16  C   UNL     1      -0.513   7.202   4.793  0.00  0.00    +0.069 A 
BRANCH  15  17
ATOM     17  N   UNL     1      -0.784   8.909   6.476  0.00  0.00    -0.330 N 
ATOM     18  C   UNL     1       0.292   8.357   7.309  0.00  0.00    +0.105 C 
ATOM     19  C   UNL     1       0.964   9.488   8.092  0.00  0.00    +0.019 C 
ATOM     20  C   UNL     1      -0.080  10.185   8.969  0.00  0.00    +0.003 C 
ATOM     21  C   UNL     1      -1.213  10.708   8.082  0.00  0.00    +0.019 C 
ATOM     22  C   UNL     1      -1.822   9.543   7.300  0.00  0.00    +0.105 C 
ENDBRANCH  15  17
ENDBRANCH  10  11
ENDBRANCH   6  10
BRANCH   4  23
ATOM     23  O   UNL     1      -3.378   2.107   3.435  0.00  0.00    -0.436 OA
BRANCH  23  24
ATOM     24  C   UNL     1      -3.914   2.784   4.484  0.00  0.00    +0.131 A 
ATOM     25  C   UNL     1      -3.103   3.572   5.289  0.00  0.00    +0.046 A 
ATOM     26  C   UNL     1      -3.644   4.263   6.357  0.00  0.00    +0.004 A 
ATOM     27  C   UNL     1      -4.994   4.173   6.630  0.00  0.00    +0.011 A 
ATOM     28  C   UNL     1      -5.816   3.384   5.827  0.00  0.00    +0.016 A 
ATOM     29  C   UNL     1      -5.271   2.692   4.746  0.00  0.00    +0.057 A 
BRANCH  28  30
ATOM     30  C   UNL     1      -7.265   3.286   6.117  0.00  0.00    +0.094 C 
ATOM     31  N   UNL     1      -8.031   2.548   5.365  0.00  0.00    -0.387 N 
ATOM     32  N   UNL     1      -7.803   3.975   7.182  0.00  0.00    -0.345 N 
ATOM     33  H   UNL     1      -9.107   2.475   5.581  0.00  0.00    +0.157 HD
ATOM     34  H   UNL     1      -8.879   3.902   7.397  0.00  0.00    +0.144 HD
ATOM     35  H   UNL     1      -7.156   4.598   7.817  0.00  0.00    +0.144 HD
ATOM     36  H   UNL     1      -7.602   1.998   4.515  0.00  0.00    +0.157 HD
ENDBRANCH  28  30
ENDBRANCH  23  24
ENDBRANCH   4  23
TORSDOF 6
