REMARK  Name = ZINC12380140
REMARK  9 active torsions:
REMARK  status: ('A' for Active; 'I' for Inactive)
REMARK    1  A    between atoms: C_1  and  C_2
REMARK    2  A    between atoms: C_2  and  C_4
REMARK    3  A    between atoms: C_7  and  N_10
REMARK    4  A    between atoms: C_11  and  C_13
REMARK    5  A    between atoms: C_13  and  C_14
REMARK    6  A    between atoms: C_14  and  N_15
REMARK    7  A    between atoms: C_19  and  C_20
REMARK    8  A    between atoms: C_25  and  O_26
REMARK    9  A    between atoms: O_26  and  C_27
REMARK                            x       y       z     vdW  Elec       q    Type
REMARK                         _______ _______ _______ _____ _____    ______ ____
ROOT
ATOM      1  N   UNL     1      -7.753   7.512   0.558  0.00  0.00    -0.255 N 
ATOM      2  C   UNL     1      -8.156   7.917   1.751  0.00  0.00    +0.258 C 
ATOM      3  O   UNL     1      -7.673   7.469   2.775  0.00  0.00    -0.269 OA
ATOM      4  C   UNL     1      -9.222   8.938   1.778  0.00  0.00    +0.077 C 
ATOM      5  C   UNL     1      -9.825   9.531   2.839  0.00  0.00    +0.031 C 
ATOM      6  S   UNL     1      -9.501   9.177   0.028  0.00  0.00    -0.061 S 
ATOM      7  C   UNL     1      -8.287   8.014  -0.574  0.00  0.00    +0.121 C 
ATOM      8  S   UNL     1      -7.899   7.627  -2.196  0.00  0.00    -0.027 S 
ENDROOT
BRANCH   5   9
ATOM      9  C   UNL     1      -9.315   9.302   4.196  0.00  0.00    +0.018 A 
ATOM     10  C   UNL     1      -7.937   9.220   4.426  0.00  0.00    +0.011 A 
ATOM     11  C   UNL     1      -7.465   9.010   5.704  0.00  0.00    +0.001 A 
ATOM     12  C   UNL     1      -8.350   8.867   6.761  0.00  0.00    +0.004 A 
ATOM     13  C   UNL     1      -9.713   8.939   6.548  0.00  0.00    +0.046 A 
ATOM     14  C   UNL     1     -10.207   9.156   5.271  0.00  0.00    +0.127 A 
BRANCH  14  15
ATOM     15  O   UNL     1     -11.546   9.228   5.061  0.00  0.00    -0.495 OA
ATOM     16  C   UNL     1     -12.391   9.070   6.203  0.00  0.00    +0.277 C 
ENDBRANCH  14  15
ENDBRANCH   5   9
BRANCH   1  17
ATOM     17  C   UNL     1      -6.698   6.500   0.464  0.00  0.00    +0.124 C 
BRANCH  17  18
ATOM     18  C   UNL     1      -7.328   5.106   0.448  0.00  0.00    +0.115 C 
BRANCH  18  20
ATOM     19  N   UNL     1      -6.564   2.756   0.321  0.00  0.00    -0.285 N 
ATOM     20  C   UNL     1      -6.242   4.065   0.351  0.00  0.00    +0.219 C 
ATOM     21  O   UNL     1      -5.079   4.405   0.301  0.00  0.00    -0.275 OA
ATOM     22  H   UNL     1      -7.495   2.487   0.287  0.00  0.00    +0.155 HD
BRANCH  19  26
ATOM     23  C   UNL     1      -3.564  -0.125   0.374  0.00  0.00    +0.017 A 
ATOM     24  C   UNL     1      -4.752  -0.360  -0.330  0.00  0.00    +0.013 A 
ATOM     25  C   UNL     1      -5.740   0.590  -0.341  0.00  0.00    +0.024 A 
ATOM     26  C   UNL     1      -5.560   1.792   0.339  0.00  0.00    +0.033 A 
ATOM     27  C   UNL     1      -4.379   2.032   1.036  0.00  0.00    +0.024 A 
ATOM     28  C   UNL     1      -3.388   1.085   1.056  0.00  0.00    +0.013 A 
BRANCH  23  30
ATOM     29  C   UNL     1      -2.700  -2.447  -0.336  0.00  0.00    +0.091 C 
ATOM     30  C   UNL     1      -2.505  -1.143   0.393  0.00  0.00    +0.160 C 
ATOM     31  O   UNL     1      -1.476  -0.935   1.000  0.00  0.00    -0.292 OA
ENDBRANCH  23  30
ENDBRANCH  19  26
ENDBRANCH  18  20
ENDBRANCH  17  18
ENDBRANCH   1  17
TORSDOF 7
