REMARK  Name = ZINC05374315
REMARK  11 active torsions:
REMARK  status: ('A' for Active; 'I' for Inactive)
REMARK    1  A    between atoms: C_1  and  C_2
REMARK    2  A    between atoms: C_2  and  C_34
REMARK    3  A    between atoms: C_4  and  N_11
REMARK    4  A    between atoms: C_6  and  C_9
REMARK    5  A    between atoms: C_6  and  C_10
REMARK    6  A    between atoms: N_7  and  O_8
REMARK    7  A    between atoms: N_18  and  C1*_21
REMARK    8  A    between atoms: C2*_23  and  O2*_33
REMARK    9  A    between atoms: C3*_25  and  O3*_32
REMARK   10  A    between atoms: C4*_27  and  C5*_30
REMARK   11  A    between atoms: C5*_30  and  O5*_31
REMARK                            x       y       z     vdW  Elec       q    Type
REMARK                         _______ _______ _______ _____ _____    ______ ____
ROOT
ATOM      1  N   UNL     1      -0.011   0.966   0.002  0.00  0.00    -0.324 N 
ATOM      2  C   UNL     1       1.178   1.674  -0.007  0.00  0.00    +0.150 A 
ATOM      3  C   UNL     1       2.413   1.004  -0.013  0.00  0.00    +0.147 A 
ATOM      4  C   UNL     1       3.587   1.778  -0.027  0.00  0.00    +0.167 A 
ATOM      5  N   UNL     1       3.487   3.103  -0.025  0.00  0.00    -0.216 NA
ATOM      6  C   UNL     1       2.307   3.687  -0.014  0.00  0.00    +0.225 A 
ATOM      7  N   UNL     1       1.178   3.003  -0.006  0.00  0.00    -0.219 NA
ATOM      8  N   UNL     1       4.628   0.884  -0.036  0.00  0.00    -0.286 N 
ATOM      9  C   UNL     1       4.092  -0.369  -0.034  0.00  0.00    +0.203 A 
ATOM     10  N   UNL     1       2.792  -0.296  -0.023  0.00  0.00    -0.231 NA
ATOM     11  H   UNL     1       0.055   0.394   0.820  0.00  0.00    +0.148 HD
ENDROOT
BRANCH   1  15
ATOM     12  C   UNL     1      -3.763   2.546  -1.683  0.00  0.00    +0.030 C 
ATOM     13  C   UNL     1      -3.727   1.493  -0.568  0.00  0.00    +0.043 C 
ATOM     14  C   UNL     1      -2.376   0.781  -0.583  0.00  0.00    +0.046 C 
ATOM     15  C   UNL     1      -1.293   1.683   0.008  0.00  0.00    +0.075 C 
ATOM     16  C   UNL     1      -1.674   2.021   1.449  0.00  0.00    +0.046 C 
ATOM     17  C   UNL     1      -3.015   2.749   1.486  0.00  0.00    +0.043 C 
ATOM     18  N   UNL     1      -4.043   2.080   0.717  0.00  0.00    -0.180 NA
ATOM     19  C   UNL     1      -2.825   4.197   1.017  0.00  0.00    +0.030 C 
ATOM     20  C   UNL     1      -3.474   2.803   2.960  0.00  0.00    +0.030 C 
ATOM     21  C   UNL     1      -4.810   0.442  -0.898  0.00  0.00    +0.030 C 
BRANCH  18  22
ATOM     22  O   UNL     1      -5.292   2.841   0.684  0.00  0.00    -0.311 OA
ATOM     23  H   UNL     1      -5.529   3.246   1.530  0.00  0.00    +0.237 HD
ENDBRANCH  18  22
ENDBRANCH   1  15
BRANCH   8  24
ATOM     24  C1* UNL     1       6.055   1.217  -0.049  0.00  0.00    +0.253 C 
ATOM     25  C2* UNL     1       6.536   1.575   1.375  0.00  0.00    +0.195 C 
ATOM     26  C3* UNL     1       7.106   0.248   1.924  0.00  0.00    +0.178 C 
ATOM     27  C4* UNL     1       6.902  -0.755   0.767  0.00  0.00    +0.177 C 
ATOM     28  O4* UNL     1       6.837   0.061  -0.422  0.00  0.00    -0.346 OA
BRANCH  26  29
ATOM     29  O3* UNL     1       8.494   0.388   2.230  0.00  0.00    -0.386 OA
ATOM     30  H3* UNL     1       8.903  -0.416   2.579  0.00  0.00    +0.210 HD
ENDBRANCH  26  29
BRANCH  25  31
ATOM     31  O2* UNL     1       5.439   2.019   2.177  0.00  0.00    -0.385 OA
ATOM     32  H2* UNL     1       5.685   2.257   3.081  0.00  0.00    +0.210 HD
ENDBRANCH  25  31
BRANCH  27  33
ATOM     33  C5* UNL     1       8.085  -1.722   0.686  0.00  0.00    +0.190 C 
BRANCH  33  34
ATOM     34  O5* UNL     1       7.824  -2.711  -0.312  0.00  0.00    -0.392 OA
ATOM     35  H5* UNL     1       8.534  -3.359  -0.418  0.00  0.00    +0.210 HD
ENDBRANCH  33  34
ENDBRANCH  27  33
ENDBRANCH   8  24
TORSDOF 7
