REMARK  Name = ZINC65423462
REMARK  9 active torsions:
REMARK  status: ('A' for Active; 'I' for Inactive)
REMARK    1  A    between atoms: C_1  and  C_2
REMARK    2  A    between atoms: C_4  and  C_23
REMARK    3  A    between atoms: C_6  and  N_8
REMARK    4  A    between atoms: C_11  and  C_14
REMARK    5  A    between atoms: C_14  and  C_16
REMARK    6  A    between atoms: C_14  and  O_22
REMARK    7  A    between atoms: N_20  and  C_21
REMARK    8  A    between atoms: C_23  and  C_24
REMARK    9  A    between atoms: C_23  and  C_25
REMARK                            x       y       z     vdW  Elec       q    Type
REMARK                         _______ _______ _______ _____ _____    ______ ____
ROOT
ATOM      1  N   UNL     1       0.050  -2.657   2.389  0.00  0.00    -0.315 N 
ATOM      2  C   UNL     1       0.041  -1.919   3.659  0.00  0.00    +0.107 C 
ATOM      3  C   UNL     1       1.219  -2.396   4.515  0.00  0.00    +0.025 C 
ATOM      4  C   UNL     1       1.149  -3.917   4.670  0.00  0.00    +0.028 C 
ATOM      5  C   UNL     1       1.253  -4.577   3.294  0.00  0.00    +0.025 C 
ATOM      6  C   UNL     1       0.070  -4.125   2.424  0.00  0.00    +0.107 C 
ENDROOT
BRANCH   1  12
ATOM      7  C   UNL     1       0.425   1.474  -0.011  0.00  0.00    +0.086 C 
ATOM      8  C   UNL     1       0.209  -0.017  -0.008  0.00  0.00    +0.106 A 
ATOM      9  N   UNL     1       0.011  -0.639  -1.153  0.00  0.00    -0.347 N 
ATOM     10  C   UNL     1      -0.184  -1.949  -1.195  0.00  0.00    +0.023 A 
ATOM     11  C   UNL     1      -0.177  -2.669  -0.016  0.00  0.00    +0.065 A 
ATOM     12  C   UNL     1       0.035  -1.980   1.180  0.00  0.00    +0.125 A 
ATOM     13  N   UNL     1       0.228  -0.665   1.139  0.00  0.00    -0.220 NA
ATOM     14  H   UNL     1       0.007  -0.129  -1.979  0.00  0.00    +0.167 HD
BRANCH  10  15
ATOM     15  C   UNL     1      -0.410  -2.645  -2.512  0.00  0.00    +0.030 C 
ATOM     16  C   UNL     1      -1.204  -1.728  -3.444  0.00  0.00    +0.013 C 
ATOM     17  C   UNL     1       0.940  -2.977  -3.152  0.00  0.00    +0.013 C 
ENDBRANCH  10  15
ENDBRANCH   1  12
BRANCH   4  18
ATOM     18  C   UNL     1       2.304  -4.393   5.553  0.00  0.00    +0.181 C 
BRANCH  18  19
ATOM     19  C   UNL     1       2.236  -5.891   5.706  0.00  0.00    +0.116 A 
ATOM     20  N   UNL     1       2.737  -6.764   4.876  0.00  0.00    -0.348 N 
ATOM     21  C   UNL     1       2.488  -8.001   5.331  0.00  0.00    +0.102 A 
ATOM     22  C   UNL     1       1.805  -7.890   6.486  0.00  0.00    +0.104 A 
ATOM     23  N   UNL     1       1.650  -6.551   6.728  0.00  0.00    -0.337 N 
ATOM     24  C   UNL     1       0.972  -5.948   7.878  0.00  0.00    +0.150 C 
ATOM     25  H   UNL     1       3.216  -6.552   4.059  0.00  0.00    +0.167 HD
ENDBRANCH  18  19
BRANCH  18  26
ATOM     26  O   UNL     1       3.547  -4.032   4.946  0.00  0.00    -0.384 OA
ATOM     27  H   UNL     1       3.682  -4.415   4.069  0.00  0.00    +0.210 HD
ENDBRANCH  18  26
ENDBRANCH   4  18
TORSDOF 5
