REMARK  Name = ZINC63374646
REMARK  14 active torsions:
REMARK  status: ('A' for Active; 'I' for Inactive)
REMARK    1  A    between atoms: C_1  and  C_2
REMARK    2  A    between atoms: C_2  and  C_3
REMARK    3  A    between atoms: C_3  and  C_4
REMARK    4  A    between atoms: C_4  and  C_5
REMARK    5  A    between atoms: C_5  and  N_6
REMARK    6  A    between atoms: C_12  and  C_28
REMARK    7  A    between atoms: C_24  and  C_27
REMARK    8  A    between atoms: C_31  and  O_37
REMARK    9  A    between atoms: C_32  and  O_34
REMARK   10  A    between atoms: O_34  and  C_35
REMARK   11  A    between atoms: C_35  and  C_36
REMARK   12  A    between atoms: O_37  and  C_38
REMARK   13  A    between atoms: C_38  and  C_39
REMARK   14  A    between atoms: C_39  and  C_40
REMARK                            x       y       z     vdW  Elec       q    Type
REMARK                         _______ _______ _______ _____ _____    ______ ____
ROOT
ATOM      1  N   UNL     1       1.143  -3.917  -2.931  0.00  0.00    -0.291 N 
ATOM      2  C   UNL     1       2.305  -4.693  -2.459  0.00  0.00    +0.203 C 
ATOM      3  C   UNL     1       1.807  -5.844  -1.611  0.00  0.00    +0.234 C 
ATOM      4  O   UNL     1       2.350  -6.148  -0.570  0.00  0.00    -0.274 OA
ATOM      5  N   UNL     1       0.710  -6.528  -2.078  0.00  0.00    -0.283 N 
ATOM      6  C   UNL     1       0.099  -7.490  -1.177  0.00  0.00    +0.121 C 
ATOM      7  C   UNL     1      -0.853  -8.462  -1.879  0.00  0.00    +0.065 C 
ATOM      8  C   UNL     1      -1.615  -7.644  -2.891  0.00  0.00    -0.027 C 
ATOM      9  C   UNL     1      -2.905  -7.391  -3.056  0.00  0.00    -0.000 A 
ATOM     10  C   UNL     1      -4.105  -7.918  -2.386  0.00  0.00    +0.010 A 
ATOM     11  C   UNL     1      -5.296  -7.410  -2.800  0.00  0.00    +0.001 A 
ATOM     12  C   UNL     1      -5.412  -6.440  -3.801  0.00  0.00    +0.002 A 
ATOM     13  C   UNL     1      -4.364  -5.908  -4.478  0.00  0.00    +0.026 A 
ATOM     14  C   UNL     1      -3.060  -6.372  -4.140  0.00  0.00    +0.043 A 
ATOM     15  N   UNL     1      -1.900  -6.062  -4.642  0.00  0.00    -0.375 N 
ATOM     16  C   UNL     1      -0.885  -6.889  -3.991  0.00  0.00    +0.139 C 
ATOM     17  C   UNL     1       0.260  -6.131  -3.400  0.00  0.00    +0.135 C 
ATOM     18  C   UNL     1       0.095  -4.634  -3.438  0.00  0.00    +0.242 C 
ATOM     19  O   UNL     1      -0.897  -4.102  -3.890  0.00  0.00    -0.273 OA
ATOM     20  C   UNL     1       1.448  -6.403  -4.325  0.00  0.00    +0.044 C 
ATOM     21  H   UNL     1      -1.737  -5.398  -5.330  0.00  0.00    +0.160 HD
ENDROOT
BRANCH   7  22
ATOM     22  C   UNL     1      -0.069  -9.547  -2.571  0.00  0.00    -0.035 A 
ATOM     23  C   UNL     1       1.246  -9.322  -2.935  0.00  0.00    +0.008 A 
ATOM     24  C   UNL     1       1.970 -10.314  -3.570  0.00  0.00    +0.050 A 
ATOM     25  C   UNL     1       1.378 -11.537  -3.843  0.00  0.00    +0.162 A 
ATOM     26  C   UNL     1       0.055 -11.763  -3.477  0.00  0.00    +0.162 A 
ATOM     27  C   UNL     1      -0.664 -10.766  -2.836  0.00  0.00    +0.053 A 
BRANCH  26  28
ATOM     28  O   UNL     1      -0.530 -12.961  -3.742  0.00  0.00    -0.489 OA
BRANCH  28  29
ATOM     29  C   UNL     1      -1.892 -13.123  -3.338  0.00  0.00    +0.226 C 
ATOM     30  C   UNL     1      -2.374 -14.524  -3.718  0.00  0.00    +0.048 C 
ENDBRANCH  28  29
ENDBRANCH  26  28
BRANCH  25  31
ATOM     31  O   UNL     1       2.089 -12.514  -4.468  0.00  0.00    -0.488 OA
BRANCH  31  32
ATOM     32  C   UNL     1       3.441 -12.211  -4.815  0.00  0.00    +0.229 C 
BRANCH  32  33
ATOM     33  C   UNL     1       4.074 -13.421  -5.504  0.00  0.00    +0.038 C 
ATOM     34  C   UNL     1       5.523 -13.097  -5.876  0.00  0.00    +0.007 C 
ENDBRANCH  32  33
ENDBRANCH  31  32
ENDBRANCH  25  31
ENDBRANCH   7  22
BRANCH   1  35
ATOM     35  C   UNL     1       1.111  -2.455  -2.854  0.00  0.00    +0.108 C 
BRANCH  35  36
ATOM     36  C   UNL     1       0.518  -2.027  -1.510  0.00  0.00    +0.019 C 
BRANCH  36  37
ATOM     37  C   UNL     1       0.484  -0.499  -1.431  0.00  0.00    +0.001 C 
BRANCH  37  39
ATOM     38  C   UNL     1      -0.142   1.456  -0.007  0.00  0.00    +0.004 C 
ATOM     39  C   UNL     1      -0.109  -0.072  -0.087  0.00  0.00    -0.003 C 
ENDBRANCH  37  39
ENDBRANCH  36  37
ENDBRANCH  35  36
ENDBRANCH   1  35
TORSDOF 10
