REMARK  Name = ZINC39685706
REMARK  15 active torsions:
REMARK  status: ('A' for Active; 'I' for Inactive)
REMARK    1  A    between atoms: C_1  and  C_2
REMARK    2  A    between atoms: C_2  and  C_3
REMARK    3  A    between atoms: C_3  and  C_4
REMARK    4  A    between atoms: C_4  and  C_6
REMARK    5  A    between atoms: C_4  and  C_7
REMARK    6  A    between atoms: C_11  and  C_20
REMARK    7  A    between atoms: N_22  and  C_23
REMARK    8  A    between atoms: C_23  and  C_25
REMARK    9  A    between atoms: C_23  and  C_28
REMARK   10  A    between atoms: C_25  and  C_26
REMARK   11  A    between atoms: C_25  and  C_27
REMARK   12  A    between atoms: N_30  and  C_31
REMARK   13  A    between atoms: C_31  and  C_32
REMARK   14  A    between atoms: C_31  and  C_33
REMARK   15  A    between atoms: C_31  and  C_34
REMARK                            x       y       z     vdW  Elec       q    Type
REMARK                         _______ _______ _______ _____ _____    ______ ____
ROOT
ATOM      1  C   UNL     1       1.321  -2.780   2.746  0.00  0.00    +0.218 C 
ATOM      2  O   UNL     1       1.605  -2.080   3.695  0.00  0.00    -0.275 OA
ATOM      3  N   UNL     1       1.583  -4.102   2.781  0.00  0.00    -0.300 N 
ATOM      4  C   UNL     1       1.414  -5.091   1.690  0.00  0.00    +0.121 C 
ATOM      5  C   UNL     1       2.642  -6.020   1.812  0.00  0.00    +0.100 C 
ATOM      6  C   UNL     1       3.091  -5.888   3.276  0.00  0.00    -0.004 C 
ATOM      7  C   UNL     1       2.113  -4.893   3.917  0.00  0.00    +0.115 C 
ATOM      8  C   UNL     1       4.513  -5.340   3.346  0.00  0.00    -0.010 C 
ATOM      9  C   UNL     1       4.957  -5.271   4.810  0.00  0.00    -0.082 C 
ATOM     10  N   UNL     1       4.899  -6.613   5.404  0.00  0.00    +0.379 N 
ATOM     11  C   UNL     1       3.513  -7.095   5.417  0.00  0.00    -0.082 C 
ATOM     12  C   UNL     1       3.007  -7.240   3.979  0.00  0.00    -0.010 C 
ATOM     13  H   UNL     1       5.468  -7.244   4.861  0.00  0.00    -0.086 HD
ATOM     14  H   UNL     1       5.250  -6.576   6.349  0.00  0.00    -0.086 HD
ENDROOT
BRANCH   5  15
ATOM     15  C   UNL     1       2.255  -7.444   1.505  0.00  0.00    +0.219 C 
ATOM     16  O   UNL     1       1.127  -7.827   1.729  0.00  0.00    -0.275 OA
ATOM     17  N   UNL     1       3.163  -8.291   0.981  0.00  0.00    -0.303 N 
ATOM     18  H   UNL     1       4.066  -7.984   0.801  0.00  0.00    +0.149 HD
BRANCH  17  19
ATOM     19  C   UNL     1       2.787  -9.675   0.683  0.00  0.00    +0.161 C 
BRANCH  19  20
ATOM     20  C   UNL     1       4.017 -10.546   0.707  0.00  0.00    +0.234 C 
ATOM     21  O   UNL     1       5.101 -10.058   0.950  0.00  0.00    -0.274 OA
ATOM     22  N   UNL     1       3.912 -11.867   0.459  0.00  0.00    -0.309 N 
ATOM     23  H   UNL     1       3.045 -12.256   0.265  0.00  0.00    +0.149 HD
BRANCH  22  24
ATOM     24  C   UNL     1       5.107 -12.713   0.483  0.00  0.00    +0.026 C 
ATOM     25  C   UNL     1       5.752 -12.647   1.869  0.00  0.00    +0.031 C 
ATOM     26  C   UNL     1       4.715 -14.159   0.171  0.00  0.00    +0.031 C 
ATOM     27  C   UNL     1       6.104 -12.218  -0.567  0.00  0.00    +0.031 C 
ENDBRANCH  22  24
ENDBRANCH  19  20
BRANCH  19  28
ATOM     28  C   UNL     1       2.143  -9.741  -0.704  0.00  0.00    +0.012 C 
ATOM     29  C   UNL     1       0.895  -8.857  -0.728  0.00  0.00    +0.009 C 
ATOM     30  C   UNL     1       3.140  -9.246  -1.753  0.00  0.00    +0.009 C 
ENDBRANCH  19  28
ENDBRANCH  17  19
ENDBRANCH   5  15
BRANCH   1  31
ATOM     31  C   UNL     1       0.676  -2.172   1.528  0.00  0.00    +0.072 C 
ATOM     32  C   UNL     1       1.761  -1.705   0.555  0.00  0.00    +0.017 C 
BRANCH  31  33
ATOM     33  C   UNL     1      -0.182  -0.977   1.948  0.00  0.00    +0.012 C 
BRANCH  33  35
ATOM     34  C   UNL     1      -1.792   0.759   1.150  0.00  0.00    +0.004 C 
ATOM     35  C   UNL     1      -0.935  -0.436   0.730  0.00  0.00    -0.003 C 
ENDBRANCH  33  35
ENDBRANCH  31  33
ENDBRANCH   1  31
TORSDOF 8
