REMARK  Name = ZINC63362260
REMARK  6 active torsions:
REMARK  status: ('A' for Active; 'I' for Inactive)
REMARK    1  A    between atoms: C_1  and  C_2
REMARK    2  A    between atoms: C_2  and  C_4
REMARK    3  A    between atoms: C_2  and  N_10
REMARK    4  A    between atoms: C_11  and  C_13
REMARK    5  A    between atoms: C_18  and  N_19
REMARK    6  A    between atoms: C_22  and  C_38
REMARK                            x       y       z     vdW  Elec       q    Type
REMARK                         _______ _______ _______ _____ _____    ______ ____
ROOT
ATOM      1  N   UNL     1       5.221  -0.754   0.954  0.00  0.00    -0.192 N 
ATOM      2  C   UNL     1       5.929   0.379   0.769  0.00  0.00    +0.253 C 
ATOM      3  O   UNL     1       5.949   1.356   1.487  0.00  0.00    -0.272 OA
ATOM      4  C   UNL     1       6.692   0.177  -0.521  0.00  0.00    +0.137 C 
ATOM      5  C   UNL     1       6.323   1.254  -1.540  0.00  0.00    +0.139 C 
ATOM      6  C   UNL     1       5.539   0.574  -2.653  0.00  0.00    -0.034 C 
ATOM      7  C   UNL     1       4.381   1.224  -2.741  0.00  0.00    -0.001 A 
ATOM      8  C   UNL     1       3.245   1.074  -3.664  0.00  0.00    +0.010 A 
ATOM      9  C   UNL     1       2.194   1.913  -3.463  0.00  0.00    +0.001 A 
ATOM     10  C   UNL     1       2.161   2.874  -2.447  0.00  0.00    +0.002 A 
ATOM     11  C   UNL     1       3.163   3.083  -1.557  0.00  0.00    +0.026 A 
ATOM     12  C   UNL     1       4.324   2.265  -1.671  0.00  0.00    +0.043 A 
ATOM     13  N   UNL     1       5.435   2.267  -0.968  0.00  0.00    -0.375 N 
ATOM     14  C   UNL     1       6.030  -0.640  -3.402  0.00  0.00    +0.052 C 
ATOM     15  C   UNL     1       6.452  -1.680  -2.345  0.00  0.00    +0.115 C 
ATOM     16  N   UNL     1       6.179  -1.114  -1.022  0.00  0.00    -0.268 N 
ATOM     17  C   UNL     1       5.401  -1.619  -0.053  0.00  0.00    +0.317 C 
ATOM     18  O   UNL     1       4.913  -2.732  -0.087  0.00  0.00    -0.252 OA
ATOM     19  C   UNL     1       8.201   0.120  -0.272  0.00  0.00    +0.044 C 
ATOM     20  H   UNL     1       5.636   2.831  -0.204  0.00  0.00    +0.160 HD
ENDROOT
BRANCH   1  26
ATOM     21  C   UNL     1       4.955  -1.538   3.234  0.00  0.00    +0.059 A 
ATOM     22  C   UNL     1       4.130  -1.773   4.337  0.00  0.00    +0.015 A 
ATOM     23  C   UNL     1       2.786  -1.479   4.265  0.00  0.00    +0.001 A 
ATOM     24  C   UNL     1       2.247  -0.952   3.103  0.00  0.00    +0.002 A 
ATOM     25  C   UNL     1       3.050  -0.714   2.005  0.00  0.00    +0.025 A 
ATOM     26  C   UNL     1       4.407  -0.999   2.062  0.00  0.00    +0.058 A 
BRANCH  21  28
ATOM     27  N   UNL     1       6.942  -2.251   4.470  0.00  0.00    -0.305 N 
ATOM     28  C   UNL     1       6.395  -1.850   3.304  0.00  0.00    +0.246 C 
ATOM     29  O   UNL     1       7.089  -1.746   2.311  0.00  0.00    -0.270 OA
ATOM     30  H   UNL     1       6.377  -2.404   5.243  0.00  0.00    +0.150 HD
BRANCH  27  32
ATOM     31  C   UNL     1       8.748  -3.836   4.015  0.00  0.00    +0.033 C 
ATOM     32  C   UNL     1       8.389  -2.455   4.567  0.00  0.00    +0.100 C 
BRANCH  32  33
ATOM     33  C   UNL     1       8.812  -2.367   6.011  0.00  0.00    -0.027 A 
ATOM     34  C   UNL     1       8.027  -2.933   6.998  0.00  0.00    +0.005 A 
ATOM     35  C   UNL     1       8.415  -2.852   8.322  0.00  0.00    +0.000 A 
ATOM     36  C   UNL     1       9.589  -2.204   8.660  0.00  0.00    +0.000 A 
ATOM     37  C   UNL     1      10.375  -1.639   7.673  0.00  0.00    +0.000 A 
ATOM     38  C   UNL     1       9.989  -1.724   6.348  0.00  0.00    +0.005 A 
ENDBRANCH  32  33
ENDBRANCH  27  32
ENDBRANCH  21  28
ENDBRANCH   1  26
TORSDOF 4
