REMARK  Name = ZINC06245603
REMARK  10 active torsions:
REMARK  status: ('A' for Active; 'I' for Inactive)
REMARK    1  A    between atoms: C_1  and  C_2
REMARK    2  A    between atoms: C_2  and  C_3
REMARK    3  A    between atoms: C_2  and  C_4
REMARK    4  A    between atoms: C_4  and  C_6
REMARK    5  A    between atoms: C_4  and  N_51
REMARK    6  A    between atoms: C_8  and  C_11
REMARK    7  A    between atoms: N_13  and  C_14
REMARK    8  A    between atoms: C_17  and  C_20
REMARK    9  A    between atoms: C_20  and  C_21
REMARK   10  A    between atoms: C_24  and  N_27
REMARK                            x       y       z     vdW  Elec       q    Type
REMARK                         _______ _______ _______ _____ _____    ______ ____
ROOT
ATOM      1  C   UNL     1       3.544   0.411   0.695  0.00  0.00    +0.270 C 
ATOM      2  O   UNL     1       4.177   1.221   1.345  0.00  0.00    -0.268 OA
ATOM      3  N   UNL     1       4.190  -0.514  -0.043  0.00  0.00    -0.280 N 
ATOM      4  H   UNL     1       3.688  -1.207  -0.499  0.00  0.00    +0.155 HD
ENDROOT
BRANCH   3   5
ATOM      5  C   UNL     1       5.584  -0.475  -0.149  0.00  0.00    +0.034 A 
ATOM      6  C   UNL     1       6.248   0.745  -0.147  0.00  0.00    +0.023 A 
ATOM      7  C   UNL     1       7.625   0.780  -0.247  0.00  0.00    +0.006 A 
ATOM      8  C   UNL     1       8.341  -0.397  -0.360  0.00  0.00    -0.043 A 
ATOM      9  C   UNL     1       7.683  -1.613  -0.369  0.00  0.00    +0.006 A 
ATOM     10  C   UNL     1       6.306  -1.655  -0.263  0.00  0.00    +0.023 A 
BRANCH   8  11
ATOM     11  C   UNL     1       9.844  -0.355  -0.476  0.00  0.00    +0.070 C 
BRANCH  11  12
ATOM     12  C   UNL     1      10.233  -0.271  -1.929  0.00  0.00    -0.043 A 
ATOM     13  C   UNL     1      10.447  -1.429  -2.654  0.00  0.00    +0.006 A 
ATOM     14  C   UNL     1      10.799  -1.356  -3.987  0.00  0.00    +0.023 A 
ATOM     15  C   UNL     1      10.950  -0.117  -4.597  0.00  0.00    +0.025 A 
ATOM     16  C   UNL     1      10.741   1.044  -3.865  0.00  0.00    +0.023 A 
ATOM     17  C   UNL     1      10.383   0.964  -2.533  0.00  0.00    +0.006 A 
BRANCH  15  18
ATOM     18  N   UNL     1      11.311  -0.040  -5.944  0.00  0.00    -0.358 N 
ATOM     19  H   UNL     1      11.416   0.826  -6.369  0.00  0.00    +0.142 HD
ATOM     20  H   UNL     1      11.457  -0.852  -6.455  0.00  0.00    +0.142 HD
ENDBRANCH  15  18
ENDBRANCH  11  12
ENDBRANCH   8  11
ENDBRANCH   3   5
BRANCH   1  23
ATOM     21  C   UNL     1       0.010  -0.059   0.306  0.00  0.00    +0.182 A 
ATOM     22  N   UNL     1       1.236  -0.397   0.041  0.00  0.00    -0.210 NA
ATOM     23  C   UNL     1       2.071   0.441   0.714  0.00  0.00    +0.164 A 
ATOM     24  C   UNL     1       1.288   1.313   1.407  0.00  0.00    +0.230 A 
ATOM     25  O   UNL     1       0.012   0.989   1.143  0.00  0.00    -0.449 OA
BRANCH  21  26
ATOM     26  C   UNL     1      -1.220  -0.737  -0.239  0.00  0.00    +0.015 C 
BRANCH  26  29
ATOM     27  H   UNL     1      -1.821  -1.571   1.544  0.00  0.00    -0.089 HD
ATOM     28  H   UNL     1      -2.460  -0.062   1.259  0.00  0.00    -0.089 HD
ATOM     29  N   UNL     1      -2.208  -0.952   0.833  0.00  0.00    +0.386 N 
ATOM     30  H   UNL     1      -3.050  -1.384   0.434  0.00  0.00    -0.089 HD
ENDBRANCH  26  29
BRANCH  26  32
ATOM     31  C   UNL     1      -0.839   0.356  -2.454  0.00  0.00    +0.006 C 
ATOM     32  C   UNL     1      -1.848   0.142  -1.324  0.00  0.00    -0.023 C 
ATOM     33  C   UNL     1      -3.097  -0.546  -1.878  0.00  0.00    +0.006 C 
ENDBRANCH  26  32
ENDBRANCH  21  26
ENDBRANCH   1  23
TORSDOF 8
