REMARK  Name = ZINC04861326
REMARK  8 active torsions:
REMARK  status: ('A' for Active; 'I' for Inactive)
REMARK    1  A    between atoms: C_1  and  C_2
REMARK    2  A    between atoms: C_2  and  O_3
REMARK    3  A    between atoms: O_3  and  C_4
REMARK    4  A    between atoms: C_11  and  C_27
REMARK    5  A    between atoms: N_13  and  C_14
REMARK    6  A    between atoms: C_14  and  C_15
REMARK    7  A    between atoms: C_15  and  N_16
REMARK    8  A    between atoms: N_19  and  C_20
REMARK                            x       y       z     vdW  Elec       q    Type
REMARK                         _______ _______ _______ _____ _____    ______ ____
ROOT
ATOM      1  C   UNL     1      -1.138  -6.786   0.064  0.00  0.00    +0.121 A 
ATOM      2  C   UNL     1       0.150  -6.245   0.048  0.00  0.00    +0.047 A 
ATOM      3  C   UNL     1       0.344  -4.898   0.044  0.00  0.00    +0.030 A 
ATOM      4  C   UNL     1      -0.761  -4.030   0.055  0.00  0.00    +0.048 A 
ATOM      5  C   UNL     1      -2.068  -4.580   0.072  0.00  0.00    +0.003 A 
ATOM      6  C   UNL     1      -2.236  -5.974   0.076  0.00  0.00    +0.055 A 
ATOM      7  C   UNL     1      -3.178  -3.716   0.084  0.00  0.00    +0.032 A 
ATOM      8  C   UNL     1      -2.941  -2.347   0.083  0.00  0.00    +0.090 A 
ATOM      9  C   UNL     1      -1.608  -1.873   0.060  0.00  0.00    +0.114 A 
ATOM     10  N   UNL     1      -1.374  -0.510   0.055  0.00  0.00    -0.328 N 
ATOM     11  H   UNL     1      -2.119   0.111   0.062  0.00  0.00    +0.147 HD
ATOM     12  N   UNL     1      -0.514  -2.673   0.049  0.00  0.00    -0.342 N 
ATOM     13  H   UNL     1       0.439  -2.293   0.037  0.00  0.00    +0.167 HD
ENDROOT
BRANCH   8  14
ATOM     14  C   UNL     1      -4.036  -1.425   0.100  0.00  0.00    +0.103 C 
ATOM     15  N   UNL     1      -4.905  -0.693   0.114  0.00  0.00    -0.191 NA
ENDBRANCH   8  14
BRANCH   1  16
ATOM     16  O   UNL     1      -1.300  -8.136   0.067  0.00  0.00    -0.492 OA
BRANCH  16  18
ATOM     17  C   UNL     1      -0.492 -10.414   0.060  0.00  0.00    +0.048 C 
ATOM     18  C   UNL     1      -0.113  -8.932   0.054  0.00  0.00    +0.225 C 
ENDBRANCH  16  18
ENDBRANCH   1  16
BRANCH  10  19
ATOM     19  C   UNL     1       0.001  -0.003   0.037  0.00  0.00    +0.121 C 
BRANCH  19  20
ATOM     20  C   UNL     1      -0.019   1.527   0.034  0.00  0.00    +0.124 C 
BRANCH  20  21
ATOM     21  N   UNL     1       1.355   2.033   0.017  0.00  0.00    -0.298 N 
ATOM     22  C   UNL     1       1.584   3.362   0.011  0.00  0.00    +0.304 C 
ATOM     23  O   UNL     1       0.649   4.139   0.021  0.00  0.00    -0.253 OA
ATOM     24  N   UNL     1       2.848   3.828  -0.005  0.00  0.00    -0.268 N 
ATOM     25  H   UNL     1       2.101   1.413   0.009  0.00  0.00    +0.150 HD
ATOM     26  H   UNL     1       3.594   3.210   0.054  0.00  0.00    +0.156 HD
BRANCH  24  27
ATOM     27  C   UNL     1       3.086   5.204  -0.105  0.00  0.00    +0.053 A 
ATOM     28  C   UNL     1       2.220   6.105   0.499  0.00  0.00    +0.025 A 
ATOM     29  C   UNL     1       2.460   7.462   0.402  0.00  0.00    +0.002 A 
ATOM     30  C   UNL     1       3.555   7.924  -0.305  0.00  0.00    +0.002 A 
ATOM     31  C   UNL     1       4.417   7.030  -0.912  0.00  0.00    +0.022 A 
ATOM     32  C   UNL     1       4.186   5.670  -0.815  0.00  0.00    +0.062 A 
ATOM     33 CL   UNL     1       5.268   4.548  -1.578  0.00  0.00    -0.082 Cl
ENDBRANCH  24  27
ENDBRANCH  20  21
ENDBRANCH  19  20
ENDBRANCH  10  19
TORSDOF 7
