REMARK  Name = ZINC09388826
REMARK  9 active torsions:
REMARK  status: ('A' for Active; 'I' for Inactive)
REMARK    1  A    between atoms: C_1  and  C_2
REMARK    2  A    between atoms: C_7  and  C_8
REMARK    3  A    between atoms: N_11  and  C_12
REMARK    4  A    between atoms: C_12  and  C_14
REMARK    5  A    between atoms: C_17  and  S_20
REMARK    6  A    between atoms: S_20  and  N_23
REMARK    7  A    between atoms: C_25  and  C_32
REMARK    8  A    between atoms: C_28  and  C_31
REMARK    9  A    between atoms: N_33  and  C_34
REMARK                            x       y       z     vdW  Elec       q    Type
REMARK                         _______ _______ _______ _____ _____    ______ ____
ROOT
ATOM      1  C   UNL     1      -0.018   1.477   0.010  0.00  0.00    +0.039 A 
ATOM      2  C   UNL     1      -1.234   2.161   0.020  0.00  0.00    +0.015 A 
ATOM      3  C   UNL     1      -1.246   3.541   0.032  0.00  0.00    +0.029 A 
ATOM      4  C   UNL     1      -0.056   4.246   0.024  0.00  0.00    +0.106 A 
ATOM      5  C   UNL     1       1.153   3.573   0.010  0.00  0.00    +0.029 A 
ATOM      6  C   UNL     1       1.179   2.194   0.003  0.00  0.00    +0.015 A 
ENDROOT
BRANCH   4   7
ATOM      7  S   UNL     1      -0.080   6.007   0.033  0.00  0.00    +0.061 S 
ATOM      8  O   UNL     1      -1.325   6.394   0.597  0.00  0.00    -0.153 OA
ATOM      9  O   UNL     1       1.165   6.428   0.575  0.00  0.00    -0.153 OA
BRANCH   7  10
ATOM     10  N   UNL     1      -0.100   6.505  -1.546  0.00  0.00    -0.172 NA
ATOM     11  C   UNL     1       1.151   6.756  -2.278  0.00  0.00    +0.140 C 
ATOM     12  C   UNL     1       1.089   5.992  -3.611  0.00  0.00    +0.131 C 
ATOM     13  O   UNL     1      -0.122   6.332  -4.290  0.00  0.00    -0.371 OA
ATOM     14  C   UNL     1      -1.311   5.959  -3.589  0.00  0.00    +0.131 C 
ATOM     15  C   UNL     1      -1.371   6.715  -2.257  0.00  0.00    +0.140 C 
ATOM     16  C   UNL     1      -1.294   4.452  -3.321  0.00  0.00    +0.039 C 
ATOM     17  C   UNL     1       2.288   6.381  -4.478  0.00  0.00    +0.039 C 
ENDBRANCH   7  10
ENDBRANCH   4   7
BRANCH   1  18
ATOM     18  C   UNL     1       0.002  -0.004   0.002  0.00  0.00    +0.269 C 
ATOM     19  O   UNL     1       1.066  -0.599  -0.011  0.00  0.00    -0.268 OA
BRANCH  18  30
ATOM     20  C   UNL     1      -3.571  -7.674  -0.004  0.00  0.00    +0.044 C 
ATOM     21  C   UNL     1      -2.524  -6.590  -0.008  0.00  0.00    -0.046 A 
ATOM     22  C   UNL     1      -2.918  -5.273   0.003  0.00  0.00    +0.030 A 
ATOM     23  C   UNL     1      -1.967  -4.240  -0.001  0.00  0.00    +0.058 A 
ATOM     24  C   UNL     1      -0.618  -4.624  -0.016  0.00  0.00    +0.039 A 
ATOM     25  C   UNL     1      -0.226  -5.941  -0.026  0.00  0.00    +0.020 A 
ATOM     26  C   UNL     1      -1.185  -6.939  -0.023  0.00  0.00    -0.046 A 
ATOM     27  C   UNL     1      -0.775  -8.390  -0.035  0.00  0.00    +0.044 C 
ATOM     28  S   UNL     1       0.246  -3.074  -0.016  0.00  0.00    -0.052 S 
ATOM     29  C   UNL     1      -1.128  -2.017   0.002  0.00  0.00    +0.166 A 
ATOM     30  N   UNL     1      -1.146  -0.688   0.009  0.00  0.00    -0.152 NA
ATOM     31  N   UNL     1      -2.184  -2.875   0.013  0.00  0.00    -0.324 N 
ATOM     32  C   UNL     1      -3.552  -2.351   0.036  0.00  0.00    +0.151 C 
ENDBRANCH  18  30
ENDBRANCH   1  18
TORSDOF 4
