REMARK  Name = ZINC35482117
REMARK  4 active torsions:
REMARK  status: ('A' for Active; 'I' for Inactive)
REMARK    1  A    between atoms: C_1  and  C_2
REMARK    2  A    between atoms: C_2  and  C_25
REMARK    3  A    between atoms: N_14  and  C_15
REMARK    4  A    between atoms: N_27  and  C_28
REMARK                            x       y       z     vdW  Elec       q    Type
REMARK                         _______ _______ _______ _____ _____    ______ ____
ROOT
ATOM      1  C   UNL     1      -0.326   1.582  -0.080  0.00  0.00    +0.044 C 
ATOM      2  C   UNL     1      -0.039   0.080  -0.028  0.00  0.00    +0.133 C 
ATOM      3  C   UNL     1      -1.366  -0.674   0.040  0.00  0.00    +0.158 C 
ATOM      4  N   UNL     1      -1.940  -0.520   1.381  0.00  0.00    -0.328 N 
ATOM      5  C   UNL     1      -1.130  -0.353   2.506  0.00  0.00    +0.106 A 
ATOM      6  C   UNL     1      -1.913  -0.262   3.598  0.00  0.00    +0.041 A 
ATOM      7  C   UNL     1      -3.275  -0.357   3.175  0.00  0.00    +0.008 A 
ATOM      8  C   UNL     1      -3.225  -0.514   1.783  0.00  0.00    +0.088 A 
ATOM      9  S   UNL     1      -4.936  -0.618   1.321  0.00  0.00    -0.079 S 
ATOM     10  C   UNL     1      -5.673  -0.464   2.936  0.00  0.00    +0.048 A 
ATOM     11  C   UNL     1      -4.614  -0.340   3.748  0.00  0.00    +0.017 A 
ATOM     12  C   UNL     1       0.332  -0.289   2.374  0.00  0.00    +0.268 C 
ATOM     13  O   UNL     1       1.064  -0.318   3.346  0.00  0.00    -0.268 OA
ATOM     14  N   UNL     1       0.822  -0.196   1.116  0.00  0.00    -0.250 N 
ENDROOT
BRANCH  14  15
ATOM     15  C   UNL     1       2.195  -0.371   0.907  0.00  0.00    +0.041 A 
ATOM     16  C   UNL     1       2.799  -1.578   1.232  0.00  0.00    +0.027 A 
ATOM     17  C   UNL     1       4.154  -1.750   1.027  0.00  0.00    +0.051 A 
ATOM     18  C   UNL     1       4.915  -0.720   0.495  0.00  0.00    +0.162 A 
ATOM     19  C   UNL     1       4.313   0.489   0.167  0.00  0.00    +0.164 A 
ATOM     20  C   UNL     1       2.952   0.660   0.369  0.00  0.00    +0.073 A 
ATOM     21  O   UNL     1       5.042   1.509  -0.363  0.00  0.00    -0.485 OA
ATOM     22  C   UNL     1       6.463   1.431  -0.211  0.00  0.00    +0.270 C 
ATOM     23  C   UNL     1       6.909   0.009  -0.577  0.00  0.00    +0.270 C 
ATOM     24  O   UNL     1       6.251  -0.907   0.304  0.00  0.00    -0.485 OA
ENDBRANCH  14  15
BRANCH   2  25
ATOM     25  C   UNL     1       0.683  -0.321  -1.289  0.00  0.00    +0.239 C 
ATOM     26  O   UNL     1       0.659   0.406  -2.259  0.00  0.00    -0.273 OA
ATOM     27  N   UNL     1       1.357  -1.487  -1.338  0.00  0.00    -0.311 N 
ATOM     28  H   UNL     1       1.320  -2.100  -0.587  0.00  0.00    +0.149 HD
BRANCH  27  29
ATOM     29  C   UNL     1       2.144  -1.829  -2.525  0.00  0.00    +0.073 C 
ATOM     30  C   UNL     1       1.256  -2.564  -3.531  0.00  0.00    +0.022 C 
ATOM     31  C   UNL     1       2.079  -2.922  -4.771  0.00  0.00    +0.002 C 
ATOM     32  C   UNL     1       3.246  -3.824  -4.366  0.00  0.00    +0.000 C 
ATOM     33  C   UNL     1       4.133  -3.090  -3.359  0.00  0.00    +0.002 C 
ATOM     34  C   UNL     1       3.311  -2.732  -2.120  0.00  0.00    +0.022 C 
ENDBRANCH  27  29
ENDBRANCH   2  25
TORSDOF 3
