REMARK  Name = ZINC13079261
REMARK  7 active torsions:
REMARK  status: ('A' for Active; 'I' for Inactive)
REMARK    1  A    between atoms: C_1  and  C_2
REMARK    2  A    between atoms: C_4  and  C_26
REMARK    3  A    between atoms: C_6  and  S_9
REMARK    4  A    between atoms: C_7  and  C_8
REMARK    5  A    between atoms: S_9  and  N_12
REMARK    6  A    between atoms: N_12  and  N_13
REMARK    7  A    between atoms: C_14  and  C_16
REMARK                            x       y       z     vdW  Elec       q    Type
REMARK                         _______ _______ _______ _____ _____    ______ ____
ROOT
ATOM      1  N   UNL     1       0.040   1.479   0.095  0.00  0.00    -0.108 NA
ATOM      2  H   UNL     1       0.777   2.079  -0.102  0.00  0.00    +0.172 HD
ENDROOT
BRANCH   1   3
ATOM      3  N   UNL     1       0.285   0.116   0.312  0.00  0.00    -0.227 N 
ATOM      4  C   UNL     1       0.941  -0.607  -0.618  0.00  0.00    +0.265 C 
ATOM      5  O   UNL     1       1.320  -0.076  -1.645  0.00  0.00    -0.268 OA
ATOM      6  H   UNL     1      -0.017  -0.306   1.131  0.00  0.00    +0.171 HD
BRANCH   4   7
ATOM      7  C   UNL     1       1.198  -2.032  -0.391  0.00  0.00    +0.076 A 
ATOM      8  C   UNL     1       1.845  -2.943  -1.207  0.00  0.00    +0.024 A 
ATOM      9  C   UNL     1       1.967  -4.252  -0.756  0.00  0.00    -0.036 A 
ATOM     10  C   UNL     1       1.410  -4.534   0.443  0.00  0.00    -0.006 A 
ATOM     11  S   UNL     1       0.763  -3.045   1.014  0.00  0.00    -0.088 S 
ATOM     12  C   UNL     1       1.363  -5.885   1.122  0.00  0.00    +0.043 C 
ATOM     13  C   UNL     1       2.803  -6.242   1.526  0.00  0.00    +0.005 C 
ATOM     14  C   UNL     1       3.571  -6.753   0.329  0.00  0.00    +0.001 C 
ATOM     15  C   UNL     1       3.942  -5.732  -0.716  0.00  0.00    +0.005 C 
ATOM     16  C   UNL     1       2.737  -5.308  -1.558  0.00  0.00    +0.036 C 
ENDBRANCH   4   7
ENDBRANCH   1   3
BRANCH   1  17
ATOM     17  S   UNL     1      -1.507   2.063   0.167  0.00  0.00    +0.074 S 
ATOM     18  O   UNL     1      -1.412   3.478   0.078  0.00  0.00    -0.152 OA
ATOM     19  O   UNL     1      -2.276   1.292  -0.746  0.00  0.00    -0.152 OA
BRANCH  17  25
ATOM     20  C   UNL     1      -1.407   2.678   5.357  0.00  0.00    +0.044 C 
ATOM     21  C   UNL     1      -2.035   2.021   4.154  0.00  0.00    -0.045 A 
ATOM     22  C   UNL     1      -3.087   1.144   4.320  0.00  0.00    +0.018 A 
ATOM     23  C   UNL     1      -3.667   0.537   3.205  0.00  0.00    +0.065 A 
ATOM     24  C   UNL     1      -3.178   0.822   1.928  0.00  0.00    +0.044 A 
ATOM     25  C   UNL     1      -2.126   1.701   1.777  0.00  0.00    +0.111 A 
ATOM     26  C   UNL     1      -1.552   2.296   2.887  0.00  0.00    -0.021 A 
ATOM     27  C   UNL     1      -0.399   3.250   2.715  0.00  0.00    +0.046 C 
BRANCH  23  28
ATOM     28  C   UNL     1      -4.793  -0.404   3.374  0.00  0.00    +0.387 C 
ATOM     29  O   UNL     1      -5.296  -0.931   2.402  0.00  0.00    -0.241 OA
ATOM     30  O   UNL     1      -5.263  -0.678   4.607  0.00  0.00    -0.241 OA
ENDBRANCH  23  28
ENDBRANCH  17  25
ENDBRANCH   1  17
TORSDOF 5
