REMARK  Name = ZINC09598386
REMARK  11 active torsions:
REMARK  status: ('A' for Active; 'I' for Inactive)
REMARK    1  A    between atoms: C_1  and  C_2
REMARK    2  A    between atoms: C_2  and  O_3
REMARK    3  A    between atoms: O_3  and  C_4
REMARK    4  A    between atoms: C_4  and  C_6
REMARK    5  A    between atoms: C_12  and  C_14
REMARK    6  A    between atoms: C_14  and  C_15
REMARK    7  A    between atoms: C_15  and  C_16
REMARK    8  A    between atoms: N_18  and  C_19
REMARK    9  A    between atoms: C_25  and  C_38
REMARK   10  A    between atoms: C_30  and  C_37
REMARK   11  A    between atoms: C_33  and  C_36
REMARK                            x       y       z     vdW  Elec       q    Type
REMARK                         _______ _______ _______ _____ _____    ______ ____
ROOT
ATOM      1  C   UNL     1       2.405   0.032  -0.014  0.00  0.00    +0.034 A 
ATOM      2  C   UNL     1       1.189  -0.659  -0.010  0.00  0.00    +0.025 A 
ATOM      3  C   UNL     1       0.005   0.009   0.012  0.00  0.00    +0.028 A 
ATOM      4  C   UNL     1      -0.009   1.415   0.032  0.00  0.00    +0.048 A 
ATOM      5  C   UNL     1       1.219   2.120   0.028  0.00  0.00    +0.003 A 
ATOM      6  C   UNL     1       2.429   1.409   0.006  0.00  0.00    +0.033 A 
ATOM      7  C   UNL     1       1.202   3.530   0.048  0.00  0.00    -0.038 A 
ATOM      8  C   UNL     1      -0.006   4.161   0.070  0.00  0.00    +0.045 A 
ATOM      9  C   UNL     1      -1.188   3.406   0.072  0.00  0.00    +0.099 A 
ATOM     10  N   UNL     1      -2.410   4.062   0.094  0.00  0.00    -0.316 N 
ATOM     11  C   UNL     1      -2.497   4.974   1.242  0.00  0.00    +0.109 C 
ATOM     12  C   UNL     1      -3.792   5.785   1.154  0.00  0.00    +0.004 C 
ATOM     13  C   UNL     1      -4.988   4.828   1.147  0.00  0.00    +0.009 C 
ATOM     14  C   UNL     1      -4.848   3.857  -0.029  0.00  0.00    +0.004 C 
ATOM     15  C   UNL     1      -3.522   3.103   0.093  0.00  0.00    +0.109 C 
ATOM     16  C   UNL     1      -6.007   2.859  -0.009  0.00  0.00    +0.009 C 
ATOM     17  C   UNL     1      -3.792   6.611  -0.134  0.00  0.00    +0.009 C 
ATOM     18  C   UNL     1       2.486   4.319   0.046  0.00  0.00    +0.044 C 
ATOM     19  N   UNL     1      -1.231   2.051   0.048  0.00  0.00    -0.343 N 
ATOM     20  H   UNL     1      -2.118   1.532   0.041  0.00  0.00    +0.167 HD
ENDROOT
BRANCH   1  23
ATOM     21  C   UNL     1       4.668  -0.196  -0.714  0.00  0.00    +0.218 C 
ATOM     22  O   UNL     1       4.606   0.898  -1.233  0.00  0.00    -0.275 OA
ATOM     23  N   UNL     1       3.609  -0.682  -0.037  0.00  0.00    -0.285 N 
ATOM     24  H   UNL     1       3.681  -1.527   0.434  0.00  0.00    +0.155 HD
BRANCH  21  25
ATOM     25  C   UNL     1       5.930  -1.012  -0.825  0.00  0.00    +0.105 C 
BRANCH  25  26
ATOM     26  C   UNL     1       6.969  -0.237  -1.638  0.00  0.00    +0.105 C 
BRANCH  26  33
ATOM     27  C   UNL     1      10.977  -0.071  -4.642  0.00  0.00    +0.101 C 
ATOM     28  C   UNL     1      10.896  -1.470  -4.026  0.00  0.00    +0.033 C 
ATOM     29  C   UNL     1      10.527  -1.350  -2.544  0.00  0.00    +0.108 C 
ATOM     30  N   UNL     1       9.290  -0.566  -2.426  0.00  0.00    -0.301 N 
ATOM     31  C   UNL     1       9.227   0.755  -3.066  0.00  0.00    +0.108 C 
ATOM     32  C   UNL     1       9.613   0.614  -4.538  0.00  0.00    +0.033 C 
ATOM     33  C   UNL     1       8.231  -1.052  -1.750  0.00  0.00    +0.216 C 
ATOM     34  O   UNL     1       8.294  -2.147  -1.230  0.00  0.00    -0.276 OA
BRANCH  27  35
ATOM     35  C   UNL     1      11.374  -0.183  -6.091  0.00  0.00    +0.310 C 
ATOM     36  O   UNL     1      11.571  -1.270  -6.582  0.00  0.00    -0.251 OA
BRANCH  35  37
ATOM     37  O   UNL     1      11.508   0.924  -6.838  0.00  0.00    -0.465 OA
BRANCH  37  39
ATOM     38  C   UNL     1      11.993   2.104  -8.912  0.00  0.00    +0.048 C 
ATOM     39  C   UNL     1      11.892   0.741  -8.226  0.00  0.00    +0.229 C 
ENDBRANCH  37  39
ENDBRANCH  35  37
ENDBRANCH  27  35
ENDBRANCH  26  33
ENDBRANCH  25  26
ENDBRANCH  21  25
ENDBRANCH   1  23
TORSDOF 7
