REMARK  Name = ZINC12473071
REMARK  14 active torsions:
REMARK  status: ('A' for Active; 'I' for Inactive)
REMARK    1  A    between atoms: C_1  and  C_2
REMARK    2  A    between atoms: C_5  and  C_37
REMARK    3  A    between atoms: C_6  and  N_8
REMARK    4  A    between atoms: N_8  and  C_9
REMARK    5  A    between atoms: C_9  and  C_11
REMARK    6  A    between atoms: C_9  and  C_18
REMARK    7  A    between atoms: N_20  and  C_21
REMARK    8  A    between atoms: C_21  and  C_22
REMARK    9  A    between atoms: C_22  and  C_23
REMARK   10  A    between atoms: C_23  and  C_24
REMARK   11  A    between atoms: C_23  and  C_25
REMARK   12  A    between atoms: C_26  and  C_28
REMARK   13  A    between atoms: C_29  and  N_36
REMARK   14  A    between atoms: C_30  and  C_33
REMARK                            x       y       z     vdW  Elec       q    Type
REMARK                         _______ _______ _______ _____ _____    ______ ____
ROOT
ATOM      1  N   UNL     1      -2.807   3.802  -0.099  0.00  0.00    -0.251 N 
ATOM      2  C   UNL     1      -2.640   4.767  -1.025  0.00  0.00    +0.262 C 
ATOM      3  O   UNL     1      -2.802   5.935  -0.724  0.00  0.00    -0.269 OA
ENDROOT
BRANCH   1   9
ATOM      4  C   UNL     1       0.211  -0.028  -0.724  0.00  0.00    +0.044 C 
ATOM      5  C   UNL     1      -1.169   0.578  -0.757  0.00  0.00    -0.049 A 
ATOM      6  C   UNL     1      -2.253  -0.195  -1.132  0.00  0.00    +0.004 A 
ATOM      7  C   UNL     1      -3.520   0.357  -1.165  0.00  0.00    +0.005 A 
ATOM      8  C   UNL     1      -3.707   1.683  -0.827  0.00  0.00    -0.029 A 
ATOM      9  C   UNL     1      -2.621   2.460  -0.446  0.00  0.00    +0.041 A 
ATOM     10  C   UNL     1      -1.349   1.903  -0.414  0.00  0.00    +0.027 A 
ATOM     11  C   UNL     1      -5.088   2.285  -0.869  0.00  0.00    +0.045 C 
ENDBRANCH   1   9
BRANCH   2  12
ATOM     12  C   UNL     1      -2.264   4.410  -2.394  0.00  0.00    +0.116 A 
ATOM     13  C   UNL     1      -2.042   5.238  -3.496  0.00  0.00    +0.076 A 
ATOM     14  C   UNL     1      -1.697   4.522  -4.642  0.00  0.00    +0.155 A 
ATOM     15  N   UNL     1      -1.617   3.211  -4.582  0.00  0.00    -0.203 NA
ATOM     16  S   UNL     1      -1.959   2.803  -3.098  0.00  0.00    +0.019 S 
BRANCH  14  17
ATOM     17  C   UNL     1      -1.425   5.228  -5.908  0.00  0.00    +0.262 C 
ATOM     18  O   UNL     1      -1.501   6.440  -5.956  0.00  0.00    -0.269 OA
ATOM     19  N   UNL     1      -1.092   4.529  -7.011  0.00  0.00    -0.324 N 
ATOM     20  H   UNL     1      -1.031   3.561  -6.972  0.00  0.00    +0.145 HD
ATOM     21  H   UNL     1      -0.913   4.993  -7.843  0.00  0.00    +0.145 HD
ENDBRANCH  14  17
BRANCH  13  22
ATOM     22  N   UNL     1      -2.154   6.622  -3.455  0.00  0.00    -0.355 N 
ATOM     23  H   UNL     1      -2.398   7.064  -2.627  0.00  0.00    +0.142 HD
ATOM     24  H   UNL     1      -1.987   7.145  -4.255  0.00  0.00    +0.142 HD
ENDBRANCH  13  22
ENDBRANCH   2  12
BRANCH   1  25
ATOM     25  C   UNL     1      -3.183   4.159   1.271  0.00  0.00    +0.197 C 
BRANCH  25  26
ATOM     26  C   UNL     1      -3.439   2.904   2.065  0.00  0.00    -0.018 A 
ATOM     27  C   UNL     1      -2.428   1.977   2.237  0.00  0.00    +0.009 A 
ATOM     28  C   UNL     1      -2.660   0.829   2.970  0.00  0.00    +0.038 A 
ATOM     29  C   UNL     1      -3.909   0.601   3.522  0.00  0.00    +0.123 A 
ATOM     30  C   UNL     1      -4.922   1.528   3.345  0.00  0.00    +0.038 A 
ATOM     31  C   UNL     1      -4.686   2.678   2.617  0.00  0.00    +0.009 A 
ATOM     32  F   UNL     1      -4.138  -0.524   4.234  0.00  0.00    -0.205 F 
ENDBRANCH  25  26
BRANCH  25  33
ATOM     33  C   UNL     1      -2.065   4.940   1.912  0.00  0.00    +0.238 C 
ATOM     34  O   UNL     1      -1.053   5.175   1.286  0.00  0.00    -0.273 OA
ATOM     35  N   UNL     1      -2.189   5.378   3.181  0.00  0.00    -0.313 N 
ATOM     36  H   UNL     1      -2.999   5.190   3.681  0.00  0.00    +0.149 HD
BRANCH  35  37
ATOM     37  C   UNL     1      -1.102   6.137   3.804  0.00  0.00    +0.104 C 
BRANCH  37  38
ATOM     38  C   UNL     1      -1.495   6.510   5.234  0.00  0.00    +0.022 C 
BRANCH  38  39
ATOM     39  C   UNL     1      -0.360   7.303   5.885  0.00  0.00    -0.016 C 
ATOM     40  C   UNL     1      -0.183   8.635   5.153  0.00  0.00    +0.007 C 
ATOM     41  C   UNL     1      -0.699   7.568   7.353  0.00  0.00    +0.007 C 
ENDBRANCH  38  39
ENDBRANCH  37  38
ENDBRANCH  35  37
ENDBRANCH  25  33
ENDBRANCH   1  25
TORSDOF 10
