REMARK  Name = ZINC40783223
REMARK  4 active torsions:
REMARK  status: ('A' for Active; 'I' for Inactive)
REMARK    1  A    between atoms: C_4  and  S_7
REMARK    2  A    between atoms: S_7  and  C_8
REMARK    3  A    between atoms: C_9  and  N_26
REMARK    4  A    between atoms: C_10  and  N_14
REMARK                            x       y       z     vdW  Elec       q    Type
REMARK                         _______ _______ _______ _____ _____    ______ ____
ROOT
ATOM      1  C   UNL     1       2.702  -3.239  -1.191  0.00  0.00    +0.127 A 
ATOM      2  C   UNL     1       3.734  -4.177  -1.259  0.00  0.00    +0.098 A 
ATOM      3  C   UNL     1       4.315  -4.605  -0.064  0.00  0.00    +0.147 A 
ATOM      4  N   UNL     1       3.866  -4.105   1.086  0.00  0.00    -0.219 NA
ATOM      5  C   UNL     1       2.890  -3.221   1.106  0.00  0.00    +0.224 A 
ATOM      6  N   UNL     1       2.318  -2.787   0.001  0.00  0.00    -0.227 NA
ENDROOT
BRANCH   3   7
ATOM      7  N   UNL     1       5.345  -5.538  -0.074  0.00  0.00    -0.311 N 
ATOM      8  C   UNL     1       6.739  -5.110  -0.259  0.00  0.00    +0.125 C 
ATOM      9  C   UNL     1       7.572  -5.637   0.916  0.00  0.00    +0.125 C 
ATOM     10  N   UNL     1       7.287  -7.068   1.091  0.00  0.00    -0.314 N 
ATOM     11  C   UNL     1       5.894  -7.495   1.275  0.00  0.00    +0.125 C 
ATOM     12  C   UNL     1       5.061  -6.968   0.106  0.00  0.00    +0.125 C 
ATOM     13  C   UNL     1       8.318  -8.001   1.080  0.00  0.00    +0.099 A 
ATOM     14  C   UNL     1       9.640  -7.568   1.042  0.00  0.00    +0.042 A 
ATOM     15  C   UNL     1      10.655  -8.507   1.032  0.00  0.00    +0.005 A 
ATOM     16  C   UNL     1      10.313  -9.853   1.061  0.00  0.00    +0.018 A 
ATOM     17  C   UNL     1       8.981 -10.211   1.098  0.00  0.00    +0.084 A 
ATOM     18  N   UNL     1       8.033  -9.293   1.112  0.00  0.00    -0.350 N 
ATOM     19  H   UNL     1       7.105  -9.572   1.143  0.00  0.00    +0.166 HD
ENDBRANCH   3   7
BRANCH   2  20
ATOM     20  N   UNL     1       4.174  -4.678  -2.494  0.00  0.00    -0.353 N 
ATOM     21  H   UNL     1       3.812  -4.319  -3.320  0.00  0.00    +0.142 HD
ATOM     22  H   UNL     1       4.840  -5.382  -2.523  0.00  0.00    +0.142 HD
ENDBRANCH   2  20
BRANCH   1  23
ATOM     23  S   UNL     1       1.925  -2.656  -2.662  0.00  0.00    -0.068 S 
BRANCH  23  27
ATOM     24  C   UNL     1      -0.916   0.555  -1.202  0.00  0.00    +0.000 A 
ATOM     25  C   UNL     1       0.407   0.868  -1.456  0.00  0.00    +0.001 A 
ATOM     26  C   UNL     1       1.276  -0.109  -1.901  0.00  0.00    +0.015 A 
ATOM     27  C   UNL     1       0.820  -1.407  -2.094  0.00  0.00    +0.014 A 
ATOM     28  C   UNL     1      -0.510  -1.718  -1.837  0.00  0.00    +0.015 A 
ATOM     29  C   UNL     1      -1.374  -0.736  -1.393  0.00  0.00    +0.001 A 
ENDBRANCH  23  27
ENDBRANCH   1  23
TORSDOF 4
