REMARK  Name = ZINC14538859
REMARK  8 active torsions:
REMARK  status: ('A' for Active; 'I' for Inactive)
REMARK    1  A    between atoms: C_1  and  C_2
REMARK    2  A    between atoms: C_2  and  N_3
REMARK    3  A    between atoms: C_6  and  C_8
REMARK    4  A    between atoms: N_13  and  C_16
REMARK    5  A    between atoms: C_18  and  N_22
REMARK    6  A    between atoms: N_22  and  C_23
REMARK    7  A    between atoms: C_23  and  C_24
REMARK    8  A    between atoms: C_24  and  C_29
REMARK                            x       y       z     vdW  Elec       q    Type
REMARK                         _______ _______ _______ _____ _____    ______ ____
ROOT
ATOM      1  N   UNL     1      -0.778  -0.405   0.524  0.00  0.00    -0.268 N 
ATOM      2  C   UNL     1      -1.717  -0.749   1.420  0.00  0.00    +0.043 A 
ATOM      3  C   UNL     1      -2.862  -0.982   0.733  0.00  0.00    +0.004 A 
ATOM      4  C   UNL     1      -2.553  -0.755  -0.619  0.00  0.00    +0.151 A 
ATOM      5  N   UNL     1      -1.279  -0.406  -0.663  0.00  0.00    -0.166 NA
ATOM      6  C   UNL     1      -4.164  -1.399   1.358  0.00  0.00    +0.023 C 
ATOM      7  C   UNL     1      -3.877  -1.899   2.781  0.00  0.00    -0.067 C 
ATOM      8  C   UNL     1      -3.008  -0.875   3.517  0.00  0.00    -0.009 C 
ATOM      9  C   UNL     1      -1.596  -0.872   2.918  0.00  0.00    +0.054 C 
ENDROOT
BRANCH   4  10
ATOM     10  C   UNL     1      -3.475  -0.877  -1.767  0.00  0.00    +0.267 C 
ATOM     11  O   UNL     1      -4.601  -1.302  -1.599  0.00  0.00    -0.268 OA
ATOM     12  N   UNL     1      -3.067  -0.516  -3.000  0.00  0.00    -0.294 N 
ATOM     13  C   UNL     1      -3.993  -0.551  -4.142  0.00  0.00    +0.123 C 
ATOM     14  C   UNL     1      -3.938   0.804  -4.855  0.00  0.00    +0.103 C 
ATOM     15  N   UNL     1      -2.545   1.119  -5.195  0.00  0.00    -0.302 NA
ATOM     16  C   UNL     1      -1.720   1.259  -3.988  0.00  0.00    +0.103 C 
ATOM     17  C   UNL     1      -1.685  -0.071  -3.238  0.00  0.00    +0.123 C 
ATOM     18  C   UNL     1      -2.466   2.325  -6.030  0.00  0.00    +0.105 C 
ENDBRANCH   4  10
BRANCH   7  19
ATOM     19  N   UNL     1      -5.144  -2.075   3.503  0.00  0.00    +0.382 N 
ATOM     20  H   UNL     1      -5.592  -1.178   3.620  0.00  0.00    -0.085 HD
ATOM     21  H   UNL     1      -5.750  -2.686   2.976  0.00  0.00    -0.085 HD
BRANCH  19  22
ATOM     22  C   UNL     1      -4.878  -2.666   4.821  0.00  0.00    -0.071 C 
BRANCH  22  23
ATOM     23  C   UNL     1      -6.205  -2.982   5.515  0.00  0.00    -0.019 C 
ATOM     24  C   UNL     1      -7.059  -3.901   4.625  0.00  0.00    +0.010 C 
ATOM     25  C   UNL     1      -8.361  -3.133   4.318  0.00  0.00    +0.001 C 
ATOM     26  C   UNL     1      -7.975  -1.644   4.500  0.00  0.00    +0.001 C 
ATOM     27  C   UNL     1      -7.017  -1.686   5.717  0.00  0.00    +0.010 C 
BRANCH  23  28
ATOM     28  C   UNL     1      -5.947  -3.642   6.845  0.00  0.00    -0.043 A 
ATOM     29  C   UNL     1      -4.653  -3.770   7.314  0.00  0.00    +0.004 A 
ATOM     30  C   UNL     1      -4.416  -4.375   8.533  0.00  0.00    +0.000 A 
ATOM     31  C   UNL     1      -5.474  -4.853   9.285  0.00  0.00    +0.000 A 
ATOM     32  C   UNL     1      -6.768  -4.724   8.816  0.00  0.00    +0.000 A 
ATOM     33  C   UNL     1      -7.005  -4.115   7.599  0.00  0.00    +0.004 A 
ENDBRANCH  23  28
ENDBRANCH  22  23
ENDBRANCH  19  22
ENDBRANCH   7  19
BRANCH   1  35
ATOM     34  C   UNL     1       0.726   1.431   1.116  0.00  0.00    +0.029 C 
ATOM     35  C   UNL     1       0.611  -0.071   0.849  0.00  0.00    +0.140 C 
ENDBRANCH   1  35
TORSDOF 6
