REMARK  Name = ZINC36527703
REMARK  17 active torsions:
REMARK  status: ('A' for Active; 'I' for Inactive)
REMARK    1  A    between atoms: C_1  and  C_2
REMARK    2  A    between atoms: C_2  and  C_3
REMARK    3  A    between atoms: C_3  and  C_5
REMARK    4  A    between atoms: C_3  and  C_11
REMARK    5  A    between atoms: N_13  and  C_14
REMARK    6  A    between atoms: N_13  and  C_15
REMARK    7  A    between atoms: C_15  and  C_17
REMARK    8  A    between atoms: C_15  and  C_24
REMARK    9  A    between atoms: C_20  and  C_23
REMARK   10  A    between atoms: N_26  and  C_27
REMARK   11  A    between atoms: C_27  and  C_28
REMARK   12  A    between atoms: C_27  and  C_29
REMARK   13  A    between atoms: C_27  and  C_30
REMARK   14  A    between atoms: C_30  and  C_31
REMARK   15  A    between atoms: C_31  and  C_32
REMARK   16  A    between atoms: C_31  and  C_33
REMARK   17  A    between atoms: C_31  and  C_34
REMARK                            x       y       z     vdW  Elec       q    Type
REMARK                         _______ _______ _______ _____ _____    ______ ____
ROOT
ATOM      1  C   UNL     1      -0.138  -4.709   2.664  0.00  0.00    +0.192 C 
ENDROOT
BRANCH   1   2
ATOM      2  C   UNL     1      -0.438  -5.575   3.860  0.00  0.00    -0.018 A 
ATOM      3  C   UNL     1      -1.311  -6.640   3.741  0.00  0.00    +0.006 A 
ATOM      4  C   UNL     1      -1.587  -7.434   4.838  0.00  0.00    +0.004 A 
ATOM      5  C   UNL     1      -0.989  -7.164   6.055  0.00  0.00    -0.050 A 
ATOM      6  C   UNL     1      -0.115  -6.099   6.174  0.00  0.00    +0.004 A 
ATOM      7  C   UNL     1       0.164  -5.308   5.075  0.00  0.00    +0.006 A 
ATOM      8  C   UNL     1      -1.290  -8.029   7.251  0.00  0.00    +0.044 C 
ENDBRANCH   1   2
BRANCH   1  11
ATOM      9  C   UNL     1      -1.208  -2.542   2.357  0.00  0.00    +0.224 C 
ATOM     10  O   UNL     1      -1.288  -1.354   2.588  0.00  0.00    -0.275 OA
ATOM     11  N   UNL     1      -0.316  -3.300   3.024  0.00  0.00    -0.288 N 
ATOM     12  C   UNL     1       0.476  -2.716   4.109  0.00  0.00    +0.133 C 
BRANCH   9  13
ATOM     13  C   UNL     1      -2.107  -3.170   1.323  0.00  0.00    +0.105 C 
BRANCH  13  14
ATOM     14  C   UNL     1      -2.715  -2.091   0.464  0.00  0.00    -0.036 A 
ATOM     15  C   UNL     1      -3.497  -1.107   1.040  0.00  0.00    +0.004 A 
ATOM     16  C   UNL     1      -4.054  -0.117   0.252  0.00  0.00    +0.000 A 
ATOM     17  C   UNL     1      -3.829  -0.112  -1.112  0.00  0.00    +0.000 A 
ATOM     18  C   UNL     1      -3.047  -1.095  -1.688  0.00  0.00    +0.000 A 
ATOM     19  C   UNL     1      -2.486  -2.082  -0.899  0.00  0.00    +0.004 A 
ENDBRANCH  13  14
BRANCH  13  21
ATOM     20  C   UNL     1      -3.983  -4.787   0.992  0.00  0.00    +0.005 C 
ATOM     21  C   UNL     1      -3.221  -3.952   2.023  0.00  0.00    +0.014 C 
ENDBRANCH  13  21
ENDBRANCH   9  13
ENDBRANCH   1  11
BRANCH   1  22
ATOM     22  C   UNL     1       1.284  -4.939   2.222  0.00  0.00    +0.238 C 
ATOM     23  O   UNL     1       2.072  -4.016   2.209  0.00  0.00    -0.273 OA
ATOM     24  N   UNL     1       1.681  -6.169   1.841  0.00  0.00    -0.308 N 
ATOM     25  H   UNL     1       1.051  -6.907   1.851  0.00  0.00    +0.149 HD
BRANCH  24  26
ATOM     26  C   UNL     1       3.064  -6.392   1.411  0.00  0.00    +0.030 C 
ATOM     27  C   UNL     1       3.257  -5.830   0.001  0.00  0.00    +0.031 C 
ATOM     28  C   UNL     1       4.018  -5.687   2.376  0.00  0.00    +0.031 C 
BRANCH  26  29
ATOM     29  C   UNL     1       3.360  -7.893   1.407  0.00  0.00    +0.031 C 
BRANCH  29  30
ATOM     30  C   UNL     1       2.736  -8.540   2.645  0.00  0.00    -0.036 C 
ATOM     31  C   UNL     1       1.274  -8.887   2.357  0.00  0.00    +0.010 C 
ATOM     32  C   UNL     1       3.503  -9.817   2.995  0.00  0.00    +0.010 C 
ATOM     33  C   UNL     1       2.807  -7.564   3.821  0.00  0.00    +0.010 C 
ENDBRANCH  29  30
ENDBRANCH  26  29
ENDBRANCH  24  26
ENDBRANCH   1  22
TORSDOF 9
