REMARK  Name = ZINC04954156
REMARK  3 active torsions:
REMARK  status: ('A' for Active; 'I' for Inactive)
REMARK    1  A    between atoms: C_3  and  O_9
REMARK    2  A    between atoms: O_9  and  C_10
REMARK    3  A    between atoms: C_10  and  C_11
REMARK                            x       y       z     vdW  Elec       q    Type
REMARK                         _______ _______ _______ _____ _____    ______ ____
ROOT
ATOM      1  C   UNL     1       1.911   1.966  -6.078  0.00  0.00    +0.023 A 
ATOM      2  C   UNL     1       1.267   1.879  -4.859  0.00  0.00    +0.048 A 
ATOM      3  C   UNL     1      -0.089   2.154  -4.770  0.00  0.00    +0.139 A 
ATOM      4  C   UNL     1      -0.795   2.527  -5.905  0.00  0.00    +0.084 A 
ATOM      5  C   UNL     1      -0.146   2.619  -7.122  0.00  0.00    +0.043 A 
ATOM      6  C   UNL     1       1.206   2.339  -7.209  0.00  0.00    +0.043 A 
ATOM      7 CL   UNL     1       2.019   2.455  -8.738  0.00  0.00    -0.083 Cl
ATOM      8 CL   UNL     1      -2.492   2.878  -5.796  0.00  0.00    -0.080 Cl
ENDROOT
BRANCH   3   9
ATOM      9  O   UNL     1      -0.725   2.063  -3.571  0.00  0.00    -0.488 OA
BRANCH   9  10
ATOM     10  C   UNL     1       0.065   1.673  -2.446  0.00  0.00    +0.264 C 
BRANCH  10  11
ATOM     11  C   UNL     1      -0.817   1.626  -1.196  0.00  0.00    +0.203 C 
ATOM     12  C   UNL     1      -0.013   1.086   0.008  0.00  0.00    +0.218 C 
ATOM     13  O   UNL     1      -0.744   1.579   1.156  0.00  0.00    -0.265 OA
ATOM     14  S   UNL     1      -1.204   2.980   0.720  0.00  0.00    +0.306 S 
ATOM     15  O   UNL     1      -2.580   3.018   1.073  0.00  0.00    -0.196 OA
ATOM     16  O   UNL     1      -1.216   2.956  -0.812  0.00  0.00    -0.259 OA
ENDBRANCH  10  11
ENDBRANCH   9  10
ENDBRANCH   3   9
TORSDOF 3
