REMARK  Name = ZINC31056544
REMARK  6 active torsions:
REMARK  status: ('A' for Active; 'I' for Inactive)
REMARK    1  A    between atoms: C_3  and  C_6
REMARK    2  A    between atoms: C_8  and  C_11
REMARK    3  A    between atoms: C_11  and  N_12
REMARK    4  A    between atoms: C_16  and  C_19
REMARK    5  A    between atoms: N_21  and  C_22
REMARK    6  A    between atoms: C_26  and  C_28
REMARK                            x       y       z     vdW  Elec       q    Type
REMARK                         _______ _______ _______ _____ _____    ______ ____
ROOT
ATOM      1  N   UNL     1       3.719   1.753   0.014  0.00  0.00    +0.386 N 
ATOM      2  C   UNL     1       3.839   2.556   1.238  0.00  0.00    -0.078 C 
ATOM      3  C   UNL     1       2.703   3.580   1.290  0.00  0.00    -0.018 C 
ATOM      4  C   UNL     1       1.359   2.846   1.268  0.00  0.00    +0.009 C 
ATOM      5  C   UNL     1       1.280   1.980   0.007  0.00  0.00    +0.059 C 
ATOM      6  C   UNL     1       2.458   1.002  -0.008  0.00  0.00    -0.065 C 
ATOM      7  H   UNL     1       3.713   2.445  -0.842  0.00  0.00    -0.081 HD
ENDROOT
BRANCH   5   8
ATOM      8  C   UNL     1      -0.014   1.209   0.007  0.00  0.00    +0.218 C 
ATOM      9  O   UNL     1       0.002  -0.004  -0.008  0.00  0.00    -0.275 OA
ATOM     10  N   UNL     1      -1.191   1.867   0.018  0.00  0.00    -0.285 N 
ATOM     11  H   UNL     1      -1.207   2.963   0.108  0.00  0.00    +0.155 HD
BRANCH  10  12
ATOM     12  C   UNL     1      -2.391   1.155  -0.086  0.00  0.00    +0.034 A 
ATOM     13  C   UNL     1      -2.510  -0.099   0.499  0.00  0.00    +0.025 A 
ATOM     14  C   UNL     1      -3.696  -0.799   0.396  0.00  0.00    +0.022 A 
ATOM     15  C   UNL     1      -4.766  -0.251  -0.290  0.00  0.00    +0.053 A 
ATOM     16  C   UNL     1      -4.651   0.998  -0.874  0.00  0.00    +0.075 A 
ATOM     17  C   UNL     1      -3.468   1.704  -0.769  0.00  0.00    +0.037 A 
ATOM     18 CL   UNL     1      -6.256  -1.134  -0.418  0.00  0.00    -0.083 Cl
BRANCH  16  19
ATOM     19  C   UNL     1      -5.819   1.591  -1.619  0.00  0.00    +0.419 C 
ATOM     20  F   UNL     1      -5.464   2.850  -2.115  0.00  0.00    -0.166 F 
ATOM     21  F   UNL     1      -6.168   0.752  -2.682  0.00  0.00    -0.166 F 
ATOM     22  F   UNL     1      -6.908   1.722  -0.750  0.00  0.00    -0.166 F 
ENDBRANCH  16  19
ENDBRANCH  10  12
ENDBRANCH   5   8
BRANCH   1  23
ATOM     23  C   UNL     1       4.870   0.853  -0.140  0.00  0.00    +0.022 C 
BRANCH  23  26
ATOM     24  C   UNL     1       7.899   2.789  -0.106  0.00  0.00    +0.209 A 
ATOM     25  N   UNL     1       6.924   2.126   0.559  0.00  0.00    -0.192 NA
ATOM     26  C   UNL     1       6.118   1.667  -0.365  0.00  0.00    +0.211 A 
ATOM     27  O   UNL     1       6.606   2.062  -1.546  0.00  0.00    -0.340 OA
ATOM     28  N   UNL     1       7.623   2.701  -1.384  0.00  0.00    -0.056 NA
BRANCH  24  31
ATOM     29  C   UNL     1      11.046   4.748   0.656  0.00  0.00    +0.008 A 
ATOM     30  C   UNL     1      10.068   4.171  -0.121  0.00  0.00    +0.019 A 
ATOM     31  C   UNL     1       9.055   3.486   0.497  0.00  0.00    +0.060 A 
ATOM     32  S   UNL     1       9.498   3.648   2.219  0.00  0.00    -0.093 S 
ATOM     33  C   UNL     1      10.984   4.614   2.007  0.00  0.00    +0.046 A 
ENDBRANCH  24  31
ENDBRANCH  23  26
ENDBRANCH   1  23
TORSDOF 6
