REMARK  Name = ZINC25682049
REMARK  6 active torsions:
REMARK  status: ('A' for Active; 'I' for Inactive)
REMARK    1  A    between atoms: C_2  and  C_3
REMARK    2  A    between atoms: C_3  and  N_4
REMARK    3  A    between atoms: C_5  and  C_11
REMARK    4  A    between atoms: C_11  and  C_12
REMARK    5  A    between atoms: C_18  and  C_20
REMARK    6  A    between atoms: C_20  and  C_21
REMARK                            x       y       z     vdW  Elec       q    Type
REMARK                         _______ _______ _______ _____ _____    ______ ____
ROOT
ATOM      1  C   UNL     1      -1.427   2.050  -5.797  0.00  0.00    +0.058 A 
ATOM      2  C   UNL     1      -2.505   2.792  -5.443  0.00  0.00    +0.072 A 
ATOM      3  S   UNL     1      -2.390   2.715  -3.661  0.00  0.00    -0.060 S 
ATOM      4  C   UNL     1      -0.961   1.733  -3.569  0.00  0.00    +0.165 A 
ATOM      5  N   UNL     1      -0.674   1.541  -4.842  0.00  0.00    -0.229 NA
ATOM      6  N   UNL     1      -0.288   1.272  -2.443  0.00  0.00    -0.265 N 
ATOM      7  C   UNL     1      -0.742   1.585  -1.213  0.00  0.00    +0.220 C 
ATOM      8  O   UNL     1      -1.736   2.268  -1.088  0.00  0.00    -0.275 OA
ATOM      9  H   UNL     1       0.614   0.653  -2.556  0.00  0.00    +0.157 HD
ENDROOT
BRANCH   1  10
ATOM     10  C   UNL     1      -1.094   1.819  -7.248  0.00  0.00    +0.132 C 
BRANCH  10  12
ATOM     11  N   UNL     1       0.711   3.513  -7.907  0.00  0.00    -0.303 N 
ATOM     12  C   UNL     1       0.324   2.256  -7.514  0.00  0.00    +0.138 A 
ATOM     13  N   UNL     1       1.374   1.507  -7.414  0.00  0.00    -0.158 NA
ATOM     14  N   UNL     1       2.495   2.282  -7.743  0.00  0.00    -0.254 N 
ATOM     15  H   UNL     1       3.499   1.833  -7.721  0.00  0.00    +0.191 HD
ATOM     16  C   UNL     1       2.053   3.522  -8.040  0.00  0.00    +0.176 A 
ATOM     17  S   UNL     1       3.017   4.857  -8.508  0.00  0.00    -0.011 S 
BRANCH  11  18
ATOM     18  C   UNL     1      -0.180   4.652  -8.139  0.00  0.00    +0.152 C 
BRANCH  18  20
ATOM     19  C   UNL     1      -0.086   6.710  -6.828  0.00  0.00    +0.005 C 
ATOM     20  C   UNL     1      -0.350   5.427  -6.857  0.00  0.00    -0.013 C 
ENDBRANCH  18  20
ENDBRANCH  11  18
ENDBRANCH  10  12
ENDBRANCH   1  10
BRANCH   7  21
ATOM     21  C   UNL     1      -0.013   1.086   0.008  0.00  0.00    +0.120 C 
BRANCH  21  22
ATOM     22  C   UNL     1      -0.729   1.579   1.267  0.00  0.00    +0.146 C 
ATOM     23  C   UNL     1       0.063   1.187   2.487  0.00  0.00    +0.231 C 
ATOM     24  O   UNL     1       0.794   2.013   2.991  0.00  0.00    -0.274 OA
ATOM     25  N   UNL     1      -0.002  -0.020   3.039  0.00  0.00    -0.284 N 
ATOM     26  C   UNL     1      -0.856  -1.057   2.675  0.00  0.00    +0.048 A 
ATOM     27  C   UNL     1      -0.588  -2.348   3.117  0.00  0.00    +0.044 A 
ATOM     28  C   UNL     1      -1.419  -3.393   2.764  0.00  0.00    +0.043 A 
ATOM     29  C   UNL     1      -2.533  -3.167   1.974  0.00  0.00    +0.021 A 
ATOM     30  C   UNL     1      -2.821  -1.885   1.542  0.00  0.00    +0.018 A 
ATOM     31  C   UNL     1      -1.992  -0.834   1.897  0.00  0.00    +0.030 A 
ATOM     32  S   UNL     1      -2.374   0.810   1.377  0.00  0.00    -0.110 S 
ATOM     33 CL   UNL     1      -1.065  -5.001   3.314  0.00  0.00    -0.083 Cl
ATOM     34  H   UNL     1       0.667  -0.281   3.872  0.00  0.00    +0.155 HD
ENDBRANCH  21  22
ENDBRANCH   7  21
TORSDOF 6
