REMARK  Name = ZINC40687642
REMARK  7 active torsions:
REMARK  status: ('A' for Active; 'I' for Inactive)
REMARK    1  A    between atoms: C_3  and  O_9
REMARK    2  A    between atoms: O_9  and  C_10
REMARK    3  A    between atoms: C_10  and  C_11
REMARK    4  A    between atoms: N_13  and  N_14
REMARK    5  A    between atoms: C_16  and  N_28
REMARK    6  A    between atoms: C_17  and  N_21
REMARK    7  A    between atoms: N_21  and  C_22
REMARK                            x       y       z     vdW  Elec       q    Type
REMARK                         _______ _______ _______ _____ _____    ______ ____
ROOT
ATOM      1  N   UNL     1       6.297   6.066   0.618  0.00  0.00    -0.247 N 
ATOM      2  C   UNL     1       6.457   7.429   0.400  0.00  0.00    +0.161 A 
ATOM      3  C   UNL     1       7.733   7.985   0.289  0.00  0.00    +0.107 A 
ATOM      4  C   UNL     1       7.837   9.360   0.070  0.00  0.00    +0.149 A 
ATOM      5  N   UNL     1       6.723  10.083  -0.025  0.00  0.00    -0.219 NA
ATOM      6  C   UNL     1       5.538   9.519   0.085  0.00  0.00    +0.225 A 
ATOM      7  N   UNL     1       5.396   8.225   0.287  0.00  0.00    -0.217 NA
ATOM      8  H   UNL     1       7.076   5.494   0.698  0.00  0.00    +0.172 HD
ENDROOT
BRANCH   1  11
ATOM      9  C   UNL     1       4.857   4.197   0.932  0.00  0.00    +0.267 C 
ATOM     10  O   UNL     1       5.830   3.481   1.033  0.00  0.00    -0.271 OA
ATOM     11  N   UNL     1       5.011   5.519   0.721  0.00  0.00    -0.232 N 
ATOM     12  H   UNL     1       4.233   6.092   0.640  0.00  0.00    +0.173 HD
BRANCH   9  13
ATOM     13  C   UNL     1       3.474   3.608   1.043  0.00  0.00    +0.326 C 
BRANCH  13  14
ATOM     14  O   UNL     1       3.572   2.200   1.264  0.00  0.00    -0.481 OA
BRANCH  14  17
ATOM     15  C   UNL     1       0.009   1.478   1.424  0.00  0.00    +0.023 A 
ATOM     16  C   UNL     1       1.194   2.179   1.298  0.00  0.00    +0.048 A 
ATOM     17  C   UNL     1       2.406   1.512   1.388  0.00  0.00    +0.140 A 
ATOM     18  C   UNL     1       2.428   0.141   1.605  0.00  0.00    +0.084 A 
ATOM     19  C   UNL     1       1.241  -0.556   1.730  0.00  0.00    +0.043 A 
ATOM     20  C   UNL     1       0.032   0.112   1.639  0.00  0.00    +0.043 A 
ATOM     21 CL   UNL     1      -1.457  -0.766   1.797  0.00  0.00    -0.083 Cl
ATOM     22 CL   UNL     1       3.944  -0.697   1.717  0.00  0.00    -0.080 Cl
ENDBRANCH  14  17
ENDBRANCH  13  14
ENDBRANCH   9  13
ENDBRANCH   1  11
BRANCH   3  23
ATOM     23  N   UNL     1       8.881   7.184   0.397  0.00  0.00    -0.353 N 
ATOM     24  H   UNL     1       8.793   6.230   0.549  0.00  0.00    +0.143 HD
ATOM     25  H   UNL     1       9.761   7.584   0.318  0.00  0.00    +0.143 HD
ENDBRANCH   3  23
BRANCH   4  26
ATOM     26  N   UNL     1       9.084   9.964  -0.047  0.00  0.00    -0.298 N 
ATOM     27  H   UNL     1       9.887   9.421  -0.059  0.00  0.00    +0.154 HD
BRANCH  26  28
ATOM     28  C   UNL     1       9.179  11.350  -0.146  0.00  0.00    +0.035 A 
ATOM     29  C   UNL     1       8.237  12.178   0.464  0.00  0.00    +0.041 A 
ATOM     30  C   UNL     1       8.367  13.545   0.342  0.00  0.00    +0.084 A 
ATOM     31  N   UNL     1       9.367  14.072  -0.340  0.00  0.00    -0.367 N 
ATOM     32  C   UNL     1      10.279  13.322  -0.931  0.00  0.00    +0.084 A 
ATOM     33  C   UNL     1      10.223  11.947  -0.853  0.00  0.00    +0.041 A 
ATOM     34  H   UNL     1       9.434  15.037  -0.409  0.00  0.00    +0.165 HD
ENDBRANCH  26  28
ENDBRANCH   4  26
TORSDOF 7
