REMARK  Name = ZINC02631281
REMARK  16 active torsions:
REMARK  status: ('A' for Active; 'I' for Inactive)
REMARK    1  A    between atoms: C_1  and  C_2
REMARK    2  A    between atoms: C_4  and  C_27
REMARK    3  A    between atoms: C_7  and  O_8
REMARK    4  A    between atoms: O_8  and  C_9
REMARK    5  A    between atoms: C_9  and  C_10
REMARK    6  A    between atoms: C_10  and  C_12
REMARK    7  A    between atoms: C_10  and  O_26
REMARK    8  A    between atoms: C_12  and  N_60
REMARK    9  A    between atoms: C_13  and  C_15
REMARK   10  A    between atoms: C_13  and  C_16
REMARK   11  A    between atoms: C_13  and  N_60
REMARK   12  A    between atoms: C_19  and  S_22
REMARK   13  A    between atoms: S_22  and  N_25
REMARK   14  A    between atoms: C_27  and  C_28
REMARK   15  A    between atoms: C_27  and  C_29
REMARK   16  A    between atoms: C_27  and  C_30
REMARK                            x       y       z     vdW  Elec       q    Type
REMARK                         _______ _______ _______ _____ _____    ______ ____
ROOT
ATOM      1  C   UNL     1       2.256   0.718   0.771  0.00  0.00    -0.047 C 
ENDROOT
BRANCH   1   2
ATOM      2  N   UNL     1       1.369   1.603  -0.007  0.00  0.00    +0.385 N 
ATOM      3  H   UNL     1       1.702   1.649  -0.977  0.00  0.00    -0.085 HD
ATOM      4  H   UNL     1       1.383   2.544   0.404  0.00  0.00    -0.085 HD
BRANCH   2   5
ATOM      5  C   UNL     1      -0.013   1.086   0.008  0.00  0.00    -0.044 C 
ATOM      6  C   UNL     1      -0.729   1.579   1.267  0.00  0.00    -0.009 C 
BRANCH   5   7
ATOM      7  C   UNL     1      -0.742   1.585  -1.213  0.00  0.00    -0.062 A 
ATOM      8  C   UNL     1      -0.551   2.883  -1.649  0.00  0.00    +0.004 A 
ATOM      9  C   UNL     1      -1.216   3.339  -2.772  0.00  0.00    +0.029 A 
ATOM     10  C   UNL     1      -2.079   2.501  -3.452  0.00  0.00    +0.105 A 
ATOM     11  C   UNL     1      -2.273   1.205  -3.013  0.00  0.00    +0.029 A 
ATOM     12  C   UNL     1      -1.605   0.747  -1.893  0.00  0.00    +0.004 A 
BRANCH  10  13
ATOM     13  S   UNL     1      -2.932   3.085  -4.879  0.00  0.00    +0.056 S 
ATOM     14  O   UNL     1      -2.163   4.160  -5.401  0.00  0.00    -0.153 OA
ATOM     15  O   UNL     1      -3.263   1.939  -5.652  0.00  0.00    -0.153 OA
BRANCH  13  16
ATOM     16  N   UNL     1      -4.364   3.736  -4.361  0.00  0.00    -0.204 NA
ATOM     17  H   UNL     1      -4.772   4.465  -4.854  0.00  0.00    +0.144 HD
ATOM     18  H   UNL     1      -4.795   3.388  -3.565  0.00  0.00    +0.144 HD
ENDBRANCH  13  16
ENDBRANCH  10  13
ENDBRANCH   5   7
ENDBRANCH   2   5
ENDBRANCH   1   2
BRANCH   1  19
ATOM     19  C   UNL     1       3.679   1.279   0.737  0.00  0.00    +0.135 C 
BRANCH  19  20
ATOM     20  O   UNL     1       4.133   1.345  -0.616  0.00  0.00    -0.390 OA
ATOM     21  H   UNL     1       4.152   0.489  -1.066  0.00  0.00    +0.210 HD
ENDBRANCH  19  20
BRANCH  19  22
ATOM     22  C   UNL     1       4.606   0.367   1.543  0.00  0.00    +0.258 C 
BRANCH  22  23
ATOM     23  O   UNL     1       5.909   0.950   1.609  0.00  0.00    -0.489 OA
BRANCH  23  30
ATOM     24  C   UNL     1       8.494   2.081   1.741  0.00  0.00    +0.047 C 
ATOM     25  C   UNL     1       8.147   0.767   2.393  0.00  0.00    -0.009 A 
ATOM     26  C   UNL     1       9.110   0.067   3.094  0.00  0.00    +0.011 A 
ATOM     27  C   UNL     1       8.794  -1.141   3.688  0.00  0.00    -0.042 A 
ATOM     28  C   UNL     1       7.512  -1.649   3.586  0.00  0.00    +0.008 A 
ATOM     29  C   UNL     1       6.544  -0.951   2.890  0.00  0.00    +0.046 A 
ATOM     30  C   UNL     1       6.859   0.262   2.294  0.00  0.00    +0.124 A 
BRANCH  27  31
ATOM     31  C   UNL     1       9.848  -1.905   4.447  0.00  0.00    -0.013 C 
ATOM     32  C   UNL     1       9.243  -3.196   5.000  0.00  0.00    +0.015 C 
ATOM     33  C   UNL     1      11.007  -2.245   3.508  0.00  0.00    +0.015 C 
ATOM     34  C   UNL     1      10.365  -1.048   5.604  0.00  0.00    +0.015 C 
ENDBRANCH  27  31
ENDBRANCH  23  30
ENDBRANCH  22  23
ENDBRANCH  19  22
ENDBRANCH   1  19
TORSDOF 11
