REMARK  Name = ZINC35035878
REMARK  5 active torsions:
REMARK  status: ('A' for Active; 'I' for Inactive)
REMARK    1  A    between atoms: C_1  and  C_2
REMARK    2  A    between atoms: C_2  and  C_4
REMARK    3  A    between atoms: C_2  and  N_17
REMARK    4  A    between atoms: N_14  and  C_15
REMARK    5  A    between atoms: N_25  and  C_26
REMARK                            x       y       z     vdW  Elec       q    Type
REMARK                         _______ _______ _______ _____ _____    ______ ____
ROOT
ATOM      1  N   UNL     1      -0.907  -0.025  -0.978  0.00  0.00    +0.388 N 
ATOM      2  C   UNL     1      -0.315  -1.257  -1.514  0.00  0.00    -0.059 C 
ATOM      3  C   UNL     1      -1.357  -2.379  -1.480  0.00  0.00    +0.091 C 
ATOM      4  N   UNL     1      -2.559  -1.922  -2.196  0.00  0.00    -0.289 N 
ATOM      5  C   UNL     1      -3.126  -0.614  -1.832  0.00  0.00    +0.091 C 
ATOM      6  C   UNL     1      -2.000   0.425  -1.849  0.00  0.00    -0.059 C 
ATOM      7  C   UNL     1      -3.123  -2.679  -3.157  0.00  0.00    +0.306 C 
ATOM      8  O   UNL     1      -2.701  -3.798  -3.376  0.00  0.00    -0.252 OA
ATOM      9  N   UNL     1      -4.157  -2.196  -3.875  0.00  0.00    -0.269 N 
ATOM     10  H   UNL     1      -4.455  -1.283  -3.742  0.00  0.00    +0.156 HD
ATOM     11  H   UNL     1      -1.267  -0.202  -0.052  0.00  0.00    -0.081 HD
ENDROOT
BRANCH   9  12
ATOM     12  C   UNL     1      -4.799  -3.013  -4.813  0.00  0.00    +0.035 A 
ATOM     13  C   UNL     1      -4.951  -4.370  -4.565  0.00  0.00    +0.025 A 
ATOM     14  C   UNL     1      -5.585  -5.174  -5.493  0.00  0.00    +0.022 A 
ATOM     15  C   UNL     1      -6.069  -4.627  -6.668  0.00  0.00    +0.041 A 
ATOM     16  C   UNL     1      -5.919  -3.274  -6.918  0.00  0.00    +0.022 A 
ATOM     17  C   UNL     1      -5.291  -2.465  -5.991  0.00  0.00    +0.025 A 
ATOM     18 CL   UNL     1      -6.866  -5.639  -7.832  0.00  0.00    -0.084 Cl
ENDBRANCH   9  12
BRANCH   1  20
ATOM     19  C   UNL     1      -0.482   2.293  -0.311  0.00  0.00    -0.005 C 
ATOM     20  C   UNL     1       0.123   1.021  -0.908  0.00  0.00    -0.004 C 
BRANCH  20  21
ATOM     21  C   UNL     1       1.260   0.549  -0.038  0.00  0.00    +0.099 A 
ATOM     22  N   UNL     1       0.976  -0.127   1.034  0.00  0.00    -0.235 NA
ATOM     23  C   UNL     1       1.946  -0.584   1.864  0.00  0.00    +0.079 A 
ATOM     24  C   UNL     1       1.644  -1.310   3.017  0.00  0.00    +0.048 A 
ATOM     25  C   UNL     1       2.666  -1.754   3.828  0.00  0.00    +0.043 A 
ATOM     26  C   UNL     1       3.993  -1.486   3.512  0.00  0.00    +0.021 A 
ATOM     27  C   UNL     1       4.313  -0.775   2.389  0.00  0.00    +0.017 A 
ATOM     28  C   UNL     1       3.298  -0.316   1.551  0.00  0.00    +0.065 A 
ATOM     29  C   UNL     1       3.584   0.451   0.330  0.00  0.00    +0.262 A 
ATOM     30  O   UNL     1       4.727   0.715   0.003  0.00  0.00    -0.267 OA
ATOM     31  N   UNL     1       2.529   0.847  -0.419  0.00  0.00    -0.301 N 
ATOM     32  C   UNL     1       2.758   1.611  -1.648  0.00  0.00    +0.153 C 
ATOM     33 CL   UNL     1       2.291  -2.658   5.262  0.00  0.00    -0.083 Cl
ENDBRANCH  20  21
ENDBRANCH   1  20
TORSDOF 3
