REMARK  Name = ZINC20617671
REMARK  14 active torsions:
REMARK  status: ('A' for Active; 'I' for Inactive)
REMARK    1  A    between atoms: C_1  and  C_2
REMARK    2  A    between atoms: C_2  and  C_3
REMARK    3  A    between atoms: C_3  and  O_5
REMARK    4  A    between atoms: O_5  and  C_6
REMARK    5  A    between atoms: C_6  and  C_7
REMARK    6  A    between atoms: C_10  and  C_38
REMARK    7  A    between atoms: C_14  and  C_25
REMARK    8  A    between atoms: N_16  and  C_17
REMARK    9  A    between atoms: C_20  and  C_23
REMARK   10  A    between atoms: N_27  and  C_28
REMARK   11  A    between atoms: C_31  and  O_36
REMARK   12  A    between atoms: C_33  and  O_34
REMARK   13  A    between atoms: O_34  and  C_35
REMARK   14  A    between atoms: O_36  and  C_37
REMARK                            x       y       z     vdW  Elec       q    Type
REMARK                         _______ _______ _______ _____ _____    ______ ____
ROOT
ATOM      1  C   UNL     1      -2.520   9.764   0.315  0.00  0.00    +0.018 A 
ATOM      2  C   UNL     1      -3.770  10.336   0.436  0.00  0.00    +0.118 A 
ATOM      3  N   UNL     1      -4.837   9.601   0.687  0.00  0.00    -0.256 NA
ATOM      4  C   UNL     1      -4.779   8.293   0.836  0.00  0.00    +0.081 A 
ATOM      5  C   UNL     1      -3.566   7.628   0.732  0.00  0.00    +0.159 A 
ATOM      6  C   UNL     1      -2.404   8.377   0.463  0.00  0.00    +0.028 A 
ATOM      7  C   UNL     1      -1.114   7.694   0.350  0.00  0.00    +0.030 A 
ATOM      8  C   UNL     1      -1.134   6.321   0.237  0.00  0.00    +0.098 A 
ATOM      9  C   UNL     1      -2.455   5.661   0.248  0.00  0.00    +0.212 A 
ATOM     10  N   UNL     1      -2.635   4.499  -0.341  0.00  0.00    -0.325 N 
ATOM     11  O   UNL     1      -3.480   6.286   0.884  0.00  0.00    -0.437 OA
ATOM     12  C   UNL     1      -6.038   7.514   1.120  0.00  0.00    +0.069 C 
ATOM     13  H   UNL     1      -1.778   3.967  -0.780  0.00  0.00    +0.169 HD
ENDROOT
BRANCH  10  14
ATOM     14  C   UNL     1      -3.887   3.953  -0.409  0.00  0.00    +0.042 A 
ATOM     15  C   UNL     1      -4.301   3.025   0.550  0.00  0.00    +0.026 A 
ATOM     16  C   UNL     1      -5.567   2.483   0.478  0.00  0.00    +0.005 A 
ATOM     17  C   UNL     1      -6.423   2.848  -0.546  0.00  0.00    -0.050 A 
ATOM     18  C   UNL     1      -6.017   3.762  -1.503  0.00  0.00    +0.005 A 
ATOM     19  C   UNL     1      -4.756   4.316  -1.441  0.00  0.00    +0.026 A 
ATOM     20  C   UNL     1      -7.802   2.246  -0.621  0.00  0.00    +0.044 C 
ENDBRANCH  10  14
BRANCH   8  21
ATOM     21  C   UNL     1       0.112   5.542   0.116  0.00  0.00    +0.253 C 
ATOM     22  O   UNL     1       1.186   6.112   0.110  0.00  0.00    -0.270 OA
ATOM     23  N   UNL     1       0.060   4.199   0.013  0.00  0.00    -0.278 N 
ATOM     24  H   UNL     1      -0.913   3.690  -0.054  0.00  0.00    +0.155 HD
BRANCH  23  25
ATOM     25  C   UNL     1       1.246   3.452  -0.009  0.00  0.00    +0.076 A 
ATOM     26  C   UNL     1       2.379   3.965  -0.622  0.00  0.00    +0.030 A 
ATOM     27  C   UNL     1       3.546   3.226  -0.649  0.00  0.00    +0.047 A 
ATOM     28  C   UNL     1       3.588   1.971  -0.058  0.00  0.00    +0.124 A 
ATOM     29  C   UNL     1       2.460   1.456   0.561  0.00  0.00    +0.093 A 
ATOM     30  C   UNL     1       1.288   2.195   0.590  0.00  0.00    +0.145 A 
BRANCH  30  31
ATOM     31  O   UNL     1       0.181   1.691   1.197  0.00  0.00    -0.493 OA
ATOM     32  C   UNL     1       0.296   0.394   1.784  0.00  0.00    +0.277 C 
ENDBRANCH  30  31
BRANCH  28  33
ATOM     33  O   UNL     1       4.738   1.246  -0.087  0.00  0.00    -0.495 OA
ATOM     34  C   UNL     1       5.862   1.837  -0.741  0.00  0.00    +0.277 C 
ENDBRANCH  28  33
ENDBRANCH  23  25
ENDBRANCH   8  21
BRANCH   1  35
ATOM     35  C   UNL     1      -1.308  10.613   0.029  0.00  0.00    +0.269 C 
BRANCH  35  36
ATOM     36  O   UNL     1      -1.706  12.005  -0.077  0.00  0.00    -0.460 OA
BRANCH  36  37
ATOM     37  C   UNL     1      -0.737  12.898  -0.332  0.00  0.00    +0.307 C 
ATOM     38  O   UNL     1       0.406  12.529  -0.462  0.00  0.00    -0.251 OA
BRANCH  37  40
ATOM     39  C   UNL     1       0.200  15.156  -0.745  0.00  0.00    +0.015 C 
ATOM     40  C   UNL     1      -1.075  14.361  -0.456  0.00  0.00    +0.117 C 
ENDBRANCH  37  40
ENDBRANCH  36  37
ENDBRANCH  35  36
ENDBRANCH   1  35
TORSDOF 9
