REMARK  Name = ZINC02204707
REMARK  7 active torsions:
REMARK  status: ('A' for Active; 'I' for Inactive)
REMARK    1  A    between atoms: C_3  and  C_8
REMARK    2  A    between atoms: C_11  and  C_13
REMARK    3  A    between atoms: C_13  and  C_29
REMARK    4  A    between atoms: C_14  and  N_15
REMARK    5  A    between atoms: N_15  and  C_16
REMARK    6  A    between atoms: C_19  and  S_22
REMARK    7  A    between atoms: S_22  and  N_25
REMARK                            x       y       z     vdW  Elec       q    Type
REMARK                         _______ _______ _______ _____ _____    ______ ____
ROOT
ATOM      1  N   UNL     1       7.317   5.331   0.065  0.00  0.00    -0.319 N 
ATOM      2  H   UNL     1       7.197   4.380  -0.088  0.00  0.00    +0.152 HD
ENDROOT
BRANCH   1   3
ATOM      3  C   UNL     1       8.599   5.850   0.265  0.00  0.00    +0.031 A 
ATOM      4  C   UNL     1       8.772   7.210   0.490  0.00  0.00    +0.025 A 
ATOM      5  C   UNL     1      10.040   7.719   0.687  0.00  0.00    +0.031 A 
ATOM      6  C   UNL     1      11.137   6.878   0.660  0.00  0.00    +0.113 A 
ATOM      7  C   UNL     1      10.968   5.523   0.437  0.00  0.00    +0.031 A 
ATOM      8  C   UNL     1       9.703   5.006   0.244  0.00  0.00    +0.025 A 
BRANCH   6   9
ATOM      9  S   UNL     1      12.754   7.532   0.912  0.00  0.00    +0.102 S 
ATOM     10  O   UNL     1      13.659   6.625   0.298  0.00  0.00    -0.146 OA
ATOM     11  O   UNL     1      12.695   8.907   0.557  0.00  0.00    -0.146 OA
BRANCH   9  12
ATOM     12  N   UNL     1      13.057   7.476   2.539  0.00  0.00    -0.093 NA
ATOM     13  C   UNL     1      14.197   7.904   3.004  0.00  0.00    +0.212 C 
ATOM     14  N   UNL     1      15.147   8.403   2.145  0.00  0.00    -0.369 N 
ATOM     15  N   UNL     1      14.449   7.857   4.355  0.00  0.00    -0.369 N 
ATOM     16  H   UNL     1      14.969   8.437   1.192  0.00  0.00    +0.159 HD
ATOM     17  H   UNL     1      13.779   7.505   4.962  0.00  0.00    +0.159 HD
ATOM     18  H   UNL     1      15.297   8.176   4.702  0.00  0.00    +0.159 HD
ATOM     19  H   UNL     1      15.995   8.722   2.491  0.00  0.00    +0.159 HD
ENDBRANCH   9  12
ENDBRANCH   6   9
ENDBRANCH   1   3
BRANCH   1  21
ATOM     20  C   UNL     1       4.975   5.643   0.005  0.00  0.00    +0.098 C 
ATOM     21  C   UNL     1       6.232   6.162   0.086  0.00  0.00    +0.093 C 
BRANCH  20  25
ATOM     22  C   UNL     1       5.321   1.940   0.061  0.00  0.00    +0.079 A 
ATOM     23  C   UNL     1       3.991   1.618   0.085  0.00  0.00    +0.075 A 
ATOM     24  S   UNL     1       3.253   3.247   0.069  0.00  0.00    -0.074 S 
ATOM     25  C   UNL     1       4.777   4.181   0.032  0.00  0.00    +0.120 A 
ATOM     26  N   UNL     1       5.680   3.212   0.041  0.00  0.00    -0.238 NA
BRANCH  22  29
ATOM     27  C   UNL     1       8.657   0.207   0.047  0.00  0.00    +0.002 A 
ATOM     28  C   UNL     1       7.703   1.205   0.044  0.00  0.00    +0.010 A 
ATOM     29  C   UNL     1       6.350   0.872   0.064  0.00  0.00    +0.002 A 
ATOM     30  C   UNL     1       5.967  -0.468   0.086  0.00  0.00    +0.025 A 
ATOM     31  C   UNL     1       6.930  -1.458   0.089  0.00  0.00    +0.019 A 
ATOM     32  C   UNL     1       8.272  -1.121   0.070  0.00  0.00    +0.015 A 
ATOM     33 BR   UNL     1       6.413  -3.277   0.120  0.00  0.00    -0.050 Br
ENDBRANCH  22  29
ENDBRANCH  20  25
BRANCH  20  34
ATOM     34  C   UNL     1       3.846   6.517  -0.106  0.00  0.00    +0.103 C 
ATOM     35  N   UNL     1       2.950   7.210  -0.194  0.00  0.00    -0.191 NA
ENDBRANCH  20  34
ENDBRANCH   1  21
TORSDOF 7
