REMARK  Name = ZINC09129844
REMARK  6 active torsions:
REMARK  status: ('A' for Active; 'I' for Inactive)
REMARK    1  A    between atoms: C_1  and  C_2
REMARK    2  A    between atoms: C_5  and  N_8
REMARK    3  A    between atoms: C_13  and  C_15
REMARK    4  A    between atoms: C_15  and  N_17
REMARK    5  A    between atoms: C_24  and  S_28
REMARK    6  A    between atoms: S_28  and  C_31
REMARK                            x       y       z     vdW  Elec       q    Type
REMARK                         _______ _______ _______ _____ _____    ______ ____
ROOT
ATOM      1  C   UNL     1      -0.132  -6.748  -2.560  0.00  0.00    +0.293 C 
ATOM      2  O   UNL     1      -0.122  -7.965  -2.633  0.00  0.00    -0.266 OA
ENDROOT
BRANCH   1   3
ATOM      3  N   UNL     1      -0.240  -6.012  -3.671  0.00  0.00    -0.151 NA
ATOM      4  C   UNL     1      -0.336  -6.607  -4.855  0.00  0.00    +0.164 A 
ATOM      5  N   UNL     1      -0.446  -6.021  -6.075  0.00  0.00    -0.335 N 
ATOM      6  H   UNL     1      -0.461  -5.054  -6.151  0.00  0.00    +0.168 HD
ATOM      7  C   UNL     1      -0.537  -6.806  -7.209  0.00  0.00    +0.055 A 
ATOM      8  C   UNL     1      -0.655  -6.415  -8.550  0.00  0.00    +0.028 A 
ATOM      9  C   UNL     1      -0.733  -7.357  -9.550  0.00  0.00    +0.029 A 
ATOM     10  C   UNL     1      -0.696  -8.711  -9.264  0.00  0.00    +0.089 A 
ATOM     11  C   UNL     1      -0.580  -9.124  -7.948  0.00  0.00    +0.044 A 
ATOM     12  C   UNL     1      -0.502  -8.184  -6.947  0.00  0.00    +0.040 A 
ATOM     13  S   UNL     1      -0.342  -8.256  -5.183  0.00  0.00    -0.052 S 
BRANCH  10  14
ATOM     14  S   UNL     1      -0.798  -9.898 -10.562  0.00  0.00    -0.006 S 
ATOM     15  O   UNL     1      -1.340 -11.060  -9.950  0.00  0.00    -0.170 OA
ATOM     16  O   UNL     1      -1.499  -9.235 -11.605  0.00  0.00    -0.170 OA
ATOM     17  C   UNL     1       0.921 -10.197 -11.057  0.00  0.00    +0.200 C 
ENDBRANCH  10  14
ENDBRANCH   1   3
BRANCH   1  23
ATOM     18  N   UNL     1       0.057  -4.170  -0.021  0.00  0.00    -0.239 N 
ATOM     19  C   UNL     1       0.170  -4.818   1.163  0.00  0.00    +0.117 A 
ATOM     20  C   UNL     1       0.193  -6.172   1.214  0.00  0.00    +0.073 A 
ATOM     21  C   UNL     1       0.095  -6.882  -0.010  0.00  0.00    +0.212 A 
ATOM     22  O   UNL     1       0.108  -8.102  -0.041  0.00  0.00    -0.285 OA
ATOM     23  C   UNL     1      -0.025  -6.085  -1.241  0.00  0.00    +0.194 A 
ATOM     24  N   UNL     1      -0.039  -4.773  -1.147  0.00  0.00    -0.158 NA
BRANCH  18  29
ATOM     25  C   UNL     1      -0.018   1.503   0.010  0.00  0.00    +0.044 C 
ATOM     26  C   UNL     1       0.002  -0.004   0.002  0.00  0.00    -0.050 A 
ATOM     27  C   UNL     1       0.052  -0.687  -1.200  0.00  0.00    +0.005 A 
ATOM     28  C   UNL     1       0.071  -2.068  -1.211  0.00  0.00    +0.028 A 
ATOM     29  C   UNL     1       0.039  -2.771  -0.013  0.00  0.00    +0.065 A 
ATOM     30  C   UNL     1      -0.011  -2.082   1.192  0.00  0.00    +0.028 A 
ATOM     31  C   UNL     1      -0.024  -0.701   1.196  0.00  0.00    +0.005 A 
ENDBRANCH  18  29
ENDBRANCH   1  23
TORSDOF 4
