REMARK  Name = ZINC65111954
REMARK  4 active torsions:
REMARK  status: ('A' for Active; 'I' for Inactive)
REMARK    1  A    between atoms: C_6  and  C_7
REMARK    2  A    between atoms: C_9  and  C_12
REMARK    3  A    between atoms: N_15  and  S_18
REMARK    4  A    between atoms: S_18  and  C_21
REMARK                            x       y       z     vdW  Elec       q    Type
REMARK                         _______ _______ _______ _____ _____    ______ ____
ROOT
ATOM      1  C   UNL     1      -3.201  -3.826   0.021  0.00  0.00    +0.063 C 
ATOM      2  C   UNL     1      -4.064  -4.049  -1.223  0.00  0.00    +0.028 C 
ATOM      3  C   UNL     1      -4.572  -5.494  -1.235  0.00  0.00    +0.110 C 
ATOM      4  N   UNL     1      -5.261  -5.764   0.034  0.00  0.00    -0.177 NA
ATOM      5  C   UNL     1      -4.553  -5.498   1.293  0.00  0.00    +0.110 C 
ATOM      6  C   UNL     1      -4.046  -4.053   1.277  0.00  0.00    +0.028 C 
ENDROOT
BRANCH   1   9
ATOM      7  C   UNL     1      -1.266  -0.763   0.011  0.00  0.00    +0.258 A 
ATOM      8  N   UNL     1      -1.382  -2.072   0.010  0.00  0.00    -0.192 NA
ATOM      9  C   UNL     1      -2.672  -2.415   0.020  0.00  0.00    +0.175 A 
ATOM     10  N   UNL     1      -3.401  -1.335   0.026  0.00  0.00    -0.061 NA
ATOM     11  O   UNL     1      -2.502  -0.236   0.026  0.00  0.00    -0.333 OA
BRANCH   7  17
ATOM     12  C   UNL     1      -0.017   1.392   0.010  0.00  0.00    +0.015 A 
ATOM     13  C   UNL     1       1.170   2.095   0.002  0.00  0.00    +0.021 A 
ATOM     14  C   UNL     1       2.378   1.419  -0.013  0.00  0.00    +0.041 A 
ATOM     15  C   UNL     1       2.403   0.034  -0.021  0.00  0.00    +0.021 A 
ATOM     16  C   UNL     1       1.224  -0.680  -0.014  0.00  0.00    +0.015 A 
ATOM     17  C   UNL     1       0.002  -0.004   0.002  0.00  0.00    +0.040 A 
ATOM     18 CL   UNL     1       3.868   2.311  -0.024  0.00  0.00    -0.084 Cl
ENDBRANCH   7  17
ENDBRANCH   1   9
BRANCH   4  19
ATOM     19  S   UNL     1      -6.808  -6.357   0.044  0.00  0.00    +0.061 S 
ATOM     20  O   UNL     1      -7.375  -5.990   1.294  0.00  0.00    -0.153 OA
ATOM     21  O   UNL     1      -7.393  -5.986  -1.196  0.00  0.00    -0.153 OA
BRANCH  19  22
ATOM     22  C   UNL     1      -6.692  -8.116   0.040  0.00  0.00    +0.106 A 
ATOM     23  C   UNL     1      -6.649  -8.805  -1.157  0.00  0.00    +0.029 A 
ATOM     24  C   UNL     1      -6.561 -10.182  -1.152  0.00  0.00    +0.006 A 
ATOM     25  C   UNL     1      -6.513 -10.882   0.047  0.00  0.00    -0.044 A 
ATOM     26  C   UNL     1      -6.551 -10.194   1.239  0.00  0.00    -0.042 A 
ATOM     27  C   UNL     1      -6.637  -8.808   1.232  0.00  0.00    +0.032 A 
ATOM     28  C   UNL     1      -6.487 -10.886   2.576  0.00  0.00    +0.035 C 
ATOM     29  C   UNL     1      -6.821 -12.369   2.430  0.00  0.00    +0.005 C 
ATOM     30  C   UNL     1      -5.948 -12.954   1.313  0.00  0.00    +0.005 C 
ATOM     31  C   UNL     1      -6.426 -12.384  -0.021  0.00  0.00    +0.035 C 
ENDBRANCH  19  22
ENDBRANCH   4  19
TORSDOF 4
