REMARK  Name = ZINC67601096
REMARK  7 active torsions:
REMARK  status: ('A' for Active; 'I' for Inactive)
REMARK    1  A    between atoms: C_1  and  C_2
REMARK    2  A    between atoms: C_5  and  C_12
REMARK    3  A    between atoms: C_8  and  C_10
REMARK    4  A    between atoms: C_8  and  C_11
REMARK    5  A    between atoms: C_12  and  C_13
REMARK    6  A    between atoms: C_15  and  C_16
REMARK    7  A    between atoms: C_15  and  C_18
REMARK                            x       y       z     vdW  Elec       q    Type
REMARK                         _______ _______ _______ _____ _____    ______ ____
ROOT
ATOM      1  C   UNL     1       1.302  -2.267  -4.191  0.00  0.00    +0.179 C 
ATOM      2  O   UNL     1       0.962  -3.207  -5.090  0.00  0.00    -0.291 OA
ATOM      3  C   UNL     1       0.945  -0.967  -4.396  0.00  0.00    +0.156 C 
ENDROOT
BRANCH   3   4
ATOM      4  C   UNL     1       0.188  -0.594  -5.600  0.00  0.00    +0.260 C 
ATOM      5  O   UNL     1      -0.649  -1.352  -6.051  0.00  0.00    -0.269 OA
ATOM      6  N   UNL     1       0.422   0.588  -6.204  0.00  0.00    -0.297 N 
ATOM      7  C   UNL     1       1.524   1.451  -5.758  0.00  0.00    +0.108 C 
ATOM      8  C   UNL     1       2.403   1.792  -6.966  0.00  0.00    +0.019 C 
ATOM      9  C   UNL     1       1.534   2.401  -8.068  0.00  0.00    +0.003 C 
ATOM     10  C   UNL     1       0.480   1.384  -8.510  0.00  0.00    +0.019 C 
ATOM     11  C   UNL     1      -0.417   1.036  -7.324  0.00  0.00    +0.108 C 
ENDBRANCH   3   4
BRANCH   3  12
ATOM     12  C   UNL     1       1.308   0.035  -3.439  0.00  0.00    +0.108 C 
ATOM     13  N   UNL     1       1.596   0.829  -2.680  0.00  0.00    -0.191 NA
ENDBRANCH   3  12
BRANCH   1  14
ATOM     14  C   UNL     1       2.078  -2.649  -2.958  0.00  0.00    +0.084 C 
BRANCH  14  18
ATOM     15  C   UNL     1      -1.651  -1.276   0.071  0.00  0.00    +0.007 C 
ATOM     16  C   UNL     1      -0.755  -2.439  -0.359  0.00  0.00    -0.013 C 
ATOM     17  C   UNL     1       0.213  -1.963  -1.443  0.00  0.00    +0.007 C 
ATOM     18  C   UNL     1       1.110  -3.126  -1.873  0.00  0.00    -0.003 C 
ATOM     19  C   UNL     1       1.903  -3.631  -0.667  0.00  0.00    +0.010 C 
ATOM     20  C   UNL     1       0.935  -4.108   0.418  0.00  0.00    -0.034 C 
ATOM     21  C   UNL     1       0.038  -2.945   0.848  0.00  0.00    +0.009 C 
ATOM     22  C   UNL     1       1.729  -4.613   1.624  0.00  0.00    +0.011 C 
ATOM     23  C   UNL     1       0.069  -5.242  -0.135  0.00  0.00    +0.011 C 
ENDBRANCH  14  18
ENDBRANCH   1  14
TORSDOF 4
