REMARK  Name = ZINC43763127
REMARK  3 active torsions:
REMARK  status: ('A' for Active; 'I' for Inactive)
REMARK    1  A    between atoms: C_15  and  C_18
REMARK    2  A    between atoms: C_18  and  C_19
REMARK    3  A    between atoms: C_19  and  O_20
REMARK                            x       y       z     vdW  Elec       q    Type
REMARK                         _______ _______ _______ _____ _____    ______ ____
ROOT
ATOM      1  C   UNL     1      -0.019   1.545   0.011  0.00  0.00    +0.031 C 
ATOM      2  C   UNL     1       1.505   1.851  -0.002  0.00  0.00    +0.043 C 
ATOM      3  C   UNL     1       2.055   0.734   0.908  0.00  0.00    +0.133 C 
ATOM      4  C   UNL     1       2.046   1.171   2.366  0.00  0.00    +0.133 C 
ATOM      5  C   UNL     1       2.868   2.462   2.572  0.00  0.00    +0.043 C 
ATOM      6  C   UNL     1       1.758   3.554   2.644  0.00  0.00    +0.031 C 
ATOM      7  C   UNL     1       0.668   2.758   3.416  0.00  0.00    +0.161 C 
ATOM      8  O   UNL     1       0.705   1.456   2.799  0.00  0.00    -0.367 OA
ATOM      9  C   UNL     1       2.620   0.068   3.253  0.00  0.00    +0.135 C 
ATOM     10  C   UNL     1       2.648   0.470   4.733  0.00  0.00    +0.043 C 
ATOM     11  C   UNL     1       1.369  -0.179   5.321  0.00  0.00    +0.031 C 
ATOM     12  C   UNL     1       0.715  -0.875   4.104  0.00  0.00    +0.161 C 
ATOM     13  O   UNL     1       1.821  -1.129   3.204  0.00  0.00    -0.367 OA
ATOM     14  C   UNL     1       4.044  -0.252   2.755  0.00  0.00    +0.159 C 
ATOM     15  C   UNL     1       5.145   0.590   3.362  0.00  0.00    +0.159 C 
ATOM     16  O   UNL     1       4.993  -0.799   3.660  0.00  0.00    -0.358 OA
ATOM     17  C   UNL     1       4.014  -0.767   1.327  0.00  0.00    +0.135 C 
ATOM     18  C   UNL     1       3.445   0.324   0.416  0.00  0.00    +0.133 C 
ATOM     19  C   UNL     1       3.328  -0.230  -1.018  0.00  0.00    +0.043 C 
ATOM     20  C   UNL     1       4.277   0.663  -1.852  0.00  0.00    +0.031 C 
ATOM     21  C   UNL     1       4.396   1.935  -0.977  0.00  0.00    +0.161 C 
ATOM     22  O   UNL     1       4.327   1.446   0.376  0.00  0.00    -0.367 OA
ATOM     23  C   UNL     1       5.330  -1.332   0.807  0.00  0.00    +0.043 C 
ATOM     24  C   UNL     1       5.222  -2.864   1.035  0.00  0.00    +0.031 C 
ATOM     25  C   UNL     1       3.851  -3.027   1.728  0.00  0.00    +0.161 C 
ATOM     26  O   UNL     1       3.088  -1.890   1.270  0.00  0.00    -0.367 OA
ATOM     27  O   UNL     1       1.162  -0.385   0.755  0.00  0.00    -0.367 OA
ATOM     28  C   UNL     1       0.002  -0.004   0.002  0.00  0.00    +0.161 C 
ENDROOT
BRANCH  15  29
ATOM     29  C   UNL     1       6.354   1.068   2.579  0.00  0.00    +0.062 C 
BRANCH  29  30
ATOM     30  C   UNL     1       7.198   1.993   3.458  0.00  0.00    +0.158 C 
BRANCH  30  31
ATOM     31  O   UNL     1       8.336   2.444   2.721  0.00  0.00    -0.395 OA
ATOM     32  H   UNL     1       8.918   3.036   3.217  0.00  0.00    +0.209 HD
ENDBRANCH  30  31
ENDBRANCH  29  30
ENDBRANCH  15  29
TORSDOF 3
