REMARK  Name = ZINC34973223
REMARK  4 active torsions:
REMARK  status: ('A' for Active; 'I' for Inactive)
REMARK    1  A    between atoms: C_3  and  N_9
REMARK    2  A    between atoms: N_9  and  S_10
REMARK    3  A    between atoms: S_10  and  C_13
REMARK    4  A    between atoms: C_17  and  N_19
REMARK                            x       y       z     vdW  Elec       q    Type
REMARK                         _______ _______ _______ _____ _____    ______ ____
ROOT
ATOM      1  S   UNL     1       5.027   1.322   0.086  0.00  0.00    +0.092 S 
ATOM      2  O   UNL     1       5.018   0.636   1.330  0.00  0.00    -0.148 OA
ATOM      3  O   UNL     1       5.210   0.651  -1.153  0.00  0.00    -0.148 OA
ENDROOT
BRANCH   1   4
ATOM      4  C   UNL     1       6.296   2.540   0.192  0.00  0.00    +0.112 A 
ATOM      5  C   UNL     1       6.882   3.029  -0.961  0.00  0.00    +0.030 A 
ATOM      6  C   UNL     1       7.878   3.984  -0.883  0.00  0.00    +0.024 A 
ATOM      7  C   UNL     1       8.292   4.454   0.349  0.00  0.00    +0.062 A 
ATOM      8  C   UNL     1       7.704   3.965   1.510  0.00  0.00    +0.045 A 
ATOM      9  C   UNL     1       6.700   3.009   1.427  0.00  0.00    +0.053 A 
ATOM     10 CL   UNL     1       9.544   5.652   0.448  0.00  0.00    -0.082 Cl
BRANCH   8  11
ATOM     11  N   UNL     1       8.120   4.437   2.758  0.00  0.00    -0.357 N 
ATOM     12  H   UNL     1       8.819   5.107   2.815  0.00  0.00    +0.142 HD
ATOM     13  H   UNL     1       7.709   4.095   3.567  0.00  0.00    +0.142 HD
ENDBRANCH   8  11
ENDBRANCH   1   4
BRANCH   1  14
ATOM     14  N   UNL     1       3.583   2.127  -0.021  0.00  0.00    -0.096 NA
BRANCH  14  17
ATOM     15  C   UNL     1       1.212  -0.682  -0.089  0.00  0.00    +0.040 A 
ATOM     16  C   UNL     1       2.400   0.024  -0.082  0.00  0.00    +0.031 A 
ATOM     17  C   UNL     1       2.382   1.411  -0.029  0.00  0.00    +0.093 A 
ATOM     18  C   UNL     1       1.168   2.087   0.017  0.00  0.00    +0.068 A 
ATOM     19  C   UNL     1      -0.017   1.376   0.009  0.00  0.00    +0.060 A 
ATOM     20  C   UNL     1       0.004  -0.007  -0.044  0.00  0.00    +0.125 A 
ATOM     21  F   UNL     1      -1.156  -0.700  -0.051  0.00  0.00    -0.205 F 
ATOM     22 CL   UNL     1       1.141   3.821   0.084  0.00  0.00    -0.081 Cl
ENDBRANCH  14  17
ENDBRANCH   1  14
TORSDOF 4
