REMARK  Name = ZINC22792474
REMARK  7 active torsions:
REMARK  status: ('A' for Active; 'I' for Inactive)
REMARK    1  A    between atoms: C_3  and  N_11
REMARK    2  A    between atoms: C_5  and  S_7
REMARK    3  A    between atoms: S_7  and  N_10
REMARK    4  A    between atoms: C_12  and  C_14
REMARK    5  A    between atoms: C_14  and  N_15
REMARK    6  A    between atoms: N_18  and  C_21
REMARK    7  A    between atoms: C_21  and  C_22
REMARK                            x       y       z     vdW  Elec       q    Type
REMARK                         _______ _______ _______ _____ _____    ______ ____
ROOT
ATOM      1  N   UNL     1       8.005  -2.312  -6.227  0.00  0.00    -0.287 N 
ATOM      2  C   UNL     1       7.351  -2.260  -5.049  0.00  0.00    +0.201 C 
ATOM      3  O   UNL     1       7.964  -2.383  -4.010  0.00  0.00    -0.278 OA
ATOM      4  H   UNL     1       7.463  -2.126  -7.165  0.00  0.00    +0.155 HD
ENDROOT
BRANCH   1   7
ATOM      5  C   UNL     1      11.553  -2.432  -5.270  0.00  0.00    +0.004 A 
ATOM      6  C   UNL     1      10.204  -2.139  -5.242  0.00  0.00    +0.023 A 
ATOM      7  C   UNL     1       9.374  -2.602  -6.255  0.00  0.00    +0.035 A 
ATOM      8  C   UNL     1       9.905  -3.348  -7.299  0.00  0.00    +0.051 A 
ATOM      9  C   UNL     1      11.257  -3.632  -7.324  0.00  0.00    +0.107 A 
ATOM     10  C   UNL     1      12.080  -3.175  -6.311  0.00  0.00    +0.028 A 
BRANCH   9  11
ATOM     11  S   UNL     1      11.932  -4.578  -8.648  0.00  0.00    +0.056 S 
ATOM     12  O   UNL     1      13.127  -5.170  -8.155  0.00  0.00    -0.153 OA
ATOM     13  O   UNL     1      10.865  -5.349  -9.183  0.00  0.00    -0.153 OA
BRANCH  11  14
ATOM     14  N   UNL     1      12.385  -3.511  -9.830  0.00  0.00    -0.204 NA
ATOM     15  H   UNL     1      12.814  -4.065 -10.679  0.00  0.00    +0.144 HD
ATOM     16  H   UNL     1      13.137  -2.816  -9.429  0.00  0.00    +0.144 HD
ENDBRANCH  11  14
ENDBRANCH   9  11
ENDBRANCH   1   7
BRANCH   2  17
ATOM     17  C   UNL     1       5.859  -2.051  -5.024  0.00  0.00    +0.019 C 
BRANCH  17  18
ATOM     18  N   UNL     1       5.412  -1.879  -3.636  0.00  0.00    +0.387 N 
ATOM     19  C   UNL     1       5.936  -0.631  -3.064  0.00  0.00    -0.063 C 
ATOM     20  C   UNL     1       5.514  -0.529  -1.596  0.00  0.00    +0.066 C 
ATOM     21  N   UNL     1       4.048  -0.571  -1.506  0.00  0.00    -0.301 NA
ATOM     22  C   UNL     1       3.524  -1.820  -2.078  0.00  0.00    +0.066 C 
ATOM     23  C   UNL     1       3.946  -1.922  -3.546  0.00  0.00    -0.063 C 
ATOM     24  H   UNL     1       5.813  -2.717  -3.047  0.00  0.00    -0.081 HD
BRANCH  21  25
ATOM     25  C   UNL     1       3.601  -0.400  -0.117  0.00  0.00    +0.126 C 
BRANCH  25  26
ATOM     26  C   UNL     1       2.107  -0.203  -0.091  0.00  0.00    +0.005 A 
ATOM     27  C   UNL     1       1.125  -1.132   0.008  0.00  0.00    +0.013 A 
ATOM     28  C   UNL     1      -0.194  -0.716   0.011  0.00  0.00    +0.023 A 
ATOM     29  C   UNL     1      -0.465   0.609  -0.085  0.00  0.00    +0.055 A 
ATOM     30  S   UNL     1       1.172   1.315  -0.185  0.00  0.00    -0.085 S 
ATOM     31 BR   UNL     1      -2.142   1.482  -0.115  0.00  0.00    -0.043 Br
ENDBRANCH  25  26
ENDBRANCH  21  25
ENDBRANCH  17  18
ENDBRANCH   2  17
TORSDOF 7
