REMARK  Name = ZINC40232085
REMARK  5 active torsions:
REMARK  status: ('A' for Active; 'I' for Inactive)
REMARK    1  A    between atoms: C_1  and  C_2
REMARK    2  A    between atoms: C_5  and  N_10
REMARK    3  A    between atoms: C_6  and  C_9
REMARK    4  A    between atoms: C_7  and  O_8
REMARK    5  A    between atoms: C_11  and  C_13
REMARK                            x       y       z     vdW  Elec       q    Type
REMARK                         _______ _______ _______ _____ _____    ______ ____
ROOT
ATOM      1  C   UNL     1       0.016   1.503  -0.014  0.00  0.00    +0.047 C 
ATOM      2  C   UNL     1       0.027  -0.004  -0.016  0.00  0.00    -0.009 A 
ATOM      3  C   UNL     1       0.026  -0.692  -1.214  0.00  0.00    +0.009 A 
ATOM      4  C   UNL     1       0.037  -2.074  -1.220  0.00  0.00    +0.024 A 
ATOM      5  C   UNL     1       0.049  -2.774  -0.020  0.00  0.00    +0.040 A 
ATOM      6  C   UNL     1       0.050  -2.084   1.184  0.00  0.00    +0.012 A 
ATOM      7  C   UNL     1       0.044  -0.698   1.186  0.00  0.00    +0.124 A 
ATOM      8  C   UNL     1       0.062  -2.841   2.487  0.00  0.00    +0.049 C 
ENDROOT
BRANCH   5   9
ATOM      9  N   UNL     1       0.059  -4.172  -0.026  0.00  0.00    -0.281 N 
ATOM     10  C   UNL     1      -0.607  -4.847  -0.984  0.00  0.00    +0.255 C 
ATOM     11  O   UNL     1      -1.148  -4.241  -1.891  0.00  0.00    -0.269 OA
ATOM     12  H   UNL     1       0.545  -4.657   0.660  0.00  0.00    +0.155 HD
BRANCH  10  13
ATOM     13  C   UNL     1      -0.679  -6.309  -0.934  0.00  0.00    +0.075 A 
ATOM     14  C   UNL     1      -1.301  -7.184  -1.813  0.00  0.00    +0.022 A 
ATOM     15  C   UNL     1      -1.197  -8.518  -1.501  0.00  0.00    +0.024 A 
ATOM     16  C   UNL     1      -0.513  -8.883  -0.387  0.00  0.00    +0.056 A 
ATOM     17  S   UNL     1       0.016  -7.428   0.267  0.00  0.00    -0.077 S 
ATOM     18 BR   UNL     1      -0.217 -10.629   0.275  0.00  0.00    -0.043 Br
ENDBRANCH  10  13
ENDBRANCH   5   9
BRANCH   7  19
ATOM     19  O   UNL     1       0.050  -0.019   2.363  0.00  0.00    -0.506 OA
ATOM     20  H   UNL     1      -0.832   0.170   2.712  0.00  0.00    +0.292 HD
ENDBRANCH   7  19
TORSDOF 3
