REMARK  Name = ZINC22790274
REMARK  9 active torsions:
REMARK  status: ('A' for Active; 'I' for Inactive)
REMARK    1  A    between atoms: C_1  and  C_2
REMARK    2  A    between atoms: C_5  and  C_37
REMARK    3  A    between atoms: C_10  and  C_12
REMARK    4  A    between atoms: C_12  and  N_13
REMARK    5  A    between atoms: N_16  and  C_19
REMARK    6  A    between atoms: C_19  and  C_20
REMARK    7  A    between atoms: N_22  and  C_23
REMARK    8  A    between atoms: C_23  and  C_25
REMARK    9  A    between atoms: C_23  and  C_32
REMARK                            x       y       z     vdW  Elec       q    Type
REMARK                         _______ _______ _______ _____ _____    ______ ____
ROOT
ATOM      1  N   UNL     1      -2.795   7.063  -6.957  0.00  0.00    -0.298 NA
ATOM      2  C   UNL     1      -3.159   5.651  -6.777  0.00  0.00    +0.066 C 
ATOM      3  C   UNL     1      -3.678   5.439  -5.353  0.00  0.00    -0.063 C 
ATOM      4  N   UNL     1      -2.642   5.840  -4.391  0.00  0.00    +0.387 N 
ATOM      5  C   UNL     1      -2.278   7.252  -4.572  0.00  0.00    -0.063 C 
ATOM      6  C   UNL     1      -1.759   7.464  -5.996  0.00  0.00    +0.066 C 
ATOM      7  H   UNL     1      -1.746   5.231  -4.584  0.00  0.00    -0.081 HD
ENDROOT
BRANCH   1   8
ATOM      8  C   UNL     1      -2.363   7.323  -8.337  0.00  0.00    +0.180 C 
BRANCH   8  16
ATOM      9  C   UNL     1      -0.346   6.662 -12.859  0.00  0.00    +0.009 C 
ATOM     10  C   UNL     1      -1.675   6.346 -12.171  0.00  0.00    +0.004 C 
ATOM     11  C   UNL     1      -2.788   6.270 -13.219  0.00  0.00    +0.009 C 
ATOM     12  C   UNL     1      -4.112   5.922 -12.536  0.00  0.00    +0.004 C 
ATOM     13  C   UNL     1      -4.468   7.022 -11.531  0.00  0.00    +0.111 C 
ATOM     14  N   UNL     1      -3.341   7.201 -10.606  0.00  0.00    -0.300 N 
ATOM     15  C   UNL     1      -2.005   7.456 -11.162  0.00  0.00    +0.111 C 
ATOM     16  C   UNL     1      -3.530   7.137  -9.273  0.00  0.00    +0.230 C 
ATOM     17  O   UNL     1      -4.638   6.931  -8.826  0.00  0.00    -0.274 OA
ATOM     18  C   UNL     1      -3.973   4.586 -11.803  0.00  0.00    +0.009 C 
ENDBRANCH   8  16
ENDBRANCH   1   8
BRANCH   4  19
ATOM     19  C   UNL     1      -3.074   5.580  -3.012  0.00  0.00    +0.019 C 
BRANCH  19  20
ATOM     20  C   UNL     1      -1.908   5.769  -2.076  0.00  0.00    +0.197 C 
ATOM     21  O   UNL     1      -0.824   6.089  -2.515  0.00  0.00    -0.278 OA
ATOM     22  N   UNL     1      -2.071   5.583  -0.751  0.00  0.00    -0.306 N 
ATOM     23  H   UNL     1      -3.054   5.293  -0.353  0.00  0.00    +0.150 HD
BRANCH  22  24
ATOM     24  C   UNL     1      -0.938   5.768   0.159  0.00  0.00    +0.140 C 
BRANCH  24  25
ATOM     25  C   UNL     1      -1.448   6.111   1.535  0.00  0.00    -0.022 A 
ATOM     26  C   UNL     1      -2.571   5.476   2.033  0.00  0.00    +0.008 A 
ATOM     27  C   UNL     1      -3.037   5.786   3.297  0.00  0.00    +0.038 A 
ATOM     28  C   UNL     1      -2.386   6.742   4.059  0.00  0.00    +0.123 A 
ATOM     29  C   UNL     1      -1.266   7.381   3.556  0.00  0.00    +0.038 A 
ATOM     30  C   UNL     1      -0.798   7.065   2.295  0.00  0.00    +0.008 A 
ATOM     31  F   UNL     1      -2.845   7.051   5.292  0.00  0.00    -0.205 F 
ENDBRANCH  24  25
BRANCH  24  32
ATOM     32  C   UNL     1      -0.134   4.494   0.225  0.00  0.00    +0.014 A 
ATOM     33  C   UNL     1       1.211   4.335   0.264  0.00  0.00    +0.013 A 
ATOM     34  C   UNL     1       1.733   3.056   0.324  0.00  0.00    +0.008 A 
ATOM     35  C   UNL     1       0.884   2.000   0.341  0.00  0.00    +0.045 A 
ATOM     36  S   UNL     1      -0.708   2.804   0.266  0.00  0.00    -0.099 S 
ENDBRANCH  24  32
ENDBRANCH  22  24
ENDBRANCH  19  20
ENDBRANCH   4  19
TORSDOF 7
