REMARK  Name = ZINC39409548
REMARK  8 active torsions:
REMARK  status: ('A' for Active; 'I' for Inactive)
REMARK    1  A    between atoms: C_1  and  C_2
REMARK    2  A    between atoms: C_2  and  O_3
REMARK    3  A    between atoms: O_3  and  C_4
REMARK    4  A    between atoms: C_4  and  C_5
REMARK    5  A    between atoms: N_7  and  C_13
REMARK    6  A    between atoms: C_8  and  C_12
REMARK    7  A    between atoms: C_28  and  C_37
REMARK    8  A    between atoms: C_33  and  C_36
REMARK                            x       y       z     vdW  Elec       q    Type
REMARK                         _______ _______ _______ _____ _____    ______ ____
ROOT
ATOM      1  C   UNL     1       2.976  -0.748  -5.521  0.00  0.00    +0.155 C 
ATOM      2  C   UNL     1       4.076  -0.346  -4.517  0.00  0.00    +0.037 C 
ATOM      3  C   UNL     1       4.350   1.155  -4.840  0.00  0.00    +0.008 C 
ATOM      4  C   UNL     1       5.257   1.182  -6.066  0.00  0.00    -0.003 C 
ATOM      5  C   UNL     1       6.652   0.674  -5.710  0.00  0.00    +0.004 C 
ATOM      6  C   UNL     1       7.443   1.746  -4.957  0.00  0.00    +0.004 C 
ATOM      7  C   UNL     1       7.558   2.982  -5.844  0.00  0.00    -0.005 C 
ATOM      8  C   UNL     1       8.485   4.017  -5.218  0.00  0.00    +0.004 C 
ATOM      9  C   UNL     1       8.638   5.201  -6.175  0.00  0.00    +0.000 C 
ATOM     10  C   UNL     1       7.269   5.813  -6.465  0.00  0.00    +0.001 C 
ATOM     11  C   UNL     1       6.326   4.767  -7.054  0.00  0.00    +0.007 C 
ATOM     12  C   UNL     1       6.168   3.574  -6.098  0.00  0.00    -0.026 C 
ATOM     13  C   UNL     1       5.297   2.520  -6.768  0.00  0.00    -0.001 C 
ATOM     14  C   UNL     1       3.905   3.022  -7.110  0.00  0.00    +0.005 C 
ATOM     15  C   UNL     1       2.926   2.958  -5.955  0.00  0.00    +0.015 C 
ATOM     16  C   UNL     1       2.942   1.658  -5.192  0.00  0.00    +0.031 C 
ATOM     17  C   UNL     1       2.286   0.531  -5.955  0.00  0.00    +0.162 C 
ATOM     18  O   UNL     1       1.387   0.631  -6.755  0.00  0.00    -0.295 OA
ATOM     19  C   UNL     1       2.163   1.867  -3.886  0.00  0.00    +0.019 C 
ATOM     20  C   UNL     1       5.561   4.071  -4.790  0.00  0.00    +0.012 C 
ENDROOT
BRANCH   1  23
ATOM     21  C   UNL     1       0.612  -2.101  -3.061  0.00  0.00    +0.036 A 
ATOM     22  C   UNL     1       1.271  -1.199  -3.820  0.00  0.00    +0.097 A 
ATOM     23  N   UNL     1       2.013  -1.647  -4.880  0.00  0.00    -0.325 N 
ATOM     24  C   UNL     1       1.868  -2.912  -5.343  0.00  0.00    +0.109 A 
ATOM     25  N   UNL     1       1.252  -3.827  -4.647  0.00  0.00    -0.217 NA
ATOM     26  C   UNL     1       0.739  -3.520  -3.424  0.00  0.00    +0.133 A 
ATOM     27  N   UNL     1       0.360  -4.469  -2.590  0.00  0.00    -0.383 N 
ATOM     28  C   UNL     1       2.430  -3.269  -6.695  0.00  0.00    +0.086 C 
ATOM     29  H   UNL     1      -0.007  -4.234  -1.723  0.00  0.00    +0.157 HD
ATOM     30  H   UNL     1       0.449  -5.401  -2.842  0.00  0.00    +0.157 HD
BRANCH  21  31
ATOM     31  C   UNL     1      -0.217  -1.669  -1.879  0.00  0.00    +0.200 C 
BRANCH  31  32
ATOM     32  O   UNL     1      -0.166  -0.246  -1.756  0.00  0.00    -0.375 OA
BRANCH  32  34
ATOM     33  C   UNL     1      -0.796   1.794  -0.626  0.00  0.00    +0.034 C 
ATOM     34  C   UNL     1      -0.924   0.270  -0.660  0.00  0.00    +0.157 C 
ENDBRANCH  32  34
ENDBRANCH  31  32
ENDBRANCH  21  31
ENDBRANCH   1  23
TORSDOF 4
