REMARK  Name = ZINC02911843
REMARK  7 active torsions:
REMARK  status: ('A' for Active; 'I' for Inactive)
REMARK    1  A    between atoms: C_1  and  C_2
REMARK    2  A    between atoms: C_6  and  C_23
REMARK    3  A    between atoms: C_10  and  C_11
REMARK    4  A    between atoms: N_13  and  C_14
REMARK    5  A    between atoms: C_19  and  O_20
REMARK    6  A    between atoms: O_20  and  C_21
REMARK    7  A    between atoms: N_27  and  C_30
REMARK                            x       y       z     vdW  Elec       q    Type
REMARK                         _______ _______ _______ _____ _____    ______ ____
ROOT
ATOM      1  C   UNL     1       4.864  -0.126   0.027  0.00  0.00    +0.046 C 
ATOM      2  C   UNL     1       3.497  -0.759   0.028  0.00  0.00    -0.019 A 
ATOM      3  C   UNL     1       2.350   0.046   0.049  0.00  0.00    +0.051 A 
ATOM      4  C   UNL     1       2.247   1.469   0.070  0.00  0.00    +0.133 A 
ATOM      5  N   UNL     1       1.048   2.028   0.088  0.00  0.00    -0.217 NA
ATOM      6  C   UNL     1      -0.064   1.314   0.085  0.00  0.00    +0.129 A 
ATOM      7  N   UNL     1      -0.035  -0.005   0.065  0.00  0.00    -0.225 NA
ATOM      8  C   UNL     1       1.115  -0.647   0.047  0.00  0.00    +0.114 A 
ATOM      9  S   UNL     1       1.604  -2.353   0.018  0.00  0.00    -0.064 S 
ATOM     10  C   UNL     1       3.373  -2.115   0.008  0.00  0.00    +0.080 A 
ATOM     11  C   UNL     1      -1.394   2.022   0.099  0.00  0.00    +0.088 C 
ATOM     12  N   UNL     1       3.383   2.253   0.073  0.00  0.00    -0.312 N 
ATOM     13  C   UNL     1       3.423   3.117   1.261  0.00  0.00    +0.125 C 
ATOM     14  C   UNL     1       4.732   3.910   1.268  0.00  0.00    +0.125 C 
ATOM     15  N   UNL     1       4.826   4.706   0.036  0.00  0.00    -0.314 N 
ATOM     16  C   UNL     1       4.786   3.842  -1.151  0.00  0.00    +0.125 C 
ATOM     17  C   UNL     1       3.476   3.049  -1.158  0.00  0.00    +0.125 C 
ENDROOT
BRANCH  15  18
ATOM     18  C   UNL     1       5.970   5.495   0.039  0.00  0.00    +0.099 A 
ATOM     19  C   UNL     1       6.192   6.385   1.086  0.00  0.00    +0.042 A 
ATOM     20  C   UNL     1       7.334   7.164   1.076  0.00  0.00    +0.005 A 
ATOM     21  C   UNL     1       8.221   7.027   0.016  0.00  0.00    +0.018 A 
ATOM     22  C   UNL     1       7.938   6.124  -0.990  0.00  0.00    +0.084 A 
ATOM     23  N   UNL     1       6.829   5.338  -1.010  0.00  0.00    -0.350 N 
ATOM     24  H   UNL     1       6.648   4.668  -1.767  0.00  0.00    +0.166 HD
ENDBRANCH  15  18
BRANCH  10  25
ATOM     25  C   UNL     1       4.432  -3.130  -0.015  0.00  0.00    +0.255 C 
ATOM     26  O   UNL     1       5.601  -2.791  -0.019  0.00  0.00    -0.269 OA
ATOM     27  N   UNL     1       4.111  -4.439  -0.033  0.00  0.00    -0.278 N 
ATOM     28  H   UNL     1       3.183  -4.710  -0.113  0.00  0.00    +0.155 HD
BRANCH  27  29
ATOM     29  C   UNL     1       5.117  -5.408   0.064  0.00  0.00    +0.077 A 
ATOM     30  C   UNL     1       6.244  -5.166   0.836  0.00  0.00    +0.047 A 
ATOM     31  C   UNL     1       7.236  -6.125   0.930  0.00  0.00    +0.043 A 
ATOM     32  C   UNL     1       7.107  -7.327   0.257  0.00  0.00    +0.024 A 
ATOM     33  C   UNL     1       5.986  -7.574  -0.514  0.00  0.00    +0.049 A 
ATOM     34  C   UNL     1       4.986  -6.621  -0.609  0.00  0.00    +0.141 A 
ATOM     35 CL   UNL     1       8.646  -5.820   1.896  0.00  0.00    -0.083 Cl
BRANCH  34  36
ATOM     36  O   UNL     1       3.880  -6.866  -1.361  0.00  0.00    -0.493 OA
ATOM     37  C   UNL     1       3.813  -8.131  -2.023  0.00  0.00    +0.277 C 
ENDBRANCH  34  36
ENDBRANCH  27  29
ENDBRANCH  10  25
TORSDOF 4
