REMARK  Name = ZINC20572120
REMARK  3 active torsions:
REMARK  status: ('A' for Active; 'I' for Inactive)
REMARK    1  A    between atoms: C_1  and  C_2
REMARK    2  A    between atoms: C_8  and  C_11
REMARK    3  A    between atoms: N_13  and  C_14
REMARK                            x       y       z     vdW  Elec       q    Type
REMARK                         _______ _______ _______ _____ _____    ______ ____
ROOT
ATOM      1  C   UNL     1      -1.255   3.412   0.128  0.00  0.00    +0.270 C 
ATOM      2  O   UNL     1      -0.213   4.036   0.127  0.00  0.00    -0.268 OA
ATOM      3  N   UNL     1      -1.237   2.069   0.019  0.00  0.00    -0.280 N 
ATOM      4  H   UNL     1      -2.181   1.510  -0.057  0.00  0.00    +0.155 HD
ENDROOT
BRANCH   1  11
ATOM      5  C   UNL     1      -1.555   9.110   0.793  0.00  0.00    +0.008 C 
ATOM      6  C   UNL     1      -2.457   7.887   0.977  0.00  0.00    -0.009 C 
ATOM      7  C   UNL     1      -3.769   8.103   0.218  0.00  0.00    +0.011 C 
ATOM      8  C   UNL     1      -4.772   7.004   0.585  0.00  0.00    +0.078 C 
ATOM      9  C   UNL     1      -4.086   5.670   0.449  0.00  0.00    +0.141 A 
ATOM     10  C   UNL     1      -2.742   5.519   0.377  0.00  0.00    +0.027 A 
ATOM     11  C   UNL     1      -2.548   4.128   0.250  0.00  0.00    +0.171 A 
ATOM     12  N   UNL     1      -3.751   3.598   0.267  0.00  0.00    -0.073 NA
ATOM     13  O   UNL     1      -4.611   4.448   0.378  0.00  0.00    -0.359 OA
ATOM     14  C   UNL     1      -1.747   6.641   0.430  0.00  0.00    +0.044 C 
ENDBRANCH   1  11
BRANCH   3  15
ATOM     15  C   UNL     1      -0.017   1.385   0.002  0.00  0.00    +0.034 A 
ATOM     16  C   UNL     1       1.091   1.954  -0.615  0.00  0.00    +0.024 A 
ATOM     17  C   UNL     1       2.293   1.274  -0.635  0.00  0.00    +0.017 A 
ATOM     18  C   UNL     1       2.395   0.028  -0.042  0.00  0.00    +0.018 A 
ATOM     19  C   UNL     1       1.293  -0.540   0.573  0.00  0.00    +0.017 A 
ATOM     20  C   UNL     1       0.089   0.135   0.597  0.00  0.00    +0.024 A 
ATOM     21 BR   UNL     1       4.042  -0.900  -0.073  0.00  0.00    -0.050 Br
ENDBRANCH   3  15
TORSDOF 2
