REMARK  Name = ZINC15499120
REMARK  8 active torsions:
REMARK  status: ('A' for Active; 'I' for Inactive)
REMARK    1  A    between atoms: C_1  and  C_2
REMARK    2  A    between atoms: C_5  and  N_9
REMARK    3  A    between atoms: C_10  and  C_12
REMARK    4  A    between atoms: C_12  and  C_14
REMARK    5  A    between atoms: C_12  and  N_20
REMARK    6  A    between atoms: N_20  and  C_21
REMARK    7  A    between atoms: C_24  and  C_27
REMARK    8  A    between atoms: C_27  and  C_28
REMARK                            x       y       z     vdW  Elec       q    Type
REMARK                         _______ _______ _______ _____ _____    ______ ____
ROOT
ATOM      1  C   UNL     1       0.310  -6.351   1.119  0.00  0.00    +0.188 C 
ENDROOT
BRANCH   1   2
ATOM      2  C   UNL     1       1.544  -6.736   0.344  0.00  0.00    -0.018 A 
ATOM      3  C   UNL     1       2.787  -6.672   0.947  0.00  0.00    +0.006 A 
ATOM      4  C   UNL     1       3.918  -7.026   0.237  0.00  0.00    +0.000 A 
ATOM      5  C   UNL     1       3.808  -7.444  -1.076  0.00  0.00    +0.000 A 
ATOM      6  C   UNL     1       2.566  -7.509  -1.679  0.00  0.00    +0.000 A 
ATOM      7  C   UNL     1       1.433  -7.159  -0.967  0.00  0.00    +0.006 A 
ENDBRANCH   1   2
BRANCH   1   9
ATOM      8  N   UNL     1       0.059  -4.170  -0.022  0.00  0.00    -0.284 N 
ATOM      9  C   UNL     1       0.176  -4.850   1.136  0.00  0.00    +0.242 C 
ATOM     10  O   UNL     1       0.174  -4.254   2.192  0.00  0.00    -0.273 OA
ATOM     11  H   UNL     1      -0.006  -4.651  -0.862  0.00  0.00    +0.155 HD
BRANCH   8  16
ATOM     12  C   UNL     1      -0.048   1.502   0.013  0.00  0.00    +0.045 C 
ATOM     13  C   UNL     1      -0.020  -0.004   0.004  0.00  0.00    -0.032 A 
ATOM     14  C   UNL     1       0.592  -0.677  -1.038  0.00  0.00    +0.006 A 
ATOM     15  C   UNL     1       0.620  -2.058  -1.049  0.00  0.00    +0.023 A 
ATOM     16  C   UNL     1       0.033  -2.772  -0.013  0.00  0.00    +0.035 A 
ATOM     17  C   UNL     1      -0.581  -2.095   1.032  0.00  0.00    +0.043 A 
ATOM     18  C   UNL     1      -0.601  -0.712   1.041  0.00  0.00    +0.046 A 
ATOM     19 CL   UNL     1      -1.363   0.136   2.350  0.00  0.00    -0.083 Cl
ENDBRANCH   8  16
ENDBRANCH   1   9
BRANCH   1  20
ATOM     20  N   UNL     1       0.421  -6.847   2.493  0.00  0.00    -0.329 N 
ATOM     21  H   UNL     1       0.759  -6.267   3.192  0.00  0.00    +0.147 HD
BRANCH  20  22
ATOM     22  C   UNL     1       0.039  -8.156   2.795  0.00  0.00    +0.028 A 
ATOM     23  C   UNL     1      -0.440  -8.991   1.794  0.00  0.00    +0.023 A 
ATOM     24  C   UNL     1      -0.817 -10.285   2.096  0.00  0.00    +0.006 A 
ATOM     25  C   UNL     1      -0.717 -10.750   3.395  0.00  0.00    -0.034 A 
ATOM     26  C   UNL     1      -0.240  -9.922   4.394  0.00  0.00    +0.006 A 
ATOM     27  C   UNL     1       0.143  -8.629   4.097  0.00  0.00    +0.023 A 
BRANCH  25  28
ATOM     28  C   UNL     1      -1.129 -12.162   3.721  0.00  0.00    +0.153 C 
BRANCH  28  29
ATOM     29  C   UNL     1       0.029 -13.058   3.572  0.00  0.00    +0.067 C 
ATOM     30  N   UNL     1       0.923 -13.750   3.457  0.00  0.00    -0.196 NA
ENDBRANCH  28  29
ENDBRANCH  25  28
ENDBRANCH  20  22
ENDBRANCH   1  20
TORSDOF 7
