REMARK  Name = ZINC50917670
REMARK  7 active torsions:
REMARK  status: ('A' for Active; 'I' for Inactive)
REMARK    1  A    between atoms: N_7  and  C_8
REMARK    2  A    between atoms: C_8  and  C_9
REMARK    3  A    between atoms: C_9  and  C_10
REMARK    4  A    between atoms: C_10  and  C_11
REMARK    5  A    between atoms: C_13  and  C_14
REMARK    6  A    between atoms: C_13  and  C_16
REMARK    7  A    between atoms: N_18  and  C_19
REMARK                            x       y       z     vdW  Elec       q    Type
REMARK                         _______ _______ _______ _____ _____    ______ ____
ROOT
ATOM      1  C   UNL     1       6.440  -4.477  -0.081  0.00  0.00    +0.178 C 
ATOM      2  O   UNL     1       7.137  -4.455  -1.230  0.00  0.00    -0.291 OA
ATOM      3  C   UNL     1       7.071  -4.759   1.094  0.00  0.00    +0.156 C 
ENDROOT
BRANCH   3   4
ATOM      4  C   UNL     1       6.343  -4.643   2.366  0.00  0.00    +0.262 C 
ATOM      5  O   UNL     1       5.167  -4.332   2.367  0.00  0.00    -0.269 OA
ATOM      6  N   UNL     1       6.979  -4.882   3.530  0.00  0.00    -0.280 N 
ATOM      7  H   UNL     1       7.891  -5.212   3.526  0.00  0.00    +0.155 HD
BRANCH   6   8
ATOM      8  C   UNL     1       6.323  -4.654   4.745  0.00  0.00    +0.052 A 
ATOM      9  C   UNL     1       5.209  -3.825   4.790  0.00  0.00    +0.026 A 
ATOM     10  C   UNL     1       4.563  -3.602   5.990  0.00  0.00    +0.022 A 
ATOM     11  C   UNL     1       5.025  -4.202   7.148  0.00  0.00    +0.042 A 
ATOM     12  C   UNL     1       6.135  -5.028   7.108  0.00  0.00    +0.041 A 
ATOM     13  C   UNL     1       6.781  -5.260   5.909  0.00  0.00    +0.064 A 
ATOM     14 CL   UNL     1       8.168  -6.302   5.857  0.00  0.00    -0.082 Cl
ATOM     15 CL   UNL     1       4.211  -3.917   8.655  0.00  0.00    -0.083 Cl
ENDBRANCH   6   8
ENDBRANCH   3   4
BRANCH   3  16
ATOM     16  C   UNL     1       8.443  -5.168   1.089  0.00  0.00    +0.108 C 
ATOM     17  N   UNL     1       9.532  -5.493   1.085  0.00  0.00    -0.191 NA
ENDBRANCH   3  16
BRANCH   1  18
ATOM     18  C   UNL     1       4.960  -4.190  -0.091  0.00  0.00    +0.082 C 
BRANCH  18  19
ATOM     19  C   UNL     1       4.724  -2.717   0.250  0.00  0.00    +0.027 C 
BRANCH  19  20
ATOM     20  C   UNL     1       3.223  -2.425   0.240  0.00  0.00    +0.105 C 
BRANCH  20  27
ATOM     21  C   UNL     1      -0.787   0.453   0.717  0.00  0.00    +0.039 A 
ATOM     22  C   UNL     1       0.302   1.273   0.972  0.00  0.00    +0.116 A 
ATOM     23  N   UNL     1       1.521   0.763   0.915  0.00  0.00    -0.223 NA
ATOM     24  C   UNL     1       1.707  -0.515   0.618  0.00  0.00    +0.215 A 
ATOM     25  N   UNL     1       0.689  -1.325   0.368  0.00  0.00    -0.223 NA
ATOM     26  C   UNL     1      -0.556  -0.878   0.409  0.00  0.00    +0.116 A 
ATOM     27  N   UNL     1       2.997  -1.015   0.567  0.00  0.00    -0.313 N 
ATOM     28  H   UNL     1       3.751  -0.432   0.747  0.00  0.00    +0.149 HD
ENDBRANCH  20  27
ENDBRANCH  19  20
ENDBRANCH  18  19
ENDBRANCH   1  18
TORSDOF 7
