REMARK  Name = ZINC38718417
REMARK  6 active torsions:
REMARK  status: ('A' for Active; 'I' for Inactive)
REMARK    1  A    between atoms: C_1  and  C_2
REMARK    2  A    between atoms: C_7  and  S_18
REMARK    3  A    between atoms: C_12  and  C_14
REMARK    4  A    between atoms: S_18  and  N_21
REMARK    5  A    between atoms: N_21  and  C_22
REMARK    6  A    between atoms: C_25  and  C_28
REMARK                            x       y       z     vdW  Elec       q    Type
REMARK                         _______ _______ _______ _____ _____    ______ ____
ROOT
ATOM      1  S   UNL     1      -2.889  -4.541   3.170  0.00  0.00    +0.072 S 
ATOM      2  O   UNL     1      -2.437  -4.663   4.511  0.00  0.00    -0.150 OA
ATOM      3  O   UNL     1      -4.189  -4.071   2.844  0.00  0.00    -0.150 OA
ENDROOT
BRANCH   1   9
ATOM      4  C   UNL     1      -0.187   1.012  -0.888  0.00  0.00    +0.029 C 
ATOM      5  C   UNL     1       0.004  -0.506  -0.905  0.00  0.00    +0.083 C 
ATOM      6  C   UNL     1      -1.351  -1.216  -0.749  0.00  0.00    +0.059 C 
ATOM      7  C   UNL     1      -1.217  -2.015   0.528  0.00  0.00    -0.022 A 
ATOM      8  C   UNL     1      -2.111  -2.849   1.173  0.00  0.00    +0.034 A 
ATOM      9  C   UNL     1      -1.748  -3.478   2.349  0.00  0.00    +0.109 A 
ATOM     10  C   UNL     1      -0.487  -3.273   2.879  0.00  0.00    +0.030 A 
ATOM     11  C   UNL     1       0.408  -2.442   2.239  0.00  0.00    +0.026 A 
ATOM     12  C   UNL     1       0.049  -1.803   1.050  0.00  0.00    +0.040 A 
ATOM     13  N   UNL     1       0.798  -0.931   0.251  0.00  0.00    -0.261 N 
ATOM     14  C   UNL     1       2.063  -0.540   0.505  0.00  0.00    +0.324 C 
ATOM     15  O   UNL     1       2.593   0.293  -0.199  0.00  0.00    -0.265 OA
BRANCH  14  16
ATOM     16  C   UNL     1       2.818  -1.139   1.664  0.00  0.00    +0.470 C 
ATOM     17  F   UNL     1       4.139  -0.678   1.647  0.00  0.00    -0.162 F 
ATOM     18  F   UNL     1       2.207  -0.761   2.864  0.00  0.00    -0.162 F 
ATOM     19  F   UNL     1       2.809  -2.534   1.555  0.00  0.00    -0.162 F 
ENDBRANCH  14  16
ENDBRANCH   1   9
BRANCH   1  20
ATOM     20  N   UNL     1      -2.742  -6.041   2.483  0.00  0.00    -0.216 N 
ATOM     21  H   UNL     1      -2.442  -6.792   3.018  0.00  0.00    +0.174 HD
BRANCH  20  22
ATOM     22  C   UNL     1      -3.050  -6.224   1.133  0.00  0.00    +0.048 A 
ATOM     23  C   UNL     1      -4.208  -5.667   0.604  0.00  0.00    +0.025 A 
ATOM     24  C   UNL     1      -4.515  -5.847  -0.729  0.00  0.00    +0.012 A 
ATOM     25  C   UNL     1      -3.662  -6.587  -1.545  0.00  0.00    +0.002 A 
ATOM     26  C   UNL     1      -2.500  -7.144  -1.013  0.00  0.00    +0.012 A 
ATOM     27  C   UNL     1      -2.195  -6.958   0.319  0.00  0.00    +0.025 A 
BRANCH  25  28
ATOM     28  C   UNL     1      -3.989  -6.782  -2.979  0.00  0.00    +0.090 A 
ATOM     29  C   UNL     1      -3.252  -7.481  -3.876  0.00  0.00    +0.121 A 
ATOM     30  N   UNL     1      -3.909  -7.418  -5.101  0.00  0.00    -0.300 N 
ATOM     31  C   UNL     1      -3.729  -7.882  -6.386  0.00  0.00    +0.100 A 
ATOM     32  C   UNL     1      -4.614  -7.604  -7.341  0.00  0.00    +0.067 A 
ATOM     33  S   UNL     1      -5.817  -6.624  -6.457  0.00  0.00    -0.058 S 
ATOM     34  C   UNL     1      -5.030  -6.667  -4.864  0.00  0.00    +0.178 A 
ATOM     35  N   UNL     1      -5.076  -6.300  -3.616  0.00  0.00    -0.221 NA
ENDBRANCH  25  28
ENDBRANCH  20  22
ENDBRANCH   1  20
TORSDOF 5
