REMARK  Name = ZINC17287593
REMARK  10 active torsions:
REMARK  status: ('A' for Active; 'I' for Inactive)
REMARK    1  A    between atoms: C_1  and  C_2
REMARK    2  A    between atoms: C_2  and  N_60
REMARK    3  A    between atoms: C_3  and  C_4
REMARK    4  A    between atoms: C_3  and  N_60
REMARK    5  A    between atoms: C_5  and  C_6
REMARK    6  A    between atoms: C_5  and  N_60
REMARK    7  A    between atoms: C_6  and  N_7
REMARK    8  A    between atoms: C_18  and  C_20
REMARK    9  A    between atoms: C_23  and  C_26
REMARK   10  A    between atoms: C_26  and  C_28
REMARK                            x       y       z     vdW  Elec       q    Type
REMARK                         _______ _______ _______ _____ _____    ______ ____
ROOT
ATOM      1  N   UNL     1       3.857  -0.402  -1.052  0.00  0.00    -0.248 N 
ATOM      2  C   UNL     1       2.502  -0.252  -0.812  0.00  0.00    +0.168 A 
ATOM      3  N   UNL     1       1.542  -1.140  -0.925  0.00  0.00    -0.223 NA
ATOM      4  C   UNL     1       0.251  -0.851  -0.655  0.00  0.00    +0.099 A 
ATOM      5  C   UNL     1      -0.006   0.475  -0.240  0.00  0.00    +0.042 A 
ATOM      6  S   UNL     1       1.615   1.202  -0.269  0.00  0.00    -0.052 S 
ATOM      7  C   UNL     1      -1.265   0.922   0.075  0.00  0.00    +0.017 A 
ATOM      8  C   UNL     1      -2.341   0.058  -0.019  0.00  0.00    +0.003 A 
ATOM      9  C   UNL     1      -2.126  -1.252  -0.423  0.00  0.00    +0.022 A 
ATOM     10  C   UNL     1      -0.871  -1.709  -0.736  0.00  0.00    +0.067 A 
ATOM     11 CL   UNL     1      -0.658  -3.358  -1.236  0.00  0.00    -0.081 Cl
ATOM     12  C   UNL     1       4.355  -1.614  -1.368  0.00  0.00    +0.252 C 
ATOM     13  O   UNL     1       3.608  -2.564  -1.492  0.00  0.00    -0.270 OA
ENDROOT
BRANCH  12  14
ATOM     14  C   UNL     1       5.812  -1.788  -1.563  0.00  0.00    +0.037 A 
ATOM     15  C   UNL     1       6.712  -1.085  -0.760  0.00  0.00    +0.014 A 
ATOM     16  C   UNL     1       8.068  -1.251  -0.938  0.00  0.00    +0.012 A 
ATOM     17  C   UNL     1       8.542  -2.113  -1.929  0.00  0.00    +0.022 A 
ATOM     18  C   UNL     1       7.641  -2.811  -2.736  0.00  0.00    +0.012 A 
ATOM     19  C   UNL     1       6.285  -2.649  -2.554  0.00  0.00    +0.014 A 
BRANCH  17  20
ATOM     20  C   UNL     1       9.998  -2.286  -2.124  0.00  0.00    +0.193 C 
ATOM     21  O   UNL     1      10.744  -1.333  -2.013  0.00  0.00    -0.287 OA
BRANCH  20  22
ATOM     22  C   UNL     1      10.546  -3.618  -2.455  0.00  0.00    +0.022 A 
ATOM     23  C   UNL     1       9.721  -4.745  -2.417  0.00  0.00    +0.012 A 
ATOM     24  C   UNL     1      10.238  -5.984  -2.733  0.00  0.00    +0.001 A 
ATOM     25  C   UNL     1      11.572  -6.114  -3.075  0.00  0.00    +0.000 A 
ATOM     26  C   UNL     1      12.396  -5.003  -3.109  0.00  0.00    +0.001 A 
ATOM     27  C   UNL     1      11.892  -3.756  -2.801  0.00  0.00    +0.012 A 
ENDBRANCH  20  22
ENDBRANCH  17  20
ENDBRANCH  12  14
BRANCH   1  28
ATOM     28  C   UNL     1       4.750   0.756  -0.964  0.00  0.00    +0.097 C 
BRANCH  28  29
ATOM     29  C   UNL     1       4.968   1.121   0.506  0.00  0.00    -0.059 C 
BRANCH  29  30
ATOM     30  N   UNL     1       5.998   2.178   0.583  0.00  0.00    +0.380 N 
ATOM     31  H   UNL     1       6.758   1.952  -0.070  0.00  0.00    -0.082 HD
BRANCH  30  33
ATOM     32  C   UNL     1       6.539   4.510   0.079  0.00  0.00    -0.017 C 
ATOM     33  C   UNL     1       5.413   3.482   0.207  0.00  0.00    -0.082 C 
ENDBRANCH  30  33
BRANCH  30  34
ATOM     34  C   UNL     1       6.548   2.248   1.954  0.00  0.00    -0.082 C 
ATOM     35  C   UNL     1       7.535   1.094   2.145  0.00  0.00    -0.017 C 
ENDBRANCH  30  34
ENDBRANCH  29  30
ENDBRANCH  28  29
ENDBRANCH   1  28
TORSDOF 8
