REMARK  Name = ZINC15989524
REMARK  3 active torsions:
REMARK  status: ('A' for Active; 'I' for Inactive)
REMARK    1  A    between atoms: C_1  and  C_2
REMARK    2  A    between atoms: C_2  and  C_4
REMARK    3  A    between atoms: N_23  and  C_26
REMARK                            x       y       z     vdW  Elec       q    Type
REMARK                         _______ _______ _______ _____ _____    ______ ____
ROOT
ATOM      1  C   UNL     1      -1.289  -0.772   0.124  0.00  0.00    +0.152 C 
ATOM      2  C   UNL     1      -1.851  -0.643   1.555  0.00  0.00    +0.117 C 
ATOM      3  C   UNL     1      -1.207  -1.841   2.311  0.00  0.00    +0.115 C 
ATOM      4  C   UNL     1      -0.835  -2.849   1.222  0.00  0.00    +0.117 C 
ATOM      5  N   UNL     1      -1.049  -2.197  -0.087  0.00  0.00    -0.317 N 
ATOM      6  C   UNL     1      -1.075  -2.903  -1.281  0.00  0.00    +0.072 C 
ATOM      7  C   UNL     1      -1.562  -4.158  -1.227  0.00  0.00    +0.023 C 
ATOM      8  C   UNL     1      -2.050  -4.691   0.062  0.00  0.00    -0.019 A 
ATOM      9  C   UNL     1      -1.704  -4.078   1.296  0.00  0.00    -0.019 A 
ATOM     10  C   UNL     1      -2.131  -4.572   2.507  0.00  0.00    +0.006 A 
ATOM     11  C   UNL     1      -2.934  -5.700   2.550  0.00  0.00    +0.000 A 
ATOM     12  C   UNL     1      -3.311  -6.333   1.379  0.00  0.00    +0.001 A 
ATOM     13  C   UNL     1      -2.868  -5.821   0.089  0.00  0.00    +0.008 A 
ATOM     14  C   UNL     1       0.040  -1.214   2.901  0.00  0.00    +0.232 C 
ATOM     15  O   UNL     1       1.005  -1.816   3.321  0.00  0.00    -0.274 OA
ATOM     16  N   UNL     1      -0.103   0.120   2.882  0.00  0.00    -0.209 N 
ATOM     17  C   UNL     1      -1.213   0.560   2.224  0.00  0.00    +0.232 C 
ATOM     18  O   UNL     1      -1.628   1.698   2.177  0.00  0.00    -0.274 OA
ENDROOT
BRANCH  16  19
ATOM     19  C   UNL     1       0.811   0.993   3.489  0.00  0.00    +0.058 A 
ATOM     20  C   UNL     1       1.890   1.483   2.766  0.00  0.00    +0.025 A 
ATOM     21  C   UNL     1       2.789   2.343   3.367  0.00  0.00    +0.002 A 
ATOM     22  C   UNL     1       2.614   2.717   4.687  0.00  0.00    +0.001 A 
ATOM     23  C   UNL     1       1.541   2.231   5.410  0.00  0.00    +0.017 A 
ATOM     24  C   UNL     1       0.635   1.374   4.813  0.00  0.00    +0.040 A 
ATOM     25 BR   UNL     1      -0.837   0.715   5.800  0.00  0.00    -0.048 Br
ENDBRANCH  16  19
BRANCH   1  27
ATOM     26  C   UNL     1      -0.020   1.449  -0.398  0.00  0.00    +0.088 C 
ATOM     27  C   UNL     1       0.002  -0.004   0.002  0.00  0.00    +0.151 C 
ATOM     28  O   UNL     1       1.054  -0.553   0.225  0.00  0.00    -0.296 OA
ENDBRANCH   1  27
TORSDOF 2
