REMARK  Name = ZINC27489589
REMARK  11 active torsions:
REMARK  status: ('A' for Active; 'I' for Inactive)
REMARK    1  A    between atoms: C_1  and  O_2
REMARK    2  A    between atoms: O_2  and  C_3
REMARK    3  A    between atoms: C_5  and  C_22
REMARK    4  A    between atoms: C_8  and  O_9
REMARK    5  A    between atoms: O_9  and  C_10
REMARK    6  A    between atoms: C_10  and  C_11
REMARK    7  A    between atoms: N_13  and  C_14
REMARK    8  A    between atoms: C_22  and  N_23
REMARK    9  A    between atoms: N_23  and  N_24
REMARK   10  A    between atoms: N_24  and  C_25
REMARK   11  A    between atoms: C_25  and  N_27
REMARK                            x       y       z     vdW  Elec       q    Type
REMARK                         _______ _______ _______ _____ _____    ______ ____
ROOT
ATOM      1  C   UNL     1      -4.464   1.072  -0.344  0.00  0.00    +0.162 A 
ATOM      2  C   UNL     1      -3.187   1.607  -0.391  0.00  0.00    +0.054 A 
ATOM      3  C   UNL     1      -2.191   0.959  -1.096  0.00  0.00    -0.028 A 
ATOM      4  C   UNL     1      -2.467  -0.222  -1.761  0.00  0.00    +0.009 A 
ATOM      5  C   UNL     1      -3.738  -0.764  -1.714  0.00  0.00    +0.050 A 
ATOM      6  C   UNL     1      -4.741  -0.119  -1.008  0.00  0.00    +0.163 A 
ENDROOT
BRANCH   1   8
ATOM      7  C   UNL     1      -5.088   2.926   1.008  0.00  0.00    +0.277 C 
ATOM      8  O   UNL     1      -5.445   1.709   0.351  0.00  0.00    -0.491 OA
ENDBRANCH   1   8
BRANCH   6   9
ATOM      9  O   UNL     1      -5.993  -0.649  -0.965  0.00  0.00    -0.479 OA
BRANCH   9  10
ATOM     10  C   UNL     1      -6.204  -1.873  -1.670  0.00  0.00    +0.325 C 
BRANCH  10  11
ATOM     11  C   UNL     1      -7.639  -2.304  -1.510  0.00  0.00    +0.255 C 
ATOM     12  O   UNL     1      -8.405  -1.629  -0.856  0.00  0.00    -0.272 OA
ATOM     13  N   UNL     1      -8.070  -3.440  -2.094  0.00  0.00    -0.283 N 
ATOM     14  H   UNL     1      -7.397  -4.012  -2.748  0.00  0.00    +0.155 HD
BRANCH  13  15
ATOM     15  C   UNL     1      -9.376  -3.892  -1.866  0.00  0.00    +0.035 A 
ATOM     16  C   UNL     1      -9.639  -5.254  -1.798  0.00  0.00    +0.024 A 
ATOM     17  C   UNL     1     -10.926  -5.697  -1.567  0.00  0.00    +0.018 A 
ATOM     18  C   UNL     1     -11.956  -4.786  -1.416  0.00  0.00    +0.036 A 
ATOM     19  C   UNL     1     -11.698  -3.427  -1.489  0.00  0.00    +0.057 A 
ATOM     20  C   UNL     1     -10.410  -2.979  -1.713  0.00  0.00    +0.044 A 
ATOM     21 CL   UNL     1     -12.993  -2.287  -1.297  0.00  0.00    -0.082 Cl
ATOM     22 BR   UNL     1     -13.719  -5.397  -1.108  0.00  0.00    -0.049 Br
ENDBRANCH  13  15
ENDBRANCH  10  11
ENDBRANCH   9  10
ENDBRANCH   6   9
BRANCH   3  23
ATOM     23  C   UNL     1      -0.803   1.542  -1.146  0.00  0.00    +0.137 C 
BRANCH  23  24
ATOM     24  N   UNL     1      -0.011   1.018  -0.025  0.00  0.00    -0.237 NA
ATOM     25  H   UNL     1       0.006   0.010  -0.035  0.00  0.00    +0.145 HD
BRANCH  24  26
ATOM     26  N   UNL     1       1.256   1.529  -0.041  0.00  0.00    -0.262 N 
ATOM     27  H   UNL     1       1.556   2.235  -0.829  0.00  0.00    +0.168 HD
BRANCH  26  28
ATOM     28  C   UNL     1       2.140   1.167   0.911  0.00  0.00    +0.142 C 
ATOM     29  S   UNL     1       3.728   1.806   0.892  0.00  0.00    -0.018 S 
BRANCH  28  30
ATOM     30  N   UNL     1       1.773   0.302   1.877  0.00  0.00    -0.340 N 
ATOM     31  H   UNL     1       2.494   0.007   2.654  0.00  0.00    +0.144 HD
ATOM     32  H   UNL     1       0.753  -0.109   1.889  0.00  0.00    +0.144 HD
ENDBRANCH  28  30
ENDBRANCH  26  28
ENDBRANCH  24  26
ENDBRANCH  23  24
ENDBRANCH   3  23
TORSDOF 10
