REMARK  Name = ZINC09581040
REMARK  3 active torsions:
REMARK  status: ('A' for Active; 'I' for Inactive)
REMARK    1  A    between atoms: C_3  and  N_8
REMARK    2  A    between atoms: N_20  and  C_21
REMARK    3  A    between atoms: C_21  and  C_23
REMARK                            x       y       z     vdW  Elec       q    Type
REMARK                         _______ _______ _______ _____ _____    ______ ____
ROOT
ATOM      1  N   UNL     1      -3.183   1.110   1.729  0.00  0.00    -0.276 N 
ATOM      2  C   UNL     1      -2.295   1.862   0.862  0.00  0.00    +0.116 C 
ATOM      3  C   UNL     1      -2.666   1.578  -0.613  0.00  0.00    +0.190 C 
ATOM      4  S   UNL     1      -1.015   1.631  -1.434  0.00  0.00    -0.028 S 
ATOM      5  O   UNL     1      -0.668   2.982  -1.705  0.00  0.00    -0.174 OA
ATOM      6  O   UNL     1      -0.978   0.669  -2.479  0.00  0.00    -0.174 OA
ATOM      7  C   UNL     1      -0.021   1.019  -0.004  0.00  0.00    +0.182 C 
ATOM      8  C   UNL     1      -0.818   1.600   1.180  0.00  0.00    +0.097 C 
ATOM      9  S   UNL     1      -0.950   0.331   2.492  0.00  0.00    -0.086 S 
ATOM     10  C   UNL     1      -2.672   0.232   2.628  0.00  0.00    +0.154 C 
ATOM     11  N   UNL     1      -3.359  -0.550   3.453  0.00  0.00    -0.157 NA
ENDROOT
BRANCH   1  14
ATOM     12  C   UNL     1      -6.503   2.679   1.917  0.00  0.00    +0.003 A 
ATOM     13  C   UNL     1      -5.136   2.501   2.013  0.00  0.00    +0.023 A 
ATOM     14  C   UNL     1      -4.567   1.291   1.639  0.00  0.00    +0.037 A 
ATOM     15  C   UNL     1      -5.375   0.259   1.179  0.00  0.00    +0.038 A 
ATOM     16  C   UNL     1      -6.742   0.441   1.091  0.00  0.00    +0.020 A 
ATOM     17  C   UNL     1      -7.305   1.650   1.460  0.00  0.00    +0.015 A 
ATOM     18 BR   UNL     1      -7.843  -0.964   0.466  0.00  0.00    -0.050 Br
ENDBRANCH   1  14
BRANCH  11  19
ATOM     19  C   UNL     1      -2.717  -1.366   4.285  0.00  0.00    +0.267 C 
ATOM     20  O   UNL     1      -1.502  -1.395   4.291  0.00  0.00    -0.271 OA
BRANCH  19  21
ATOM     21  C   UNL     1      -3.497  -2.253   5.221  0.00  0.00    +0.206 C 
ATOM     22  C   UNL     1      -4.250  -1.402   6.267  0.00  0.00    +0.043 C 
ATOM     23  C   UNL     1      -4.160  -2.236   7.565  0.00  0.00    +0.031 C 
ATOM     24  C   UNL     1      -3.364  -3.493   7.149  0.00  0.00    +0.161 C 
ATOM     25  O   UNL     1      -2.601  -3.082   5.992  0.00  0.00    -0.367 OA
ENDBRANCH  19  21
ENDBRANCH  11  19
TORSDOF 3
