REMARK  Name = ZINC39775345
REMARK  7 active torsions:
REMARK  status: ('A' for Active; 'I' for Inactive)
REMARK    1  A    between atoms: C_1  and  C_2
REMARK    2  A    between atoms: N_6  and  N_7
REMARK    3  A    between atoms: C_11  and  C_18
REMARK    4  A    between atoms: C_12  and  C_14
REMARK    5  A    between atoms: C_18  and  O_20
REMARK    6  A    between atoms: O_20  and  C_21
REMARK    7  A    between atoms: C_32  and  C_39
REMARK                            x       y       z     vdW  Elec       q    Type
REMARK                         _______ _______ _______ _____ _____    ______ ____
ROOT
ATOM      1  C   UNL     1       0.541   0.882   0.231  0.00  0.00    +0.016 C 
ATOM      2  C   UNL     1       0.594  -0.631   0.008  0.00  0.00    -0.007 C 
ATOM      3  C   UNL     1       1.286  -0.951  -1.312  0.00  0.00    +0.017 C 
ATOM      4  C   UNL     1       2.749  -0.501  -1.264  0.00  0.00    +0.058 C 
ATOM      5  C   UNL     1       3.423  -1.122  -0.067  0.00  0.00    +0.059 C 
ATOM      6  N   UNL     1       4.709  -1.317  -0.074  0.00  0.00    -0.185 NA
ATOM      7  C   UNL     1       2.632  -1.503   1.106  0.00  0.00    +0.024 C 
ATOM      8  C   UNL     1       1.325  -1.287   1.153  0.00  0.00    -0.062 C 
ATOM      9  C   UNL     1       0.528  -1.703   2.368  0.00  0.00    +0.031 C 
ATOM     10  C   UNL     1      -0.508  -2.748   1.952  0.00  0.00    +0.008 C 
ATOM     11  C   UNL     1      -0.804  -2.639   0.463  0.00  0.00    -0.003 C 
ATOM     12  C   UNL     1      -0.842  -1.187   0.004  0.00  0.00    +0.002 C 
ATOM     13  C   UNL     1      -1.471  -1.022  -1.368  0.00  0.00    +0.005 C 
ATOM     14  C   UNL     1      -2.878  -1.614  -1.477  0.00  0.00    +0.015 C 
ATOM     15  C   UNL     1      -3.219  -2.458  -0.275  0.00  0.00    +0.029 C 
ATOM     16  C   UNL     1      -2.035  -3.392   0.054  0.00  0.00    +0.006 C 
ATOM     17  C   UNL     1      -2.662  -4.328   1.099  0.00  0.00    +0.012 C 
ATOM     18  C   UNL     1      -4.089  -4.560   0.526  0.00  0.00    +0.075 C 
ATOM     19  C   UNL     1      -4.322  -3.475  -0.518  0.00  0.00    +0.139 C 
ATOM     20  O   UNL     1      -5.182  -3.419  -1.353  0.00  0.00    -0.297 OA
ATOM     21  C   UNL     1      -3.652  -1.601   0.910  0.00  0.00    +0.019 C 
ENDROOT
BRANCH   6  22
ATOM     22  N   UNL     1       5.337  -1.893   1.038  0.00  0.00    -0.205 N 
ATOM     23  C   UNL     1       6.701  -2.100   1.029  0.00  0.00    +0.236 A 
ATOM     24  N   UNL     1       7.401  -1.741  -0.040  0.00  0.00    -0.221 NA
ATOM     25  C   UNL     1       8.706  -1.922  -0.087  0.00  0.00    +0.131 A 
ATOM     26  C   UNL     1       9.353  -2.502   1.014  0.00  0.00    +0.107 A 
ATOM     27  C   UNL     1       8.576  -2.866   2.123  0.00  0.00    +0.163 A 
ATOM     28  N   UNL     1       7.276  -2.647   2.093  0.00  0.00    -0.208 NA
ATOM     29  H   UNL     1       4.813  -2.146   1.813  0.00  0.00    +0.177 HD
BRANCH  27  30
ATOM     30  C   UNL     1       9.219  -3.494   3.333  0.00  0.00    +0.435 C 
ATOM     31  F   UNL     1      10.133  -2.595   3.894  0.00  0.00    -0.164 F 
ATOM     32  F   UNL     1       8.233  -3.806   4.275  0.00  0.00    -0.164 F 
ATOM     33  F   UNL     1       9.888  -4.662   2.953  0.00  0.00    -0.164 F 
ENDBRANCH  27  30
BRANCH  26  34
ATOM     34  C   UNL     1      10.810  -2.723   1.005  0.00  0.00    +0.342 C 
ATOM     35  O   UNL     1      11.368  -3.135   2.002  0.00  0.00    -0.245 OA
BRANCH  34  36
ATOM     36  O   UNL     1      11.523  -2.469  -0.110  0.00  0.00    -0.464 OA
ATOM     37  C   UNL     1      12.931  -2.705  -0.047  0.00  0.00    +0.280 C 
ENDBRANCH  34  36
ENDBRANCH  26  34
ENDBRANCH   6  22
TORSDOF 4
