REMARK  Name = ZINC67336177
REMARK  7 active torsions:
REMARK  status: ('A' for Active; 'I' for Inactive)
REMARK    1  A    between atoms: C_1  and  C_2
REMARK    2  A    between atoms: C_5  and  S_8
REMARK    3  A    between atoms: S_8  and  C_11
REMARK    4  A    between atoms: C_16  and  N_17
REMARK    5  A    between atoms: N_21  and  C_24
REMARK    6  A    between atoms: C_28  and  C_31
REMARK    7  A    between atoms: C_29  and  C_30
REMARK                            x       y       z     vdW  Elec       q    Type
REMARK                         _______ _______ _______ _____ _____    ______ ____
ROOT
ATOM      1  C   UNL     1       1.848  -4.809  -0.070  0.00  0.00    +0.151 A 
ATOM      2  C   UNL     1       2.444  -5.596   0.897  0.00  0.00    +0.145 A 
ATOM      3  N   UNL     1       3.611  -6.168   0.638  0.00  0.00    -0.221 NA
ATOM      4  C   UNL     1       4.209  -5.995  -0.531  0.00  0.00    +0.220 A 
ATOM      5  N   UNL     1       3.672  -5.249  -1.484  0.00  0.00    -0.198 NA
ATOM      6  C   UNL     1       2.500  -4.650  -1.294  0.00  0.00    +0.147 A 
ATOM      7  N   UNL     1       5.427  -6.610  -0.763  0.00  0.00    -0.297 N 
ATOM      8  C   UNL     1       6.122  -6.435  -2.046  0.00  0.00    +0.127 C 
ATOM      9  C   UNL     1       7.535  -5.906  -1.770  0.00  0.00    +0.124 C 
ATOM     10  N   UNL     1       8.157  -6.745  -0.737  0.00  0.00    -0.327 N 
ATOM     11  C   UNL     1       7.463  -6.921   0.546  0.00  0.00    +0.124 C 
ATOM     12  C   UNL     1       6.053  -7.445   0.273  0.00  0.00    +0.127 C 
ENDROOT
BRANCH  10  13
ATOM     13  C   UNL     1       9.387  -7.366  -0.971  0.00  0.00    +0.033 A 
ATOM     14  C   UNL     1      10.569  -6.715  -0.642  0.00  0.00    +0.023 A 
ATOM     15  C   UNL     1      11.783  -7.331  -0.874  0.00  0.00    +0.002 A 
ATOM     16  C   UNL     1      11.822  -8.596  -1.433  0.00  0.00    +0.004 A 
ATOM     17  C   UNL     1      10.647  -9.247  -1.761  0.00  0.00    -0.046 A 
ATOM     18  C   UNL     1       9.430  -8.638  -1.526  0.00  0.00    -0.027 A 
ATOM     19  C   UNL     1       8.150  -9.351  -1.878  0.00  0.00    +0.046 C 
ATOM     20  C   UNL     1      10.695 -10.624  -2.371  0.00  0.00    +0.044 C 
ENDBRANCH  10  13
BRANCH   1  21
ATOM     21  S   UNL     1       0.297  -4.030   0.233  0.00  0.00    +0.030 S 
ATOM     22  O   UNL     1      -0.076  -4.370   1.562  0.00  0.00    -0.164 OA
ATOM     23  O   UNL     1      -0.528  -4.319  -0.887  0.00  0.00    -0.164 OA
BRANCH  21  28
ATOM     24  C   UNL     1       1.248   1.928   0.181  0.00  0.00    +0.044 C 
ATOM     25  C   UNL     1       1.010   0.440   0.194  0.00  0.00    -0.050 A 
ATOM     26  C   UNL     1       0.581  -0.202  -0.953  0.00  0.00    +0.005 A 
ATOM     27  C   UNL     1       0.363  -1.567  -0.941  0.00  0.00    +0.027 A 
ATOM     28  C   UNL     1       0.575  -2.291   0.218  0.00  0.00    +0.094 A 
ATOM     29  C   UNL     1       1.006  -1.649   1.364  0.00  0.00    +0.027 A 
ATOM     30  C   UNL     1       1.228  -0.285   1.351  0.00  0.00    +0.005 A 
ENDBRANCH  21  28
ENDBRANCH   1  21
BRANCH   6  31
ATOM     31  N   UNL     1       1.937  -3.874  -2.294  0.00  0.00    -0.341 N 
ATOM     32  H   UNL     1       1.037  -3.529  -2.192  0.00  0.00    +0.144 HD
ATOM     33  H   UNL     1       2.444  -3.676  -3.097  0.00  0.00    +0.144 HD
ENDBRANCH   6  31
TORSDOF 4
