REMARK  Name = ZINC04818361
REMARK  5 active torsions:
REMARK  status: ('A' for Active; 'I' for Inactive)
REMARK    1  A    between atoms: C_1  and  O_2
REMARK    2  A    between atoms: O_2  and  C_3
REMARK    3  A    between atoms: C_5  and  O_25
REMARK    4  A    between atoms: C_8  and  C_9
REMARK    5  A    between atoms: O_25  and  C_26
REMARK                            x       y       z     vdW  Elec       q    Type
REMARK                         _______ _______ _______ _____ _____    ______ ____
ROOT
ATOM      1  C   UNL     1       0.051  -2.826  -0.031  0.00  0.00    +0.212 C 
ATOM      2  N   UNL     1       0.685  -4.157   0.002  0.00  0.00    -0.294 N 
ATOM      3  C   UNL     1       0.270  -5.132  -0.865  0.00  0.00    +0.160 C 
ATOM      4  N   UNL     1      -0.976  -5.176  -1.305  0.00  0.00    -0.302 N 
ATOM      5  C   UNL     1      -1.828  -4.195  -0.928  0.00  0.00    +0.213 A 
ATOM      6  N   UNL     1      -1.376  -3.043  -0.299  0.00  0.00    -0.286 N 
ATOM      7  C   UNL     1      -2.462  -2.265  -0.035  0.00  0.00    +0.072 A 
ATOM      8  C   UNL     1      -2.614  -1.031   0.586  0.00  0.00    +0.028 A 
ATOM      9  C   UNL     1      -3.901  -0.525   0.682  0.00  0.00    +0.002 A 
ATOM     10  C   UNL     1      -4.997  -1.209   0.187  0.00  0.00    +0.002 A 
ATOM     11  C   UNL     1      -4.874  -2.438  -0.434  0.00  0.00    +0.030 A 
ATOM     12  C   UNL     1      -3.584  -2.970  -0.543  0.00  0.00    +0.091 A 
ATOM     13  N   UNL     1      -3.129  -4.126  -1.080  0.00  0.00    -0.212 NA
ATOM     14  N   UNL     1       1.163  -6.079  -1.285  0.00  0.00    -0.332 N 
ATOM     15  H   UNL     1       1.395  -4.341   0.637  0.00  0.00    +0.151 HD
ATOM     16  H   UNL     1       2.080  -6.056  -0.969  0.00  0.00    +0.145 HD
ATOM     17  H   UNL     1       0.880  -6.774  -1.900  0.00  0.00    +0.145 HD
ATOM     18  H   UNL     1      -1.272  -5.894  -1.885  0.00  0.00    +0.171 HD
ENDROOT
BRANCH   1  24
ATOM     19  C   UNL     1       0.606  -0.607  -1.056  0.00  0.00    +0.130 A 
ATOM     20  C   UNL     1       1.173   0.161  -2.062  0.00  0.00    +0.092 A 
ATOM     21  C   UNL     1       1.788  -0.457  -3.139  0.00  0.00    +0.137 A 
ATOM     22  C   UNL     1       1.835  -1.843  -3.209  0.00  0.00    +0.060 A 
ATOM     23  C   UNL     1       1.269  -2.606  -2.205  0.00  0.00    +0.029 A 
ATOM     24  C   UNL     1       0.661  -1.992  -1.127  0.00  0.00    +0.036 A 
ATOM     25 BR   UNL     1       2.674  -2.686  -4.679  0.00  0.00    -0.047 Br
BRANCH  19  27
ATOM     26  C   UNL     1      -0.017   1.425   0.010  0.00  0.00    +0.277 C 
ATOM     27  O   UNL     1       0.002  -0.004   0.002  0.00  0.00    -0.495 OA
ENDBRANCH  19  27
BRANCH  21  28
ATOM     28  O   UNL     1       2.343   0.294  -4.127  0.00  0.00    -0.494 OA
ATOM     29  C   UNL     1       2.257   1.714  -3.990  0.00  0.00    +0.277 C 
ENDBRANCH  21  28
ENDBRANCH   1  24
TORSDOF 3
