REMARK  Name = ZINC35479801
REMARK  10 active torsions:
REMARK  status: ('A' for Active; 'I' for Inactive)
REMARK    1  A    between atoms: C_1  and  C_2
REMARK    2  A    between atoms: C_3  and  C_28
REMARK    3  A    between atoms: C_6  and  C_7
REMARK    4  A    between atoms: C_8  and  C_27
REMARK    5  A    between atoms: C_10  and  C_26
REMARK    6  A    between atoms: C_11  and  S_12
REMARK    7  A    between atoms: S_12  and  N_15
REMARK    8  A    between atoms: N_15  and  C_16
REMARK    9  A    between atoms: C_19  and  S_22
REMARK   10  A    between atoms: S_22  and  N_25
REMARK                            x       y       z     vdW  Elec       q    Type
REMARK                         _______ _______ _______ _____ _____    ______ ____
ROOT
ATOM      1  S   UNL     1       0.551  -2.823   3.411  0.00  0.00    +0.093 S 
ATOM      2  O   UNL     1       0.296  -3.372   4.696  0.00  0.00    -0.148 OA
ATOM      3  O   UNL     1      -0.194  -3.199   2.260  0.00  0.00    -0.148 OA
ENDROOT
BRANCH   1   8
ATOM      4  C   UNL     1       0.221  -0.248   2.454  0.00  0.00    +0.057 A 
ATOM      5  C   UNL     1       0.096   1.094   2.664  0.00  0.00    -0.000 A 
ATOM      6  S   UNL     1       0.206   1.252   4.333  0.00  0.00    -0.096 S 
ATOM      7  C   UNL     1       0.419  -0.462   4.771  0.00  0.00    +0.014 A 
ATOM      8  C   UNL     1       0.387  -1.076   3.568  0.00  0.00    +0.131 A 
ATOM      9  C   UNL     1       0.587  -1.073   6.139  0.00  0.00    +0.053 C 
ATOM     10  C   UNL     1      -0.096   2.182   1.639  0.00  0.00    +0.052 C 
BRANCH   4  16
ATOM     11  C   UNL     1      -2.104   0.127   0.408  0.00  0.00    +0.049 C 
ATOM     12  C   UNL     1      -0.834  -0.654   0.189  0.00  0.00    +0.019 A 
ATOM     13  C   UNL     1      -0.482  -1.341  -0.980  0.00  0.00    +0.084 A 
ATOM     14  N   UNL     1       0.685  -1.894  -0.794  0.00  0.00    -0.083 NA
ATOM     15  O   UNL     1       1.123  -1.575   0.514  0.00  0.00    -0.354 OA
ATOM     16  C   UNL     1       0.175  -0.811   1.090  0.00  0.00    +0.173 A 
ATOM     17  C   UNL     1      -1.309  -1.427  -2.237  0.00  0.00    +0.069 C 
ENDBRANCH   4  16
ENDBRANCH   1   8
BRANCH   1  18
ATOM     18  N   UNL     1       2.140  -3.136   3.069  0.00  0.00    -0.098 NA
BRANCH  18  19
ATOM     19  C   UNL     1       2.570  -4.454   2.889  0.00  0.00    +0.074 A 
ATOM     20  C   UNL     1       1.663  -5.501   2.991  0.00  0.00    +0.028 A 
ATOM     21  C   UNL     1       2.091  -6.802   2.812  0.00  0.00    +0.030 A 
ATOM     22  C   UNL     1       3.420  -7.062   2.533  0.00  0.00    +0.105 A 
ATOM     23  C   UNL     1       4.325  -6.022   2.431  0.00  0.00    +0.030 A 
ATOM     24  C   UNL     1       3.903  -4.718   2.603  0.00  0.00    +0.028 A 
BRANCH  22  25
ATOM     25  S   UNL     1       3.961  -8.724   2.307  0.00  0.00    +0.056 S 
ATOM     26  O   UNL     1       5.352  -8.741   2.595  0.00  0.00    -0.153 OA
ATOM     27  O   UNL     1       3.031  -9.551   2.992  0.00  0.00    -0.153 OA
BRANCH  25  28
ATOM     28  N   UNL     1       3.808  -9.074   0.696  0.00  0.00    -0.204 NA
ATOM     29  H   UNL     1       4.409  -9.710   0.278  0.00  0.00    +0.144 HD
ATOM     30  H   UNL     1       3.116  -8.643   0.169  0.00  0.00    +0.144 HD
ENDBRANCH  25  28
ENDBRANCH  22  25
ENDBRANCH  18  19
ENDBRANCH   1  18
TORSDOF 6
