REMARK  Name = ZINC09312646
REMARK  5 active torsions:
REMARK  status: ('A' for Active; 'I' for Inactive)
REMARK    1  A    between atoms: C_1  and  C_2
REMARK    2  A    between atoms: C_4  and  N_37
REMARK    3  A    between atoms: C_7  and  N_8
REMARK    4  A    between atoms: C_23  and  C_29
REMARK    5  A    between atoms: C_29  and  C_31
REMARK                            x       y       z     vdW  Elec       q    Type
REMARK                         _______ _______ _______ _____ _____    ______ ____
ROOT
ATOM      1  N   UNL     1       0.719   1.467   2.113  0.00  0.00    -0.210 N 
ATOM      2  C   UNL     1       1.854   1.286   1.364  0.00  0.00    +0.232 C 
ATOM      3  O   UNL     1       2.939   0.905   1.747  0.00  0.00    -0.274 OA
ATOM      4  C   UNL     1       1.467   1.652  -0.003  0.00  0.00    +0.113 C 
ATOM      5  C   UNL     1       1.915   1.139  -1.328  0.00  0.00    +0.100 C 
ATOM      6  C   UNL     1       3.046   1.931  -1.928  0.00  0.00    -0.021 A 
ATOM      7  C   UNL     1       4.078   2.388  -1.149  0.00  0.00    +0.006 A 
ATOM      8  C   UNL     1       5.119   3.100  -1.717  0.00  0.00    +0.000 A 
ATOM      9  C   UNL     1       5.126   3.361  -3.076  0.00  0.00    +0.001 A 
ATOM     10  C   UNL     1       4.088   2.924  -3.872  0.00  0.00    +0.008 A 
ATOM     11  C   UNL     1       3.021   2.223  -3.304  0.00  0.00    -0.019 A 
ATOM     12  C   UNL     1       1.904   1.768  -4.153  0.00  0.00    +0.022 C 
ATOM     13  C   UNL     1       0.770   1.326  -3.578  0.00  0.00    +0.054 C 
ATOM     14  C   UNL     1      -0.461   1.607  -1.334  0.00  0.00    +0.141 C 
ATOM     15  C   UNL     1      -0.013   1.086   0.008  0.00  0.00    +0.116 C 
ATOM     16  C   UNL     1      -0.407   1.582   1.341  0.00  0.00    +0.232 C 
ATOM     17  O   UNL     1      -1.494   2.001   1.680  0.00  0.00    -0.274 OA
ATOM     18  N   UNL     1       0.694   0.992  -2.094  0.00  0.00    -0.384 NA
ATOM     19  H   UNL     1       0.510  -0.018  -2.082  0.00  0.00    +0.127 HD
ENDROOT
BRANCH   1  26
ATOM     20  C   UNL     1       0.375  -0.957   3.564  0.00  0.00    +0.046 C 
ATOM     21  C   UNL     1       0.548   0.368   4.260  0.00  0.00    -0.026 A 
ATOM     22  C   UNL     1       0.546   0.431   5.639  0.00  0.00    +0.038 A 
ATOM     23  C   UNL     1       0.700   1.648   6.278  0.00  0.00    +0.127 A 
ATOM     24  C   UNL     1       0.859   2.805   5.538  0.00  0.00    +0.034 A 
ATOM     25  C   UNL     1       0.866   2.748   4.158  0.00  0.00    +0.026 A 
ATOM     26  C   UNL     1       0.713   1.528   3.514  0.00  0.00    +0.047 A 
BRANCH  23  27
ATOM     27  N   UNL     1       0.692   1.712   7.757  0.00  0.00    +0.056 N 
ATOM     28  O   UNL     1       0.827   2.783   8.320  0.00  0.00    -0.126 OA
ATOM     29  O   UNL     1       0.552   0.694   8.410  0.00  0.00    -0.126 OA
ENDBRANCH  23  27
ENDBRANCH   1  26
BRANCH  14  30
ATOM     30  C   UNL     1      -0.751   3.084  -1.264  0.00  0.00    +0.183 C 
ATOM     31  O   UNL     1       0.029   3.879  -1.742  0.00  0.00    -0.290 OA
BRANCH  30  32
ATOM     32  C   UNL     1      -1.982   3.562  -0.613  0.00  0.00    +0.019 A 
ATOM     33  C   UNL     1      -2.887   2.647  -0.065  0.00  0.00    +0.011 A 
ATOM     34  C   UNL     1      -4.035   3.103   0.548  0.00  0.00    +0.001 A 
ATOM     35  C   UNL     1      -4.298   4.461   0.611  0.00  0.00    +0.000 A 
ATOM     36  C   UNL     1      -3.410   5.371   0.065  0.00  0.00    +0.001 A 
ATOM     37  C   UNL     1      -2.255   4.931  -0.546  0.00  0.00    +0.011 A 
ENDBRANCH  30  32
ENDBRANCH  14  30
TORSDOF 4
