REMARK  Name = ZINC20233546
REMARK  9 active torsions:
REMARK  status: ('A' for Active; 'I' for Inactive)
REMARK    1  A    between atoms: C_1  and  C_2
REMARK    2  A    between atoms: C_7  and  N_8
REMARK    3  A    between atoms: C_9  and  C_11
REMARK    4  A    between atoms: C_14  and  C_20
REMARK    5  A    between atoms: N_16  and  C_19
REMARK    6  A    between atoms: C_23  and  O_28
REMARK    7  A    between atoms: C_24  and  O_26
REMARK    8  A    between atoms: O_26  and  C_27
REMARK    9  A    between atoms: O_28  and  C_29
REMARK                            x       y       z     vdW  Elec       q    Type
REMARK                         _______ _______ _______ _____ _____    ______ ____
ROOT
ATOM      1  C   UNL     1      -3.675  -1.041  -0.197  0.00  0.00    +0.077 A 
ATOM      2  C   UNL     1      -3.867  -2.386  -0.319  0.00  0.00    +0.033 A 
ATOM      3  C   UNL     1      -5.170  -2.895  -0.405  0.00  0.00    +0.036 A 
ATOM      4  C   UNL     1      -5.867  -4.197  -0.538  0.00  0.00    +0.101 A 
ATOM      5  N   UNL     1      -7.154  -3.965  -0.569  0.00  0.00    -0.170 NA
ATOM      6  N   UNL     1      -7.385  -2.589  -0.465  0.00  0.00    -0.260 N 
ATOM      7  C   UNL     1      -6.204  -1.949  -0.368  0.00  0.00    +0.107 A 
ATOM      8  S   UNL     1      -5.343  -0.406  -0.209  0.00  0.00    -0.064 S 
ATOM      9  C   UNL     1      -8.702  -1.946  -0.463  0.00  0.00    +0.173 C 
ENDROOT
BRANCH   4  10
ATOM     10  C   UNL     1      -5.220  -5.528  -0.623  0.00  0.00    +0.006 A 
ATOM     11  C   UNL     1      -4.000  -5.671  -1.283  0.00  0.00    +0.014 A 
ATOM     12  C   UNL     1      -3.398  -6.910  -1.361  0.00  0.00    +0.050 A 
ATOM     13  C   UNL     1      -4.003  -8.015  -0.782  0.00  0.00    +0.162 A 
ATOM     14  C   UNL     1      -5.221  -7.879  -0.122  0.00  0.00    +0.162 A 
ATOM     15  C   UNL     1      -5.827  -6.638  -0.037  0.00  0.00    +0.059 A 
BRANCH  14  16
ATOM     16  O   UNL     1      -5.814  -8.965   0.444  0.00  0.00    -0.491 OA
ATOM     17  C   UNL     1      -7.062  -8.752   1.105  0.00  0.00    +0.277 C 
ENDBRANCH  14  16
BRANCH  13  18
ATOM     18  O   UNL     1      -3.406  -9.235  -0.861  0.00  0.00    -0.491 OA
ATOM     19  C   UNL     1      -2.158  -9.303  -1.553  0.00  0.00    +0.277 C 
ENDBRANCH  13  18
ENDBRANCH   4  10
BRANCH   1  21
ATOM     20  N   UNL     1      -2.427   1.041   0.020  0.00  0.00    -0.281 N 
ATOM     21  C   UNL     1      -2.414  -0.302  -0.089  0.00  0.00    +0.255 C 
ATOM     22  O   UNL     1      -1.355  -0.902  -0.097  0.00  0.00    -0.269 OA
ATOM     23  H   UNL     1      -3.384   1.575   0.119  0.00  0.00    +0.155 HD
BRANCH  20  30
ATOM     24  C   UNL     1      -2.363   3.585   1.291  0.00  0.00    +0.046 C 
ATOM     25  C   UNL     1      -1.150   3.002   0.615  0.00  0.00    -0.028 A 
ATOM     26  C   UNL     1       0.037   3.707   0.596  0.00  0.00    +0.020 A 
ATOM     27  C   UNL     1       1.152   3.172  -0.024  0.00  0.00    +0.018 A 
ATOM     28  C   UNL     1       1.081   1.928  -0.627  0.00  0.00    +0.017 A 
ATOM     29  C   UNL     1      -0.103   1.218  -0.611  0.00  0.00    +0.024 A 
ATOM     30  C   UNL     1      -1.225   1.756   0.006  0.00  0.00    +0.037 A 
ATOM     31 BR   UNL     1       2.776   4.141  -0.049  0.00  0.00    -0.050 Br
ENDBRANCH  20  30
ENDBRANCH   1  21
TORSDOF 5
