REMARK  Name = ZINC12496624
REMARK  5 active torsions:
REMARK  status: ('A' for Active; 'I' for Inactive)
REMARK    1  A    between atoms: C_1  and  C_2
REMARK    2  A    between atoms: N_5  and  S_11
REMARK    3  A    between atoms: C_7  and  C_10
REMARK    4  A    between atoms: S_11  and  C_14
REMARK    5  A    between atoms: C_17  and  C_20
REMARK                            x       y       z     vdW  Elec       q    Type
REMARK                         _______ _______ _______ _____ _____    ______ ____
ROOT
ATOM      1  C   UNL     1      -2.316   3.369   5.293  0.00  0.00    +0.247 C 
ATOM      2  O   UNL     1      -1.600   3.441   6.272  0.00  0.00    -0.270 OA
ATOM      3  N   UNL     1      -3.631   3.647   5.398  0.00  0.00    -0.295 N 
ATOM      4  C   UNL     1      -4.540   3.438   4.260  0.00  0.00    +0.127 C 
ATOM      5  C   UNL     1      -5.735   2.603   4.746  0.00  0.00    +0.126 C 
ATOM      6  N   UNL     1      -6.342   3.258   5.913  0.00  0.00    -0.307 N 
ATOM      7  C   UNL     1      -5.402   3.315   7.040  0.00  0.00    +0.126 C 
ATOM      8  C   UNL     1      -4.194   4.173   6.651  0.00  0.00    +0.127 C 
ATOM      9  C   UNL     1      -7.515   2.629   6.279  0.00  0.00    +0.162 A 
ATOM     10  N   UNL     1      -7.846   2.113   7.440  0.00  0.00    -0.222 NA
ATOM     11  C   UNL     1      -9.044   1.526   7.659  0.00  0.00    +0.115 A 
ATOM     12  C   UNL     1      -9.524   0.940   8.854  0.00  0.00    +0.150 A 
ATOM     13  C   UNL     1     -10.775   0.377   8.905  0.00  0.00    +0.040 A 
ATOM     14  C   UNL     1     -11.607   0.361   7.795  0.00  0.00    +0.004 A 
ATOM     15  C   UNL     1     -11.169   0.925   6.611  0.00  0.00    +0.017 A 
ATOM     16  C   UNL     1      -9.919   1.491   6.551  0.00  0.00    +0.044 A 
ATOM     17  S   UNL     1      -8.968   2.304   5.290  0.00  0.00    -0.052 S 
ATOM     18  F   UNL     1      -8.744   0.936   9.957  0.00  0.00    -0.203 F 
ENDROOT
BRANCH   1  22
ATOM     19  C   UNL     1      -0.676   2.241   1.540  0.00  0.00    +0.106 A 
ATOM     20  C   UNL     1      -1.722   3.146   1.591  0.00  0.00    +0.029 A 
ATOM     21  C   UNL     1      -2.263   3.512   2.806  0.00  0.00    +0.015 A 
ATOM     22  C   UNL     1      -1.746   2.976   3.987  0.00  0.00    +0.037 A 
ATOM     23  C   UNL     1      -0.687   2.068   3.929  0.00  0.00    +0.015 A 
ATOM     24  C   UNL     1      -0.159   1.706   2.707  0.00  0.00    +0.029 A 
BRANCH  19  25
ATOM     25  S   UNL     1       0.004   1.774  -0.016  0.00  0.00    +0.061 S 
ATOM     26  O   UNL     1       1.333   1.337   0.236  0.00  0.00    -0.153 OA
ATOM     27  O   UNL     1      -0.293   2.827  -0.922  0.00  0.00    -0.153 OA
BRANCH  25  31
ATOM     28  C   UNL     1      -0.074  -3.210  -1.132  0.00  0.00    +0.039 C 
ATOM     29  C   UNL     1      -0.339  -1.744  -1.481  0.00  0.00    +0.131 C 
ATOM     30  C   UNL     1      -0.397  -0.914  -0.199  0.00  0.00    +0.140 C 
ATOM     31  N   UNL     1      -0.838   0.448  -0.540  0.00  0.00    -0.172 NA
ATOM     32  C   UNL     1      -2.047   0.596  -1.367  0.00  0.00    +0.140 C 
ATOM     33  C   UNL     1      -1.905  -0.308  -2.596  0.00  0.00    +0.131 C 
ATOM     34  O   UNL     1      -1.586  -1.635  -2.171  0.00  0.00    -0.371 OA
ATOM     35  C   UNL     1      -3.223  -0.323  -3.374  0.00  0.00    +0.039 C 
ENDBRANCH  25  31
ENDBRANCH  19  25
ENDBRANCH   1  22
TORSDOF 3
