REMARK  Name = ZINC12414377
REMARK  3 active torsions:
REMARK  status: ('A' for Active; 'I' for Inactive)
REMARK    1  A    between atoms: C_6  and  C_7
REMARK    2  A    between atoms: C_9  and  C_12
REMARK    3  A    between atoms: N_17  and  C_19
REMARK                            x       y       z     vdW  Elec       q    Type
REMARK                         _______ _______ _______ _____ _____    ______ ____
ROOT
ATOM      1  C   UNL     1      -4.751   0.568  -0.341  0.00  0.00    +0.104 C 
ATOM      2  C   UNL     1      -3.964  -0.732  -0.057  0.00  0.00    +0.111 C 
ATOM      3  C   UNL     1      -2.514  -0.301  -0.084  0.00  0.00    +0.221 C 
ATOM      4  O   UNL     1      -1.567  -1.053  -0.183  0.00  0.00    -0.275 OA
ATOM      5  N   UNL     1      -2.427   1.036   0.019  0.00  0.00    -0.271 N 
ATOM      6  C   UNL     1      -3.756   1.649   0.140  0.00  0.00    +0.127 C 
ENDROOT
BRANCH   5   7
ATOM      7  C   UNL     1      -1.224   1.753   0.017  0.00  0.00    +0.040 A 
ATOM      8  C   UNL     1      -1.242   3.141   0.015  0.00  0.00    +0.027 A 
ATOM      9  C   UNL     1      -0.055   3.848   0.006  0.00  0.00    +0.051 A 
ATOM     10  C   UNL     1       1.157   3.175   0.005  0.00  0.00    +0.162 A 
ATOM     11  C   UNL     1       1.179   1.785   0.016  0.00  0.00    +0.164 A 
ATOM     12  C   UNL     1      -0.013   1.076   0.023  0.00  0.00    +0.073 A 
ATOM     13  O   UNL     1       2.359   1.107   0.024  0.00  0.00    -0.485 OA
ATOM     14  C   UNL     1       3.526   1.841  -0.360  0.00  0.00    +0.270 C 
ATOM     15  C   UNL     1       3.507   3.191   0.370  0.00  0.00    +0.270 C 
ATOM     16  O   UNL     1       2.317   3.889  -0.010  0.00  0.00    -0.485 OA
ENDBRANCH   5   7
BRANCH   1  19
ATOM     17  C   UNL     1      -8.052   0.719   1.073  0.00  0.00    +0.202 A 
ATOM     18  N   UNL     1      -7.241   0.721  -0.008  0.00  0.00    -0.191 NA
ATOM     19  C   UNL     1      -6.024   0.615   0.465  0.00  0.00    +0.233 A 
ATOM     20  O   UNL     1      -6.123   0.561   1.797  0.00  0.00    -0.337 OA
ATOM     21  N   UNL     1      -7.287   0.622   2.130  0.00  0.00    -0.056 NA
BRANCH  17  27
ATOM     22  C   UNL     1     -10.219   0.921  -0.144  0.00  0.00    +0.013 A 
ATOM     23  C   UNL     1     -11.596   1.006  -0.148  0.00  0.00    +0.016 A 
ATOM     24  C   UNL     1     -12.296   0.997   1.046  0.00  0.00    +0.018 A 
ATOM     25  C   UNL     1     -11.619   0.898   2.249  0.00  0.00    +0.016 A 
ATOM     26  C   UNL     1     -10.242   0.808   2.264  0.00  0.00    +0.013 A 
ATOM     27  C   UNL     1      -9.533   0.816   1.064  0.00  0.00    +0.023 A 
ATOM     28 BR   UNL     1     -14.183   1.119   1.034  0.00  0.00    -0.050 Br
ENDBRANCH  17  27
ENDBRANCH   1  19
TORSDOF 3
