REMARK  Name = ZINC16001301
REMARK  2 active torsions:
REMARK  status: ('A' for Active; 'I' for Inactive)
REMARK    1  A    between atoms: C_1  and  C_2
REMARK    2  A    between atoms: N_24  and  C_27
REMARK                            x       y       z     vdW  Elec       q    Type
REMARK                         _______ _______ _______ _____ _____    ______ ____
ROOT
ATOM      1  C   UNL     1      10.254  -4.476   2.613  0.00  0.00    +0.047 C 
ATOM      2  C   UNL     1       8.875  -4.693   2.045  0.00  0.00    -0.011 A 
ATOM      3  C   UNL     1       8.681  -4.667   0.678  0.00  0.00    +0.046 A 
ATOM      4  C   UNL     1       7.419  -4.867   0.148  0.00  0.00    +0.020 A 
ATOM      5  C   UNL     1       6.346  -5.091   0.993  0.00  0.00    +0.006 A 
ATOM      6  C   UNL     1       6.533  -5.112   2.357  0.00  0.00    -0.027 A 
ATOM      7  C   UNL     1       7.800  -4.920   2.901  0.00  0.00    +0.040 A 
ATOM      8  N   UNL     1       7.745  -4.997   4.294  0.00  0.00    -0.286 N 
ATOM      9  C   UNL     1       6.498  -5.236   4.740  0.00  0.00    +0.212 C 
ATOM     10  O   UNL     1       6.154  -5.359   5.896  0.00  0.00    -0.277 OA
ATOM     11  C   UNL     1       5.610  -5.321   3.526  0.00  0.00    +0.053 C 
ATOM     12  C   UNL     1       4.474  -4.303   3.595  0.00  0.00    +0.089 C 
ATOM     13  C   UNL     1       3.480  -5.052   2.621  0.00  0.00    +0.074 C 
ATOM     14  C   UNL     1       3.486  -6.420   3.172  0.00  0.00    -0.054 C 
ATOM     15  N   UNL     1       4.953  -6.647   3.444  0.00  0.00    +0.395 N 
ATOM     16  C   UNL     1       5.075  -7.364   4.720  0.00  0.00    -0.076 C 
ATOM     17  C   UNL     1       3.652  -7.599   5.265  0.00  0.00    -0.020 C 
ATOM     18  C   UNL     1       2.813  -6.489   4.564  0.00  0.00    -0.016 C 
ATOM     19  C   UNL     1       2.558  -3.998   2.274  0.00  0.00    +0.228 C 
ATOM     20  O   UNL     1       1.368  -4.096   2.066  0.00  0.00    -0.275 OA
ATOM     21  N   UNL     1       3.326  -2.861   2.232  0.00  0.00    -0.210 N 
ATOM     22  C   UNL     1       4.564  -3.039   2.781  0.00  0.00    +0.229 C 
ATOM     23  O   UNL     1       5.534  -2.325   2.644  0.00  0.00    -0.275 OA
ATOM     24 CL   UNL     1      10.027  -4.381  -0.380  0.00  0.00    -0.083 Cl
ATOM     25  H   UNL     1       8.661  -4.865   4.888  0.00  0.00    +0.155 HD
ATOM     26  H   UNL     1       5.446  -7.247   2.665  0.00  0.00    -0.079 HD
ENDROOT
BRANCH  21  27
ATOM     27  C   UNL     1       2.888  -1.648   1.679  0.00  0.00    +0.048 A 
ATOM     28  C   UNL     1       3.728  -0.543   1.676  0.00  0.00    +0.028 A 
ATOM     29  C   UNL     1       3.299   0.652   1.131  0.00  0.00    +0.051 A 
ATOM     30  C   UNL     1       2.029   0.751   0.587  0.00  0.00    +0.166 A 
ATOM     31  C   UNL     1       1.183  -0.356   0.589  0.00  0.00    +0.168 A 
ATOM     32  C   UNL     1       1.615  -1.553   1.136  0.00  0.00    +0.073 A 
ATOM     33  O   UNL     1       0.002  -0.004   0.002  0.00  0.00    -0.453 OA
ATOM     34  C   UNL     1      -0.017   1.436   0.010  0.00  0.00    +0.466 C 
ATOM     35  O   UNL     1       1.376   1.797  -0.001  0.00  0.00    -0.453 OA
ENDBRANCH  21  27
TORSDOF 1
