REMARK  Name = ZINC01453211
REMARK  7 active torsions:
REMARK  status: ('A' for Active; 'I' for Inactive)
REMARK    1  A    between atoms: C_1  and  C_2
REMARK    2  A    between atoms: C_5  and  N_8
REMARK    3  A    between atoms: C_13  and  C_25
REMARK    4  A    between atoms: C_15  and  C_23
REMARK    5  A    between atoms: C_16  and  N_22
REMARK    6  A    between atoms: C_28  and  O_31
REMARK    7  A    between atoms: O_31  and  C_32
REMARK                            x       y       z     vdW  Elec       q    Type
REMARK                         _______ _______ _______ _____ _____    ______ ____
ROOT
ATOM      1  N   UNL     1       0.059  -4.172  -0.021  0.00  0.00    -0.209 N 
ATOM      2  C   UNL     1       0.069  -4.915   1.105  0.00  0.00    +0.232 C 
ATOM      3  O   UNL     1      -0.167  -4.529   2.230  0.00  0.00    -0.274 OA
ATOM      4  C   UNL     1       0.440  -6.355   0.682  0.00  0.00    +0.110 C 
ATOM      5  C   UNL     1       1.963  -6.336   0.665  0.00  0.00    +0.075 C 
ATOM      6  C   UNL     1       2.651  -7.224  -0.290  0.00  0.00    +0.064 C 
ATOM      7  C   UNL     1       2.143  -7.787  -1.402  0.00  0.00    +0.074 C 
ATOM      8  S   UNL     1       0.445  -7.591  -1.821  0.00  0.00    -0.096 S 
ATOM      9  C   UNL     1      -0.183  -6.318  -0.723  0.00  0.00    +0.152 C 
ATOM     10  C   UNL     1       0.062  -4.907  -1.160  0.00  0.00    +0.240 C 
ATOM     11  O   UNL     1       0.230  -4.507  -2.292  0.00  0.00    -0.274 OA
ENDROOT
BRANCH   1  16
ATOM     12  C   UNL     1      -0.018   1.503   0.010  0.00  0.00    +0.044 C 
ATOM     13  C   UNL     1       0.002  -0.004   0.002  0.00  0.00    -0.050 A 
ATOM     14  C   UNL     1       0.006  -0.688  -1.200  0.00  0.00    +0.005 A 
ATOM     15  C   UNL     1       0.025  -2.068  -1.211  0.00  0.00    +0.024 A 
ATOM     16  C   UNL     1       0.040  -2.771  -0.013  0.00  0.00    +0.044 A 
ATOM     17  C   UNL     1       0.037  -2.082   1.192  0.00  0.00    +0.024 A 
ATOM     18  C   UNL     1       0.023  -0.700   1.196  0.00  0.00    +0.005 A 
ENDBRANCH   1  16
BRANCH   5  19
ATOM     19  C   UNL     1       2.443  -6.690   2.049  0.00  0.00    -0.038 A 
ATOM     20  C   UNL     1       2.109  -7.912   2.604  0.00  0.00    +0.008 A 
ATOM     21  C   UNL     1       2.547  -8.239   3.873  0.00  0.00    +0.046 A 
ATOM     22  C   UNL     1       3.323  -7.340   4.590  0.00  0.00    +0.120 A 
ATOM     23  C   UNL     1       3.657  -6.115   4.031  0.00  0.00    +0.046 A 
ATOM     24  C   UNL     1       3.221  -5.795   2.760  0.00  0.00    +0.008 A 
BRANCH  22  25
ATOM     25  O   UNL     1       3.755  -7.659   5.839  0.00  0.00    -0.495 OA
ATOM     26  C   UNL     1       4.550  -6.686   6.519  0.00  0.00    +0.277 C 
ENDBRANCH  22  25
ENDBRANCH   5  19
BRANCH   7  27
ATOM     27  N   UNL     1       2.962  -8.525  -2.223  0.00  0.00    -0.352 N 
ATOM     28  H   UNL     1       3.899  -8.638  -1.998  0.00  0.00    +0.143 HD
ATOM     29  H   UNL     1       2.604  -8.933  -3.026  0.00  0.00    +0.143 HD
ENDBRANCH   7  27
BRANCH   6  30
ATOM     30  C   UNL     1       4.021  -7.524   0.000  0.00  0.00    +0.098 C 
ATOM     31  N   UNL     1       5.108  -7.761   0.230  0.00  0.00    -0.191 NA
ENDBRANCH   6  30
TORSDOF 5
