REMARK  Name = ZINC37053289
REMARK  5 active torsions:
REMARK  status: ('A' for Active; 'I' for Inactive)
REMARK    1  A    between atoms: C_3  and  N_8
REMARK    2  A    between atoms: N_8  and  S_9
REMARK    3  A    between atoms: S_9  and  C_12
REMARK    4  A    between atoms: C_15  and  N_20
REMARK    5  A    between atoms: C_17  and  C_18
REMARK                            x       y       z     vdW  Elec       q    Type
REMARK                         _______ _______ _______ _____ _____    ______ ____
ROOT
ATOM      1  S   UNL     1       5.027   1.314  -0.039  0.00  0.00    +0.093 S 
ATOM      2  O   UNL     1       5.124   0.629   1.202  0.00  0.00    -0.148 OA
ATOM      3  O   UNL     1       5.099   0.641  -1.289  0.00  0.00    -0.148 OA
ENDROOT
BRANCH   1   4
ATOM      4  C   UNL     1       6.304   2.528  -0.046  0.00  0.00    +0.128 A 
ATOM      5  C   UNL     1       7.166   2.628   1.027  0.00  0.00    +0.032 A 
ATOM      6  C   UNL     1       8.169   3.578   1.028  0.00  0.00    +0.025 A 
ATOM      7  C   UNL     1       8.317   4.440  -0.053  0.00  0.00    +0.026 A 
ATOM      8  C   UNL     1       7.457   4.348  -1.136  0.00  0.00    +0.043 A 
ATOM      9  C   UNL     1       6.447   3.385  -1.139  0.00  0.00    +0.080 A 
BRANCH   7  10
ATOM     10  N   UNL     1       9.333   5.400  -0.048  0.00  0.00    -0.358 N 
ATOM     11  H   UNL     1       9.935   5.465   0.710  0.00  0.00    +0.142 HD
ATOM     12  H   UNL     1       9.436   6.001  -0.801  0.00  0.00    +0.142 HD
ENDBRANCH   7  10
BRANCH   9  13
ATOM     13  C   UNL     1       5.558   3.279  -2.256  0.00  0.00    +0.101 C 
ATOM     14  N   UNL     1       4.852   3.195  -3.142  0.00  0.00    -0.191 NA
ENDBRANCH   9  13
ENDBRANCH   1   4
BRANCH   1  15
ATOM     15  N   UNL     1       3.582   2.123  -0.021  0.00  0.00    -0.098 NA
BRANCH  15  18
ATOM     16  C   UNL     1      -0.017   1.378   0.010  0.00  0.00    +0.003 A 
ATOM     17  C   UNL     1       1.169   2.087   0.002  0.00  0.00    +0.027 A 
ATOM     18  C   UNL     1       2.381   1.409  -0.013  0.00  0.00    +0.075 A 
ATOM     19  C   UNL     1       2.398   0.020  -0.021  0.00  0.00    +0.042 A 
ATOM     20  C   UNL     1       1.208  -0.683  -0.013  0.00  0.00    +0.020 A 
ATOM     21  C   UNL     1       0.002  -0.004   0.002  0.00  0.00    +0.015 A 
ATOM     22 BR   UNL     1       1.228  -2.574  -0.023  0.00  0.00    -0.050 Br
ENDBRANCH  15  18
ENDBRANCH   1  15
TORSDOF 5
