REMARK  Name = ZINC55104528
REMARK  4 active torsions:
REMARK  status: ('A' for Active; 'I' for Inactive)
REMARK    1  A    between atoms: C_1  and  N_2
REMARK    2  A    between atoms: N_20  and  C_23
REMARK    3  A    between atoms: C_30  and  N_34
REMARK    4  A    between atoms: C_31  and  C_32
REMARK                            x       y       z     vdW  Elec       q    Type
REMARK                         _______ _______ _______ _____ _____    ______ ____
ROOT
ATOM      1  C   UNL     1      -2.850  -0.298  -0.835  0.00  0.00    +0.138 C 
ATOM      2  N   UNL     1      -2.105  -1.558  -0.772  0.00  0.00    -0.273 N 
ATOM      3  C   UNL     1      -2.648  -2.793  -1.079  0.00  0.00    +0.041 A 
ATOM      4  C   UNL     1      -3.943  -3.115  -1.489  0.00  0.00    +0.024 A 
ATOM      5  C   UNL     1      -4.218  -4.452  -1.731  0.00  0.00    +0.002 A 
ATOM      6  C   UNL     1      -3.260  -5.434  -1.578  0.00  0.00    +0.000 A 
ATOM      7  C   UNL     1      -1.966  -5.126  -1.171  0.00  0.00    +0.007 A 
ATOM      8  C   UNL     1      -1.687  -3.799  -0.926  0.00  0.00    -0.001 A 
ATOM      9  C   UNL     1      -0.432  -3.116  -0.478  0.00  0.00    +0.147 C 
ATOM     10  C   UNL     1      -0.807  -1.650  -0.415  0.00  0.00    +0.240 C 
ATOM     11  O   UNL     1      -0.080  -0.732  -0.101  0.00  0.00    -0.274 OA
ATOM     12  C   UNL     1       0.673  -3.316  -1.477  0.00  0.00    +0.085 A 
ATOM     13  C   UNL     1       1.708  -4.161  -1.199  0.00  0.00    +0.149 A 
ATOM     14  C   UNL     1       2.768  -4.326  -2.204  0.00  0.00    +0.042 A 
ATOM     15  C   UNL     1       3.851  -5.179  -1.977  0.00  0.00    +0.013 A 
ATOM     16  C   UNL     1       4.821  -5.309  -2.931  0.00  0.00    +0.001 A 
ATOM     17  C   UNL     1       4.739  -4.602  -4.122  0.00  0.00    +0.002 A 
ATOM     18  C   UNL     1       3.679  -3.756  -4.366  0.00  0.00    +0.027 A 
ATOM     19  C   UNL     1       2.680  -3.609  -3.409  0.00  0.00    +0.061 A 
ATOM     20  N   UNL     1       1.605  -2.769  -3.625  0.00  0.00    -0.276 N 
ATOM     21  C   UNL     1       0.639  -2.627  -2.702  0.00  0.00    +0.265 A 
ATOM     22  O   UNL     1      -0.295  -1.878  -2.933  0.00  0.00    -0.267 OA
ATOM     23  O   UNL     1       1.771  -4.836  -0.035  0.00  0.00    -0.440 OA
ATOM     24  C   UNL     1       1.053  -4.425   1.026  0.00  0.00    +0.199 C 
ATOM     25  C   UNL     1      -0.014  -3.601   0.881  0.00  0.00    +0.110 C 
ENDROOT
BRANCH  20  26
ATOM     26  C   UNL     1       1.520  -2.055  -4.826  0.00  0.00    +0.050 A 
ATOM     27  C   UNL     1       0.865  -2.608  -5.919  0.00  0.00    +0.026 A 
ATOM     28  C   UNL     1       0.783  -1.901  -7.102  0.00  0.00    +0.002 A 
ATOM     29  C   UNL     1       1.351  -0.644  -7.199  0.00  0.00    +0.000 A 
ATOM     30  C   UNL     1       2.003  -0.090  -6.113  0.00  0.00    +0.002 A 
ATOM     31  C   UNL     1       2.084  -0.790  -4.925  0.00  0.00    +0.026 A 
ENDBRANCH  20  26
BRANCH  24  32
ATOM     32  N   UNL     1       1.408  -4.849   2.282  0.00  0.00    -0.328 N 
ATOM     33  H   UNL     1       2.170  -5.439   2.397  0.00  0.00    +0.145 HD
ATOM     34  H   UNL     1       0.897  -4.559   3.054  0.00  0.00    +0.145 HD
ENDBRANCH  24  32
BRANCH  25  35
ATOM     35  C   UNL     1      -0.752  -3.188   2.037  0.00  0.00    +0.102 C 
ATOM     36  N   UNL     1      -1.337  -2.861   2.954  0.00  0.00    -0.191 NA
ENDBRANCH  25  35
TORSDOF 3
