REMARK  Name = ZINC12616521
REMARK  8 active torsions:
REMARK  status: ('A' for Active; 'I' for Inactive)
REMARK    1  A    between atoms: C_1  and  C_2
REMARK    2  A    between atoms: N_5  and  C_11
REMARK    3  A    between atoms: C_7  and  C_10
REMARK    4  A    between atoms: C_11  and  N_12
REMARK    5  A    between atoms: N_15  and  C_32
REMARK    6  A    between atoms: C_16  and  C_18
REMARK    7  A    between atoms: C_22  and  S_24
REMARK    8  A    between atoms: S_24  and  N_27
REMARK                            x       y       z     vdW  Elec       q    Type
REMARK                         _______ _______ _______ _____ _____    ______ ____
ROOT
ATOM      1  N   UNL     1      -4.619   0.464   0.190  0.00  0.00    -0.225 N 
ATOM      2  C   UNL     1      -3.954  -0.654  -0.168  0.00  0.00    +0.184 A 
ATOM      3  S   UNL     1      -4.645  -2.197  -0.435  0.00  0.00    -0.011 S 
ATOM      4  N   UNL     1      -2.650  -0.335  -0.283  0.00  0.00    -0.271 N 
ATOM      5  C   UNL     1      -2.503   1.006   0.019  0.00  0.00    +0.167 A 
ATOM      6  N   UNL     1      -3.678   1.497   0.301  0.00  0.00    -0.149 NA
ENDROOT
BRANCH   5   7
ATOM      7  C   UNL     1      -1.230   1.758   0.017  0.00  0.00    +0.021 A 
ATOM      8  C   UNL     1      -0.013   1.076   0.008  0.00  0.00    +0.012 A 
ATOM      9  C   UNL     1       1.172   1.783   0.000  0.00  0.00    +0.003 A 
ATOM     10  C   UNL     1       1.155   3.167   0.008  0.00  0.00    +0.028 A 
ATOM     11  C   UNL     1      -0.048   3.849   0.023  0.00  0.00    +0.106 A 
ATOM     12  C   UNL     1      -1.240   3.153   0.030  0.00  0.00    +0.040 A 
BRANCH  11  13
ATOM     13  S   UNL     1      -0.059   5.611   0.032  0.00  0.00    +0.061 S 
ATOM     14  O   UNL     1      -1.302   6.007   0.596  0.00  0.00    -0.153 OA
ATOM     15  O   UNL     1       1.188   6.022   0.573  0.00  0.00    -0.153 OA
BRANCH  13  16
ATOM     16  N   UNL     1      -0.077   6.109  -1.548  0.00  0.00    -0.177 NA
ATOM     17  C   UNL     1       1.108   6.380  -2.374  0.00  0.00    +0.109 C 
ATOM     18  C   UNL     1       0.606   6.838  -3.760  0.00  0.00    +0.018 C 
ATOM     19  C   UNL     1      -0.827   7.350  -3.455  0.00  0.00    +0.018 C 
ATOM     20  C   UNL     1      -1.284   6.359  -2.356  0.00  0.00    +0.109 C 
ENDBRANCH  13  16
ENDBRANCH  11  13
ENDBRANCH   5   7
BRANCH   4  21
ATOM     21  C   UNL     1      -1.619  -1.213  -0.643  0.00  0.00    +0.050 A 
ATOM     22  C   UNL     1      -0.925  -1.021  -1.831  0.00  0.00    +0.026 A 
ATOM     23  C   UNL     1       0.094  -1.885  -2.180  0.00  0.00    +0.002 A 
ATOM     24  C   UNL     1       0.417  -2.946  -1.354  0.00  0.00    +0.000 A 
ATOM     25  C   UNL     1      -0.276  -3.143  -0.174  0.00  0.00    +0.002 A 
ATOM     26  C   UNL     1      -1.293  -2.279   0.184  0.00  0.00    +0.026 A 
ENDBRANCH   4  21
BRANCH   1  27
ATOM     27  C   UNL     1      -6.061   0.579   0.420  0.00  0.00    +0.233 C 
BRANCH  27  31
ATOM     28  C   UNL     1     -10.367   1.111  -1.903  0.00  0.00    +0.039 C 
ATOM     29  C   UNL     1      -8.845   1.143  -2.054  0.00  0.00    +0.130 C 
ATOM     30  C   UNL     1      -8.191   0.825  -0.707  0.00  0.00    +0.117 C 
ATOM     31  N   UNL     1      -6.731   0.932  -0.839  0.00  0.00    -0.279 NA
ATOM     32  C   UNL     1      -6.346   2.281  -1.280  0.00  0.00    +0.117 C 
ATOM     33  C   UNL     1      -7.018   2.585  -2.621  0.00  0.00    +0.130 C 
ATOM     34  O   UNL     1      -8.434   2.445  -2.481  0.00  0.00    -0.371 OA
ATOM     35  C   UNL     1      -6.510   1.605  -3.681  0.00  0.00    +0.039 C 
ENDBRANCH  27  31
ENDBRANCH   1  27
TORSDOF 6
