REMARK  Name = ZINC07826616
REMARK  5 active torsions:
REMARK  status: ('A' for Active; 'I' for Inactive)
REMARK    1  A    between atoms: C_1  and  N_2
REMARK    2  A    between atoms: C_3  and  C_5
REMARK    3  A    between atoms: C_16  and  C_18
REMARK    4  A    between atoms: C_19  and  C_20
REMARK    5  A    between atoms: C_23  and  C_26
REMARK                            x       y       z     vdW  Elec       q    Type
REMARK                         _______ _______ _______ _____ _____    ______ ____
ROOT
ATOM      1  C   UNL     1      -2.452   5.135  -0.405  0.00  0.00    +0.276 C 
ATOM      2  C   UNL     1      -1.343   5.912   0.321  0.00  0.00    +0.168 C 
ATOM      3  N   UNL     1      -0.064   5.245   0.022  0.00  0.00    -0.261 N 
ATOM      4  C   UNL     1      -0.040   3.841   0.039  0.00  0.00    +0.079 A 
ATOM      5  C   UNL     1       1.171   3.167   0.047  0.00  0.00    +0.027 A 
ATOM      6  C   UNL     1       1.190   1.785   0.061  0.00  0.00    +0.002 A 
ATOM      7  C   UNL     1       0.002   1.076   0.065  0.00  0.00    +0.004 A 
ATOM      8  C   UNL     1      -1.208   1.743   0.052  0.00  0.00    +0.047 A 
ATOM      9  C   UNL     1      -1.237   3.130   0.046  0.00  0.00    +0.143 A 
ATOM     10  O   UNL     1      -2.432   3.778   0.043  0.00  0.00    -0.476 OA
ATOM     11  C   UNL     1       1.044   5.958  -0.259  0.00  0.00    +0.244 C 
ATOM     12  O   UNL     1       2.106   5.389  -0.432  0.00  0.00    -0.270 OA
ENDROOT
BRANCH   1  15
ATOM     13  C   UNL     1      -5.367   7.607  -0.200  0.00  0.00    +0.128 C 
ATOM     14  N   UNL     1      -4.066   7.006  -0.504  0.00  0.00    -0.315 N 
ATOM     15  C   UNL     1      -3.790   5.753  -0.091  0.00  0.00    +0.255 C 
ATOM     16  O   UNL     1      -4.618   5.124   0.532  0.00  0.00    -0.272 OA
ATOM     17  H   UNL     1      -3.404   7.510  -1.003  0.00  0.00    +0.148 HD
ENDBRANCH   1  15
BRANCH  11  18
ATOM     18  C   UNL     1       0.971   7.417  -0.357  0.00  0.00    +0.068 C 
ATOM     19  C   UNL     1       2.055   8.123  -0.739  0.00  0.00    +0.013 C 
BRANCH  19  20
ATOM     20  C   UNL     1       1.981   9.589  -0.837  0.00  0.00    -0.025 A 
ATOM     21  C   UNL     1       0.787  10.255  -0.540  0.00  0.00    +0.008 A 
ATOM     22  C   UNL     1       0.728  11.629  -0.629  0.00  0.00    +0.013 A 
ATOM     23  C   UNL     1       1.843  12.350  -1.022  0.00  0.00    +0.055 A 
ATOM     24  C   UNL     1       3.026  11.698  -1.323  0.00  0.00    +0.013 A 
ATOM     25  C   UNL     1       3.103  10.325  -1.233  0.00  0.00    +0.008 A 
BRANCH  23  26
ATOM     26  C   UNL     1       1.767  13.851  -1.123  0.00  0.00    +0.417 C 
ATOM     27  F   UNL     1       1.367  14.213  -2.414  0.00  0.00    -0.166 F 
ATOM     28  F   UNL     1       0.839  14.335  -0.194  0.00  0.00    -0.166 F 
ATOM     29  F   UNL     1       3.025  14.401  -0.854  0.00  0.00    -0.166 F 
ENDBRANCH  23  26
ENDBRANCH  19  20
ENDBRANCH  11  18
TORSDOF 4
