REMARK  Name = ZINC57539116
REMARK  8 active torsions:
REMARK  status: ('A' for Active; 'I' for Inactive)
REMARK    1  A    between atoms: C_1  and  C_2
REMARK    2  A    between atoms: C_5  and  S_8
REMARK    3  A    between atoms: S_8  and  N_11
REMARK    4  A    between atoms: N_11  and  C_12
REMARK    5  A    between atoms: N_11  and  C_13
REMARK    6  A    between atoms: C_13  and  C_14
REMARK    7  A    between atoms: C_13  and  C_15
REMARK    8  A    between atoms: C_13  and  C_16
REMARK                            x       y       z     vdW  Elec       q    Type
REMARK                         _______ _______ _______ _____ _____    ______ ____
ROOT
ATOM      1  S   UNL     1       0.224  -4.147   0.011  0.00  0.00    +0.062 S 
ATOM      2  O   UNL     1      -0.158  -4.365   1.362  0.00  0.00    -0.153 OA
ATOM      3  O   UNL     1      -0.547  -4.620  -1.084  0.00  0.00    -0.153 OA
ENDROOT
BRANCH   1   8
ATOM      4  C   UNL     1       0.729   1.825  -0.690  0.00  0.00    +0.044 C 
ATOM      5  C   UNL     1       0.603   0.333  -0.515  0.00  0.00    -0.050 A 
ATOM      6  C   UNL     1       0.149  -0.449  -1.560  0.00  0.00    +0.005 A 
ATOM      7  C   UNL     1       0.034  -1.817  -1.399  0.00  0.00    +0.029 A 
ATOM      8  C   UNL     1       0.373  -2.403  -0.194  0.00  0.00    +0.106 A 
ATOM      9  C   UNL     1       0.828  -1.620   0.851  0.00  0.00    +0.029 A 
ATOM     10  C   UNL     1       0.947  -0.253   0.689  0.00  0.00    +0.005 A 
ENDBRANCH   1   8
BRANCH   1  11
ATOM     11  N   UNL     1       1.740  -4.791  -0.163  0.00  0.00    -0.160 NA
ATOM     12  C   UNL     1       2.563  -5.057   1.020  0.00  0.00    +0.133 C 
BRANCH  11  13
ATOM     13  C   UNL     1       2.258  -5.095  -1.499  0.00  0.00    +0.123 C 
ATOM     14  C   UNL     1       2.436  -6.607  -1.645  0.00  0.00    +0.045 C 
ATOM     15  C   UNL     1       1.270  -4.593  -2.555  0.00  0.00    +0.045 C 
BRANCH  13  16
ATOM     16  C   UNL     1       3.557  -4.427  -1.685  0.00  0.00    +0.086 C 
ATOM     17  N   UNL     1       4.559  -3.912  -1.829  0.00  0.00    -0.195 NA
ENDBRANCH  13  16
ENDBRANCH  11  13
ENDBRANCH   1  11
TORSDOF 4
