REMARK  Name = ZINC13234817
REMARK  11 active torsions:
REMARK  status: ('A' for Active; 'I' for Inactive)
REMARK    1  A    between atoms: C_1  and  C_2
REMARK    2  A    between atoms: C_2  and  C_3
REMARK    3  A    between atoms: C_2  and  C_4
REMARK    4  A    between atoms: C_4  and  C_6
REMARK    5  A    between atoms: C_4  and  N_8
REMARK    6  A    between atoms: C_9  and  C_26
REMARK    7  A    between atoms: C_12  and  S_13
REMARK    8  A    between atoms: S_13  and  C_14
REMARK    9  A    between atoms: C_14  and  C_15
REMARK   10  A    between atoms: N_17  and  C_18
REMARK   11  A    between atoms: C_21  and  C_24
REMARK                            x       y       z     vdW  Elec       q    Type
REMARK                         _______ _______ _______ _____ _____    ______ ____
ROOT
ATOM      1  N   UNL     1       1.350   1.600   3.003  0.00  0.00    -0.287 N 
ATOM      2  C   UNL     1       2.494   0.844   2.886  0.00  0.00    +0.172 A 
ATOM      3  N   UNL     1       3.490   1.680   2.687  0.00  0.00    -0.128 NA
ATOM      4  N   UNL     1       3.053   2.888   2.680  0.00  0.00    -0.122 NA
ATOM      5  C   UNL     1       1.753   2.900   2.868  0.00  0.00    +0.193 A 
ENDROOT
BRANCH   2   6
ATOM      6  C   UNL     1       2.586  -0.623   2.965  0.00  0.00    +0.056 A 
ATOM      7  C   UNL     1       3.617  -1.447   2.590  0.00  0.00    +0.019 A 
ATOM      8  C   UNL     1       3.473  -2.805   2.761  0.00  0.00    +0.008 A 
ATOM      9  C   UNL     1       2.321  -3.288   3.294  0.00  0.00    +0.046 A 
ATOM     10  S   UNL     1       1.387  -1.794   3.582  0.00  0.00    -0.094 S 
ENDBRANCH   2   6
BRANCH   1  11
ATOM     11  C   UNL     1      -0.014   1.115   3.230  0.00  0.00    +0.206 C 
BRANCH  11  13
ATOM     12  C   UNL     1      -0.373   0.970   0.762  0.00  0.00    +0.010 C 
ATOM     13  C   UNL     1      -0.911   1.553   2.070  0.00  0.00    +0.017 C 
ATOM     14  C   UNL     1      -2.335   1.046   2.308  0.00  0.00    +0.010 C 
ENDBRANCH  11  13
BRANCH  11  15
ATOM     15  C   UNL     1      -0.543   1.689   4.519  0.00  0.00    +0.379 C 
ATOM     16  O   UNL     1      -1.536   2.377   4.511  0.00  0.00    -0.244 OA
ATOM     17  O   UNL     1       0.089   1.435   5.676  0.00  0.00    -0.244 OA
ENDBRANCH  11  15
ENDBRANCH   1  11
BRANCH   5  18
ATOM     18  S   UNL     1       0.720   4.326   2.934  0.00  0.00    -0.077 S 
BRANCH  18  19
ATOM     19  C   UNL     1       1.957   5.622   2.679  0.00  0.00    +0.173 C 
BRANCH  19  20
ATOM     20  C   UNL     1       1.284   6.970   2.697  0.00  0.00    +0.227 C 
ATOM     21  O   UNL     1       0.085   7.047   2.867  0.00  0.00    -0.275 OA
ATOM     22  N   UNL     1       2.013   8.091   2.526  0.00  0.00    -0.285 N 
ATOM     23  H   UNL     1       2.980   8.036   2.467  0.00  0.00    +0.155 HD
BRANCH  22  24
ATOM     24  C   UNL     1       1.379   9.328   2.433  0.00  0.00    +0.033 A 
ATOM     25  C   UNL     1       0.127   9.423   1.832  0.00  0.00    +0.024 A 
ATOM     26  C   UNL     1      -0.504  10.643   1.743  0.00  0.00    +0.017 A 
ATOM     27  C   UNL     1       0.117  11.789   2.248  0.00  0.00    +0.063 A 
ATOM     28  C   UNL     1       1.377  11.691   2.847  0.00  0.00    +0.017 A 
ATOM     29  C   UNL     1       2.000  10.467   2.937  0.00  0.00    +0.024 A 
BRANCH  27  30
ATOM     30  C   UNL     1      -0.554  13.098   2.150  0.00  0.00    +0.387 C 
ATOM     31  O   UNL     1      -0.013  14.093   2.589  0.00  0.00    -0.241 OA
ATOM     32  O   UNL     1      -1.768  13.191   1.572  0.00  0.00    -0.241 OA
ENDBRANCH  27  30
ENDBRANCH  22  24
ENDBRANCH  19  20
ENDBRANCH  18  19
ENDBRANCH   5  18
TORSDOF 9
