REMARK  Name = ZINC36614602
REMARK  5 active torsions:
REMARK  status: ('A' for Active; 'I' for Inactive)
REMARK    1  A    between atoms: C_1  and  C_2
REMARK    2  A    between atoms: C_4  and  N_12
REMARK    3  A    between atoms: N_15  and  S_18
REMARK    4  A    between atoms: S_18  and  C_21
REMARK    5  A    between atoms: C_24  and  N_27
REMARK                            x       y       z     vdW  Elec       q    Type
REMARK                         _______ _______ _______ _____ _____    ______ ____
ROOT
ATOM      1  N   UNL     1       0.025  -2.747  -2.382  0.00  0.00    -0.314 N 
ATOM      2  C   UNL     1      -0.100  -2.046  -3.668  0.00  0.00    +0.123 C 
ATOM      3  C   UNL     1       1.092  -2.430  -4.553  0.00  0.00    +0.128 C 
ATOM      4  N   UNL     1       1.223  -3.894  -4.555  0.00  0.00    -0.174 NA
ATOM      5  C   UNL     1       1.348  -4.595  -3.269  0.00  0.00    +0.128 C 
ATOM      6  C   UNL     1       0.161  -4.211  -2.384  0.00  0.00    +0.123 C 
ENDROOT
BRANCH   1  10
ATOM      7  C   UNL     1      -0.011  -2.798   2.520  0.00  0.00    +0.044 C 
ATOM      8  C   UNL     1       0.002  -2.064   1.204  0.00  0.00    -0.038 A 
ATOM      9  C   UNL     1       0.008  -2.745   0.024  0.00  0.00    +0.045 A 
ATOM     10  C   UNL     1       0.019  -2.041  -1.189  0.00  0.00    +0.099 A 
ATOM     11  N   UNL     1       0.025  -0.724  -1.221  0.00  0.00    -0.343 N 
ATOM     12  C   UNL     1       0.020  -0.002  -0.095  0.00  0.00    +0.048 A 
ATOM     13  C   UNL     1       0.002  -0.655   1.162  0.00  0.00    +0.001 A 
ATOM     14  C   UNL     1      -0.009   0.109   2.340  0.00  0.00    +0.010 A 
ATOM     15  C   UNL     1      -0.008   1.469   2.261  0.00  0.00    +0.001 A 
ATOM     16  C   UNL     1       0.003   2.113   1.026  0.00  0.00    +0.002 A 
ATOM     17  C   UNL     1       0.026   1.403  -0.136  0.00  0.00    +0.026 A 
ATOM     18  H   UNL     1       0.033  -0.269  -2.078  0.00  0.00    +0.167 HD
ENDBRANCH   1  10
BRANCH   4  19
ATOM     19  S   UNL     1       1.230  -4.738  -5.980  0.00  0.00    +0.061 S 
ATOM     20  O   UNL     1       0.810  -6.059  -5.671  0.00  0.00    -0.153 OA
ATOM     21  O   UNL     1       0.558  -3.928  -6.934  0.00  0.00    -0.153 OA
BRANCH  19  22
ATOM     22  C   UNL     1       2.907  -4.853  -6.509  0.00  0.00    +0.106 A 
ATOM     23  C   UNL     1       3.444  -3.870  -7.319  0.00  0.00    +0.030 A 
ATOM     24  C   UNL     1       4.758  -3.958  -7.736  0.00  0.00    +0.025 A 
ATOM     25  C   UNL     1       5.540  -5.034  -7.339  0.00  0.00    +0.036 A 
ATOM     26  C   UNL     1       4.998  -6.020  -6.525  0.00  0.00    +0.025 A 
ATOM     27  C   UNL     1       3.685  -5.924  -6.108  0.00  0.00    +0.030 A 
BRANCH  25  28
ATOM     28  N   UNL     1       6.871  -5.126  -7.760  0.00  0.00    -0.271 N 
ATOM     29  C   UNL     1       7.742  -6.280  -7.505  0.00  0.00    +0.114 C 
ATOM     30  C   UNL     1       8.920  -6.134  -8.495  0.00  0.00    +0.029 C 
ATOM     31  C   UNL     1       8.935  -4.607  -8.743  0.00  0.00    +0.098 C 
ATOM     32  C   UNL     1       7.515  -4.172  -8.453  0.00  0.00    +0.220 C 
ATOM     33  O   UNL     1       7.030  -3.114  -8.795  0.00  0.00    -0.275 OA
ENDBRANCH  25  28
ENDBRANCH  19  22
ENDBRANCH   4  19
TORSDOF 4
