REMARK  Name = ZINC12321643
REMARK  2 active torsions:
REMARK  status: ('A' for Active; 'I' for Inactive)
REMARK    1  A    between atoms: C_1  and  N_2
REMARK    2  A    between atoms: C_18  and  C_20
REMARK                            x       y       z     vdW  Elec       q    Type
REMARK                         _______ _______ _______ _____ _____    ______ ____
ROOT
ATOM      1  C   UNL     1       0.189   2.492   0.339  0.00  0.00    +0.155 C 
ATOM      2  N   UNL     1      -0.776   2.730  -0.737  0.00  0.00    -0.283 N 
ATOM      3  C   UNL     1      -1.128   3.993  -1.040  0.00  0.00    +0.264 A 
ATOM      4  O   UNL     1      -0.651   4.932  -0.426  0.00  0.00    -0.267 OA
ATOM      5  C   UNL     1      -2.071   4.218  -2.093  0.00  0.00    +0.076 A 
ATOM      6  C   UNL     1      -2.592   5.494  -2.586  0.00  0.00    -0.023 A 
ATOM      7  C   UNL     1      -3.480   5.442  -3.599  0.00  0.00    -0.004 A 
ATOM      8  S   UNL     1      -3.675   3.715  -3.952  0.00  0.00    -0.073 S 
ATOM      9  C   UNL     1      -2.558   3.067  -2.734  0.00  0.00    +0.117 A 
ATOM     10  N   UNL     1      -2.164   1.846  -2.389  0.00  0.00    -0.208 NA
ATOM     11  C   UNL     1      -1.299   1.667  -1.413  0.00  0.00    +0.202 A 
ATOM     12  N   UNL     1      -0.914   0.394  -1.075  0.00  0.00    -0.298 N 
ATOM     13  C   UNL     1      -0.201  -0.253  -2.184  0.00  0.00    +0.127 C 
ATOM     14  C   UNL     1       0.368  -1.594  -1.709  0.00  0.00    +0.127 C 
ATOM     15  N   UNL     1      -0.728  -2.386  -1.129  0.00  0.00    -0.294 N 
ATOM     16  C   UNL     1      -1.576  -1.756  -0.106  0.00  0.00    +0.127 C 
ATOM     17  C   UNL     1      -2.067  -0.408  -0.644  0.00  0.00    +0.127 C 
ATOM     18  C   UNL     1      -0.948  -3.656  -1.524  0.00  0.00    +0.248 C 
ATOM     19  O   UNL     1      -1.907  -4.268  -1.095  0.00  0.00    -0.270 OA
ATOM     20  C   UNL     1      -4.155   6.596  -4.276  0.00  0.00    +0.043 C 
ATOM     21  C   UNL     1      -3.970   7.845  -3.402  0.00  0.00    +0.005 C 
ATOM     22  C   UNL     1      -2.498   7.944  -2.992  0.00  0.00    +0.005 C 
ATOM     23  C   UNL     1      -2.161   6.834  -1.996  0.00  0.00    +0.037 C 
ENDROOT
BRANCH  18  24
ATOM     24  C   UNL     1      -0.024  -4.303  -2.477  0.00  0.00    +0.055 A 
ATOM     25  C   UNL     1       1.320  -3.926  -2.518  0.00  0.00    +0.016 A 
ATOM     26  C   UNL     1       2.177  -4.534  -3.410  0.00  0.00    +0.021 A 
ATOM     27  C   UNL     1       1.708  -5.518  -4.266  0.00  0.00    +0.042 A 
ATOM     28  C   UNL     1       0.378  -5.898  -4.231  0.00  0.00    +0.040 A 
ATOM     29  C   UNL     1      -0.490  -5.300  -3.339  0.00  0.00    +0.054 A 
ATOM     30 CL   UNL     1      -2.158  -5.781  -3.291  0.00  0.00    -0.083 Cl
ATOM     31 CL   UNL     1       2.795  -6.279  -5.386  0.00  0.00    -0.083 Cl
ENDBRANCH  18  24
TORSDOF 1
