REMARK  Name = ZINC47229926
REMARK  5 active torsions:
REMARK  status: ('A' for Active; 'I' for Inactive)
REMARK    1  A    between atoms: C_1  and  C_2
REMARK    2  A    between atoms: C_3  and  C_9
REMARK    3  A    between atoms: N_5  and  C_7
REMARK    4  A    between atoms: N_11  and  C_12
REMARK    5  A    between atoms: C_19  and  C_21
REMARK                            x       y       z     vdW  Elec       q    Type
REMARK                         _______ _______ _______ _____ _____    ______ ____
ROOT
ATOM      1  C   UNL     1      -1.246   0.330  -4.483  0.00  0.00    +0.036 A 
ATOM      2  C   UNL     1      -0.073   0.563  -5.199  0.00  0.00    +0.025 A 
ATOM      3  C   UNL     1      -0.121   1.063  -6.468  0.00  0.00    +0.032 A 
ATOM      4  C   UNL     1      -1.356   1.347  -7.061  0.00  0.00    +0.090 A 
ATOM      5  C   UNL     1      -2.542   1.113  -6.341  0.00  0.00    +0.068 A 
ATOM      6  C   UNL     1      -2.479   0.599  -5.054  0.00  0.00    +0.051 A 
ATOM      7  N   UNL     1      -3.579   1.483  -7.175  0.00  0.00    -0.338 N 
ATOM      8  C   UNL     1      -3.020   1.921  -8.347  0.00  0.00    +0.142 A 
ATOM      9  N   UNL     1      -1.715   1.838  -8.274  0.00  0.00    -0.228 NA
ATOM     10  H   UNL     1      -4.526   1.441  -6.969  0.00  0.00    +0.167 HD
ENDROOT
BRANCH   8  11
ATOM     11  C   UNL     1      -3.777   2.412  -9.518  0.00  0.00    +0.055 A 
ATOM     12  C   UNL     1      -5.171   2.461  -9.482  0.00  0.00    +0.052 A 
ATOM     13  C   UNL     1      -5.872   2.921 -10.580  0.00  0.00    +0.124 A 
ATOM     14  C   UNL     1      -5.193   3.333 -11.716  0.00  0.00    +0.041 A 
ATOM     15  C   UNL     1      -3.812   3.287 -11.759  0.00  0.00    +0.042 A 
ATOM     16  C   UNL     1      -3.099   2.834 -10.665  0.00  0.00    +0.134 A 
ATOM     17  F   UNL     1      -1.749   2.795 -10.706  0.00  0.00    -0.205 F 
ATOM     18  F   UNL     1      -7.221   2.970 -10.546  0.00  0.00    -0.205 F 
ENDBRANCH   8  11
BRANCH   1  21
ATOM     19  C   UNL     1      -0.169   0.180  -2.367  0.00  0.00    +0.253 C 
ATOM     20  O   UNL     1       0.726   0.888  -2.785  0.00  0.00    -0.270 OA
ATOM     21  N   UNL     1      -1.178  -0.184  -3.184  0.00  0.00    -0.281 N 
ATOM     22  H   UNL     1      -1.856  -0.803  -2.870  0.00  0.00    +0.155 HD
BRANCH  19  25
ATOM     23  C   UNL     1      -1.472   1.691   0.101  0.00  0.00    +0.068 C 
ATOM     24  C   UNL     1      -0.728   0.381   0.141  0.00  0.00    +0.074 A 
ATOM     25  C   UNL     1      -0.152  -0.280  -0.968  0.00  0.00    +0.096 A 
ATOM     26  C   UNL     1       0.430  -1.441  -0.492  0.00  0.00    +0.139 A 
ATOM     27  N   UNL     1       0.218  -1.481   0.834  0.00  0.00    -0.255 N 
ATOM     28  N   UNL     1      -0.497  -0.337   1.204  0.00  0.00    -0.175 NA
ATOM     29  C   UNL     1       0.667  -2.541   1.741  0.00  0.00    +0.174 C 
ATOM     30 CL   UNL     1       1.277  -2.628  -1.434  0.00  0.00    -0.062 Cl
ENDBRANCH  19  25
ENDBRANCH   1  21
TORSDOF 3
