REMARK  Name = ZINC10609639
REMARK  4 active torsions:
REMARK  status: ('A' for Active; 'I' for Inactive)
REMARK    1  A    between atoms: C_1  and  C_2
REMARK    2  A    between atoms: C_9  and  C_28
REMARK    3  A    between atoms: C_10  and  N_13
REMARK    4  A    between atoms: C_14  and  C_16
REMARK                            x       y       z     vdW  Elec       q    Type
REMARK                         _______ _______ _______ _____ _____    ______ ____
ROOT
ATOM      1  N   UNL     1       1.234  -4.944  -0.034  0.00  0.00    -0.276 N 
ATOM      2  C   UNL     1       0.574  -4.271   0.929  0.00  0.00    +0.255 C 
ATOM      3  O   UNL     1      -0.025  -4.880   1.795  0.00  0.00    -0.270 OA
ATOM      4  H   UNL     1       1.654  -4.460  -0.762  0.00  0.00    +0.155 HD
ENDROOT
BRANCH   1  14
ATOM      5  C   UNL     1       2.979 -11.099   0.241  0.00  0.00    +0.047 C 
ATOM      6  C   UNL     1       1.621 -10.449   0.170  0.00  0.00    -0.008 A 
ATOM      7  C   UNL     1       0.494 -11.214   0.157  0.00  0.00    +0.008 A 
ATOM      8  C   UNL     1      -0.763 -10.595   0.091  0.00  0.00    +0.019 A 
ATOM      9  C   UNL     1      -0.855  -9.248   0.041  0.00  0.00    +0.096 A 
ATOM     10  N   UNL     1       0.266  -8.473   0.054  0.00  0.00    -0.266 N 
ATOM     11  C   UNL     1       1.506  -9.047   0.117  0.00  0.00    +0.143 A 
ATOM     12  N   UNL     1       2.607  -8.300   0.131  0.00  0.00    -0.232 NA
ATOM     13  C   UNL     1       2.545  -6.978   0.077  0.00  0.00    +0.067 A 
ATOM     14  C   UNL     1       1.315  -6.344   0.017  0.00  0.00    +0.121 A 
ATOM     15  C   UNL     1       0.149  -7.128   0.003  0.00  0.00    +0.280 A 
ATOM     16  O   UNL     1      -0.952  -6.603  -0.054  0.00  0.00    -0.265 OA
ATOM     17  C   UNL     1       3.813  -6.163   0.088  0.00  0.00    +0.068 C 
ENDBRANCH   1  14
BRANCH   2  18
ATOM     18  C   UNL     1       0.577  -2.798   0.933  0.00  0.00    +0.122 A 
ATOM     19  C   UNL     1       1.255  -2.093  -0.046  0.00  0.00    +0.031 A 
ATOM     20  C   UNL     1       1.231  -0.675  -0.003  0.00  0.00    +0.019 A 
ATOM     21  C   UNL     1       1.907   0.071  -0.980  0.00  0.00    +0.026 A 
ATOM     22  C   UNL     1       1.881   1.435  -0.933  0.00  0.00    +0.019 A 
ATOM     23  C   UNL     1       1.190   2.091   0.077  0.00  0.00    +0.019 A 
ATOM     24  C   UNL     1       0.518   1.378   1.047  0.00  0.00    +0.048 A 
ATOM     25  C   UNL     1       0.530  -0.013   1.020  0.00  0.00    +0.139 A 
ATOM     26  O   UNL     1      -0.129  -0.709   1.971  0.00  0.00    -0.422 OA
ATOM     27  C   UNL     1      -0.138  -2.053   1.976  0.00  0.00    +0.350 A 
ATOM     28  O   UNL     1      -0.741  -2.653   2.846  0.00  0.00    -0.244 OA
ATOM     29 BR   UNL     1       2.794   2.439  -2.251  0.00  0.00    -0.050 Br
ENDBRANCH   2  18
TORSDOF 2
