REMARK  Name = ZINC34758893
REMARK  11 active torsions:
REMARK  status: ('A' for Active; 'I' for Inactive)
REMARK    1  A    between atoms: C_1  and  C_2
REMARK    2  A    between atoms: C_2  and  N_3
REMARK    3  A    between atoms: N_3  and  C_4
REMARK    4  A    between atoms: C_4  and  C_5
REMARK    5  A    between atoms: C_6  and  C_8
REMARK    6  A    between atoms: C_8  and  N_9
REMARK    7  A    between atoms: C_17  and  C_34
REMARK    8  A    between atoms: C_18  and  C_33
REMARK    9  A    between atoms: C_22  and  S_24
REMARK   10  A    between atoms: S_24  and  C_25
REMARK   11  A    between atoms: C_25  and  C_26
REMARK                            x       y       z     vdW  Elec       q    Type
REMARK                         _______ _______ _______ _____ _____    ______ ____
ROOT
ATOM      1  N   UNL     1      -0.952  -0.677  -4.352  0.00  0.00    +0.387 N 
ATOM      2  C   UNL     1      -1.898   0.352  -4.801  0.00  0.00    -0.059 C 
ATOM      3  C   UNL     1      -2.695  -0.175  -5.998  0.00  0.00    +0.088 C 
ATOM      4  N   UNL     1      -1.746  -0.619  -7.031  0.00  0.00    -0.318 N 
ATOM      5  C   UNL     1      -0.661  -1.528  -6.631  0.00  0.00    +0.088 C 
ATOM      6  C   UNL     1       0.040  -0.937  -5.404  0.00  0.00    -0.059 C 
ATOM      7  C   UNL     1      -1.871  -0.194  -8.341  0.00  0.00    +0.134 A 
ATOM      8  C   UNL     1      -2.770  -0.851  -9.228  0.00  0.00    +0.051 A 
ATOM      9  C   UNL     1      -3.652  -1.980  -8.985  0.00  0.00    -0.028 A 
ATOM     10  C   UNL     1      -4.420  -2.437  -9.984  0.00  0.00    -0.008 A 
ATOM     11  S   UNL     1      -4.009  -1.366 -11.349  0.00  0.00    -0.073 S 
ATOM     12  C   UNL     1      -2.816  -0.334 -10.540  0.00  0.00    +0.115 A 
ATOM     13  N   UNL     1      -2.069   0.691 -10.904  0.00  0.00    -0.215 NA
ATOM     14  C   UNL     1      -1.249   1.264 -10.034  0.00  0.00    +0.191 A 
ATOM     15  N   UNL     1      -1.161   0.831  -8.781  0.00  0.00    -0.206 NA
ATOM     16  C   UNL     1      -5.398  -3.583  -9.959  0.00  0.00    +0.052 C 
ATOM     17  C   UNL     1      -3.702  -2.630  -7.627  0.00  0.00    +0.045 C 
ATOM     18  H   UNL     1      -1.455  -1.528  -4.149  0.00  0.00    -0.081 HD
ENDROOT
BRANCH   1  19
ATOM     19  C   UNL     1      -0.266  -0.214  -3.139  0.00  0.00    +0.019 C 
BRANCH  19  21
ATOM     20  N   UNL     1      -0.863   0.351  -0.806  0.00  0.00    -0.304 N 
ATOM     21  C   UNL     1      -1.267  -0.065  -2.022  0.00  0.00    +0.199 C 
ATOM     22  O   UNL     1      -2.437  -0.319  -2.218  0.00  0.00    -0.278 OA
BRANCH  20  24
ATOM     23  C   UNL     1      -2.407   1.915   0.266  0.00  0.00    +0.024 C 
ATOM     24  C   UNL     1      -1.836   0.496   0.280  0.00  0.00    +0.104 C 
ENDBRANCH  20  24
BRANCH  20  25
ATOM     25  C   UNL     1       0.550   0.658  -0.569  0.00  0.00    +0.104 C 
ATOM     26  C   UNL     1       1.274  -0.604  -0.095  0.00  0.00    +0.024 C 
ENDBRANCH  20  25
ENDBRANCH  19  21
ENDBRANCH   1  19
BRANCH  14  27
ATOM     27  S   UNL     1      -0.263   2.631 -10.547  0.00  0.00    -0.081 S 
BRANCH  27  28
ATOM     28  C   UNL     1      -0.712   2.868 -12.288  0.00  0.00    +0.114 C 
BRANCH  28  29
ATOM     29  C   UNL     1       0.070   4.023 -12.856  0.00  0.00    -0.019 A 
ATOM     30  C   UNL     1      -0.440   5.306 -12.785  0.00  0.00    +0.006 A 
ATOM     31  C   UNL     1       0.278   6.366 -13.306  0.00  0.00    +0.000 A 
ATOM     32  C   UNL     1       1.507   6.144 -13.899  0.00  0.00    +0.001 A 
ATOM     33  C   UNL     1       2.018   4.862 -13.971  0.00  0.00    +0.020 A 
ATOM     34  C   UNL     1       1.303   3.802 -13.445  0.00  0.00    +0.045 A 
ATOM     35 CL   UNL     1       1.948   2.192 -13.529  0.00  0.00    -0.083 Cl
ENDBRANCH  28  29
ENDBRANCH  27  28
ENDBRANCH  14  27
TORSDOF 7
