REMARK  Name = ZINC50585706
REMARK  4 active torsions:
REMARK  status: ('A' for Active; 'I' for Inactive)
REMARK    1  A    between atoms: C_1  and  C_2
REMARK    2  A    between atoms: C_4  and  C_19
REMARK    3  A    between atoms: N_5  and  C_7
REMARK    4  A    between atoms: C_16  and  N_17
REMARK                            x       y       z     vdW  Elec       q    Type
REMARK                         _______ _______ _______ _____ _____    ______ ____
ROOT
ATOM      1  C   UNL     1      -0.019  -3.297   1.503  0.00  0.00    +0.097 A 
ATOM      2  C   UNL     1      -0.167  -3.201   2.904  0.00  0.00    +0.029 A 
ATOM      3  C   UNL     1      -0.366  -1.963   3.533  0.00  0.00    +0.027 A 
ATOM      4  C   UNL     1      -0.506  -1.909   4.887  0.00  0.00    +0.019 A 
ATOM      5  C   UNL     1      -0.454  -3.071   5.656  0.00  0.00    +0.017 A 
ATOM      6  C   UNL     1      -0.262  -4.288   5.078  0.00  0.00    +0.029 A 
ATOM      7  C   UNL     1      -0.114  -4.383   3.683  0.00  0.00    +0.073 A 
ATOM      8  N   UNL     1       0.074  -5.567   3.091  0.00  0.00    -0.253 NA
ATOM      9  C   UNL     1       0.213  -5.675   1.792  0.00  0.00    +0.136 A 
ATOM     10  C   UNL     1       0.168  -4.559   0.954  0.00  0.00    +0.069 A 
ATOM     11 BR   UNL     1      -0.773  -0.240   5.734  0.00  0.00    -0.050 Br
ENDROOT
BRANCH   1  16
ATOM     12  C   UNL     1       1.051   1.170  -0.360  0.00  0.00    +0.069 C 
ATOM     13  C   UNL     1       0.418  -0.177  -0.124  0.00  0.00    +0.079 A 
ATOM     14  C   UNL     1      -0.635  -0.728  -0.863  0.00  0.00    +0.085 A 
ATOM     15  C   UNL     1      -0.916  -1.946  -0.344  0.00  0.00    +0.061 A 
ATOM     16  N   UNL     1      -0.064  -2.158   0.693  0.00  0.00    -0.233 N 
ATOM     17  N   UNL     1       0.764  -1.034   0.804  0.00  0.00    -0.170 NA
ATOM     18  C   UNL     1      -1.982  -2.896  -0.829  0.00  0.00    +0.067 C 
ATOM     19 CL   UNL     1      -1.439   0.019  -2.208  0.00  0.00    -0.080 Cl
ENDBRANCH   1  16
BRANCH  10  20
ATOM     20  N   UNL     1       0.314  -4.711  -0.429  0.00  0.00    -0.355 N 
ATOM     21  H   UNL     1       0.385  -3.928  -0.998  0.00  0.00    +0.142 HD
ATOM     22  H   UNL     1       0.345  -5.598  -0.819  0.00  0.00    +0.142 HD
ENDBRANCH  10  20
TORSDOF 2
