REMARK  Name = ZINC03357177
REMARK  4 active torsions:
REMARK  status: ('A' for Active; 'I' for Inactive)
REMARK    1  A    between atoms: C_3  and  C_20
REMARK    2  A    between atoms: C_5  and  C_11
REMARK    3  A    between atoms: N_22  and  C_23
REMARK    4  A    between atoms: C_28  and  C_29
REMARK                            x       y       z     vdW  Elec       q    Type
REMARK                         _______ _______ _______ _____ _____    ______ ____
ROOT
ATOM      1  C   UNL     1      -4.421  -1.847   0.970  0.00  0.00    +0.029 C 
ATOM      2  C   UNL     1      -3.325  -2.578   1.026  0.00  0.00    +0.019 C 
ATOM      3  C   UNL     1      -2.477  -2.828  -0.206  0.00  0.00    +0.143 C 
ATOM      4  C   UNL     1      -2.190  -4.334  -0.271  0.00  0.00    +0.122 C 
ATOM      5  N   UNL     1      -1.701  -4.794   1.028  0.00  0.00    -0.291 N 
ATOM      6  C   UNL     1      -2.087  -4.232   2.181  0.00  0.00    +0.304 C 
ATOM      7  O   UNL     1      -1.694  -4.713   3.227  0.00  0.00    -0.253 OA
ATOM      8  N   UNL     1      -2.893  -3.155   2.225  0.00  0.00    -0.273 N 
ATOM      9  H   UNL     1      -1.074  -5.533   1.056  0.00  0.00    +0.151 HD
ATOM     10  H   UNL     1      -3.172  -2.784   3.078  0.00  0.00    +0.156 HD
ENDROOT
BRANCH   4  11
ATOM     11  C   UNL     1      -3.457  -5.072  -0.621  0.00  0.00    -0.022 A 
ATOM     12  C   UNL     1      -4.398  -5.329   0.358  0.00  0.00    +0.009 A 
ATOM     13  C   UNL     1      -5.562  -6.005   0.042  0.00  0.00    +0.050 A 
ATOM     14  C   UNL     1      -5.787  -6.428  -1.259  0.00  0.00    +0.166 A 
ATOM     15  C   UNL     1      -4.838  -6.170  -2.245  0.00  0.00    +0.167 A 
ATOM     16  C   UNL     1      -3.676  -5.486  -1.922  0.00  0.00    +0.055 A 
ATOM     17  O   UNL     1      -5.288  -6.680  -3.428  0.00  0.00    -0.453 OA
ATOM     18  C   UNL     1      -6.700  -6.892  -3.243  0.00  0.00    +0.466 C 
ATOM     19  O   UNL     1      -6.831  -7.100  -1.824  0.00  0.00    -0.453 OA
ENDBRANCH   4  11
BRANCH   3  20
ATOM     20  C   UNL     1      -1.183  -2.065  -0.100  0.00  0.00    +0.228 C 
ATOM     21  O   UNL     1      -0.125  -2.659  -0.113  0.00  0.00    -0.275 OA
ATOM     22  N   UNL     1      -1.199  -0.722   0.009  0.00  0.00    -0.284 N 
ATOM     23  H   UNL     1      -2.044  -0.252   0.085  0.00  0.00    +0.155 HD
BRANCH  22  24
ATOM     24  C   UNL     1       0.003  -0.005   0.013  0.00  0.00    +0.045 A 
ATOM     25  C   UNL     1       1.135  -0.548   0.605  0.00  0.00    +0.024 A 
ATOM     26  C   UNL     1       2.320   0.161   0.606  0.00  0.00    +0.002 A 
ATOM     27  C   UNL     1       2.379   1.412   0.019  0.00  0.00    +0.001 A 
ATOM     28  C   UNL     1       1.254   1.956  -0.572  0.00  0.00    +0.014 A 
ATOM     29  C   UNL     1       0.066   1.251  -0.577  0.00  0.00    +0.076 A 
BRANCH  29  30
ATOM     30  C   UNL     1      -1.159   1.841  -1.226  0.00  0.00    +0.419 C 
ATOM     31  F   UNL     1      -0.850   3.103  -1.745  0.00  0.00    -0.166 F 
ATOM     32  F   UNL     1      -1.588   1.004  -2.261  0.00  0.00    -0.166 F 
ATOM     33  F   UNL     1      -2.178   1.966  -0.275  0.00  0.00    -0.166 F 
ENDBRANCH  29  30
ENDBRANCH  22  24
ENDBRANCH   3  20
TORSDOF 4
