REMARK  Name = ZINC35036167
REMARK  8 active torsions:
REMARK  status: ('A' for Active; 'I' for Inactive)
REMARK    1  A    between atoms: C_1  and  C_2
REMARK    2  A    between atoms: C_2  and  N_3
REMARK    3  A    between atoms: N_3  and  C_4
REMARK    4  A    between atoms: C_4  and  C_6
REMARK    5  A    between atoms: C_4  and  C_7
REMARK    6  A    between atoms: N_17  and  C_18
REMARK    7  A    between atoms: C_25  and  C_27
REMARK    8  A    between atoms: C_30  and  N_34
REMARK                            x       y       z     vdW  Elec       q    Type
REMARK                         _______ _______ _______ _____ _____    ______ ____
ROOT
ATOM      1  C   UNL     1      -0.740  -1.745  -1.562  0.00  0.00    +0.138 A 
ATOM      2  N   UNL     1       0.307  -2.084  -0.873  0.00  0.00    -0.231 NA
ATOM      3  C   UNL     1       1.060  -3.162  -1.207  0.00  0.00    +0.078 A 
ATOM      4  C   UNL     1       2.186  -3.528  -0.466  0.00  0.00    +0.028 A 
ATOM      5  C   UNL     1       2.920  -4.630  -0.841  0.00  0.00    +0.002 A 
ATOM      6  C   UNL     1       2.556  -5.384  -1.949  0.00  0.00    +0.001 A 
ATOM      7  C   UNL     1       1.450  -5.044  -2.696  0.00  0.00    +0.015 A 
ATOM      8  C   UNL     1       0.692  -3.932  -2.333  0.00  0.00    +0.065 A 
ATOM      9  C   UNL     1      -0.498  -3.522  -3.092  0.00  0.00    +0.266 A 
ATOM     10  O   UNL     1      -0.868  -4.142  -4.072  0.00  0.00    -0.267 OA
ATOM     11  N   UNL     1      -1.169  -2.430  -2.656  0.00  0.00    -0.263 N 
ENDROOT
BRANCH  11  12
ATOM     12  C   UNL     1      -2.313  -1.999  -3.340  0.00  0.00    +0.051 A 
ATOM     13  C   UNL     1      -2.203  -1.486  -4.625  0.00  0.00    +0.028 A 
ATOM     14  C   UNL     1      -3.333  -1.062  -5.298  0.00  0.00    +0.022 A 
ATOM     15  C   UNL     1      -4.573  -1.148  -4.691  0.00  0.00    +0.041 A 
ATOM     16  C   UNL     1      -4.686  -1.659  -3.410  0.00  0.00    +0.022 A 
ATOM     17  C   UNL     1      -3.561  -2.090  -2.736  0.00  0.00    +0.028 A 
ATOM     18 CL   UNL     1      -5.991  -0.614  -5.539  0.00  0.00    -0.084 Cl
ENDBRANCH  11  12
BRANCH   1  19
ATOM     19  C   UNL     1      -1.523  -0.534  -1.124  0.00  0.00    +0.140 C 
ATOM     20  C   UNL     1      -1.591   0.473  -2.274  0.00  0.00    +0.036 C 
BRANCH  19  21
ATOM     21  N   UNL     1      -0.861   0.085   0.028  0.00  0.00    -0.288 N 
ATOM     22  C   UNL     1      -1.518   0.201   1.200  0.00  0.00    +0.249 C 
ATOM     23  O   UNL     1      -1.004   0.795   2.127  0.00  0.00    -0.270 OA
BRANCH  22  24
ATOM     24  C   UNL     1      -2.861  -0.394   1.356  0.00  0.00    +0.055 A 
ATOM     25  C   UNL     1      -3.068  -1.744   1.066  0.00  0.00    +0.017 A 
ATOM     26  C   UNL     1      -4.324  -2.293   1.215  0.00  0.00    +0.033 A 
ATOM     27  C   UNL     1      -5.379  -1.510   1.650  0.00  0.00    +0.128 A 
ATOM     28  C   UNL     1      -5.183  -0.172   1.939  0.00  0.00    +0.053 A 
ATOM     29  C   UNL     1      -3.928   0.390   1.801  0.00  0.00    +0.055 A 
ATOM     30 CL   UNL     1      -3.681   2.068   2.171  0.00  0.00    -0.083 Cl
BRANCH  27  31
ATOM     31  N   UNL     1      -6.725  -2.107   1.807  0.00  0.00    +0.056 N 
ATOM     32  O   UNL     1      -6.900  -3.277   1.554  0.00  0.00    -0.126 OA
ATOM     33  O   UNL     1      -7.648  -1.426   2.187  0.00  0.00    -0.126 OA
ENDBRANCH  27  31
ENDBRANCH  22  24
BRANCH  21  35
ATOM     34  C   UNL     1       0.493   2.070  -0.427  0.00  0.00    +0.024 C 
ATOM     35  C   UNL     1       0.513   0.577  -0.094  0.00  0.00    +0.105 C 
ENDBRANCH  21  35
ENDBRANCH  19  21
ENDBRANCH   1  19
TORSDOF 6
