REMARK  Name = ZINC50366642
REMARK  5 active torsions:
REMARK  status: ('A' for Active; 'I' for Inactive)
REMARK    1  A    between atoms: C_1  and  C_2
REMARK    2  A    between atoms: C_2  and  C_3
REMARK    3  A    between atoms: C_2  and  C_4
REMARK    4  A    between atoms: C_7  and  N_12
REMARK    5  A    between atoms: C_8  and  C_10
REMARK                            x       y       z     vdW  Elec       q    Type
REMARK                         _______ _______ _______ _____ _____    ______ ____
ROOT
ATOM      1  C   UNL     1      -1.413  -0.523   0.016  0.00  0.00    +0.132 A 
ATOM      2  N   UNL     1      -2.191  -0.251   1.044  0.00  0.00    -0.238 NA
ATOM      3  C   UNL     1      -3.437  -0.692   1.088  0.00  0.00    +0.142 A 
ATOM      4  C   UNL     1      -3.921  -1.454   0.028  0.00  0.00    +0.106 A 
ATOM      5  C   UNL     1      -3.067  -1.719  -1.038  0.00  0.00    +0.085 A 
ATOM      6  N   UNL     1      -1.836  -1.236  -1.009  0.00  0.00    -0.233 NA
ENDROOT
BRANCH   4   7
ATOM      7  N   UNL     1      -5.236  -1.942   0.035  0.00  0.00    -0.237 N 
ATOM      8  C   UNL     1      -5.847  -2.567   1.067  0.00  0.00    +0.114 A 
ATOM      9  C   UNL     1      -7.104  -2.878   0.673  0.00  0.00    +0.041 A 
ATOM     10  C   UNL     1      -7.267  -2.429  -0.642  0.00  0.00    +0.135 A 
ATOM     11  N   UNL     1      -6.150  -1.864  -1.024  0.00  0.00    -0.175 NA
ENDBRANCH   4   7
BRANCH   1  13
ATOM     12  C   UNL     1      -0.023   1.530   0.084  0.00  0.00    +0.015 C 
ATOM     13  C   UNL     1       0.000   0.002   0.008  0.00  0.00    +0.051 C 
ATOM     14  C   UNL     1       0.758  -0.557   1.214  0.00  0.00    +0.015 C 
ENDBRANCH   1  13
BRANCH   5  15
ATOM     15  C   UNL     1      -3.539  -2.538  -2.211  0.00  0.00    +0.166 C 
ATOM     16 CL   UNL     1      -4.121  -1.439  -3.517  0.00  0.00    -0.119 Cl
ENDBRANCH   5  15
TORSDOF 3
