REMARK  Name = ZINC37377332
REMARK  5 active torsions:
REMARK  status: ('A' for Active; 'I' for Inactive)
REMARK    1  A    between atoms: C_3  and  C_19
REMARK    2  A    between atoms: C_5  and  N_7
REMARK    3  A    between atoms: N_7  and  S_8
REMARK    4  A    between atoms: S_8  and  C_11
REMARK    5  A    between atoms: C_19  and  N_21
REMARK                            x       y       z     vdW  Elec       q    Type
REMARK                         _______ _______ _______ _____ _____    ______ ____
ROOT
ATOM      1  N   UNL     1       1.226  -2.085  -0.021  0.00  0.00    -0.098 NA
ENDROOT
BRANCH   1   6
ATOM      2  C   UNL     1      -0.017   1.378   0.010  0.00  0.00    +0.003 A 
ATOM      3  C   UNL     1       1.166   2.089   0.002  0.00  0.00    +0.010 A 
ATOM      4  C   UNL     1       2.388   1.412  -0.013  0.00  0.00    +0.005 A 
ATOM      5  C   UNL     1       2.406   0.017  -0.021  0.00  0.00    +0.037 A 
ATOM      6  C   UNL     1       1.213  -0.688  -0.013  0.00  0.00    +0.075 A 
ATOM      7  C   UNL     1       0.002  -0.004   0.002  0.00  0.00    +0.027 A 
BRANCH   4   8
ATOM      8  C   UNL     1       3.655   2.170  -0.022  0.00  0.00    +0.077 C 
ATOM      9  S   UNL     1       5.021   1.563   0.812  0.00  0.00    -0.035 S 
BRANCH   8  10
ATOM     10  N   UNL     1       3.735   3.340  -0.686  0.00  0.00    -0.352 N 
ATOM     11  H   UNL     1       2.961   3.684  -1.159  0.00  0.00    +0.143 HD
ATOM     12  H   UNL     1       4.568   3.838  -0.692  0.00  0.00    +0.143 HD
ENDBRANCH   8  10
ENDBRANCH   4   8
ENDBRANCH   1   6
BRANCH   1  13
ATOM     13  S   UNL     1      -0.200  -2.926  -0.012  0.00  0.00    +0.094 S 
ATOM     14  O   UNL     1      -0.818  -2.665   1.241  0.00  0.00    -0.148 OA
ATOM     15  O   UNL     1      -0.842  -2.651  -1.250  0.00  0.00    -0.148 OA
BRANCH  13  16
ATOM     16  C   UNL     1       0.206  -4.641  -0.026  0.00  0.00    +0.148 A 
ATOM     17  C   UNL     1      -0.121  -5.437   1.055  0.00  0.00    +0.070 A 
ATOM     18  C   UNL     1       0.198  -6.784   1.044  0.00  0.00    +0.125 A 
ATOM     19  C   UNL     1       0.845  -7.333  -0.050  0.00  0.00    +0.041 A 
ATOM     20  C   UNL     1       1.172  -6.537  -1.130  0.00  0.00    +0.043 A 
ATOM     21  C   UNL     1       0.848  -5.191  -1.122  0.00  0.00    +0.150 A 
ATOM     22  F   UNL     1       1.164  -4.413  -2.181  0.00  0.00    -0.203 F 
ATOM     23  F   UNL     1      -0.121  -7.563   2.101  0.00  0.00    -0.205 F 
ENDBRANCH  13  16
ENDBRANCH   1  13
TORSDOF 5
