REMARK  Name = ZINC05817397
REMARK  8 active torsions:
REMARK  status: ('A' for Active; 'I' for Inactive)
REMARK    1  A    between atoms: C_1  and  C_2
REMARK    2  A    between atoms: C_2  and  C_3
REMARK    3  A    between atoms: C_2  and  N_4
REMARK    4  A    between atoms: C_11  and  C_23
REMARK    5  A    between atoms: C_13  and  C_19
REMARK    6  A    between atoms: C_13  and  C_21
REMARK    7  A    between atoms: C_14  and  N_18
REMARK    8  A    between atoms: C_15  and  C_16
REMARK                            x       y       z     vdW  Elec       q    Type
REMARK                         _______ _______ _______ _____ _____    ______ ____
ROOT
ATOM      1  N   UNL     1       4.605   0.191   0.963  0.00  0.00    -0.296 NA
ATOM      2  C   UNL     1       4.875   1.552   0.468  0.00  0.00    +0.112 C 
ATOM      3  C   UNL     1       3.549   2.258   0.324  0.00  0.00    -0.006 C 
ATOM      4  C   UNL     1       2.480   1.572   0.012  0.00  0.00    -0.026 C 
ATOM      5  C   UNL     1       2.486   0.104  -0.301  0.00  0.00    +0.044 C 
ATOM      6  C   UNL     1       3.817  -0.558  -0.020  0.00  0.00    +0.094 C 
ATOM      7  C   UNL     1       1.347  -0.555   0.478  0.00  0.00    +0.069 C 
ATOM      8  C   UNL     1       0.016   0.023  -0.005  0.00  0.00    +0.188 C 
ATOM      9  C   UNL     1       0.027   1.522  -0.000  0.00  0.00    +0.054 C 
ATOM     10  C   UNL     1       1.165   2.262  -0.004  0.00  0.00    +0.074 C 
ENDROOT
BRANCH   7  11
ATOM     11  C   UNL     1       1.514  -0.274   1.950  0.00  0.00    -0.023 A 
ATOM     12  C   UNL     1       1.019   0.898   2.502  0.00  0.00    +0.007 A 
ATOM     13  C   UNL     1       1.192   1.111   3.861  0.00  0.00    +0.020 A 
ATOM     14  C   UNL     1       1.856   0.161   4.613  0.00  0.00    +0.111 A 
ATOM     15  N   UNL     1       2.317  -0.941   4.053  0.00  0.00    -0.263 NA
ATOM     16  C   UNL     1       2.167  -1.179   2.765  0.00  0.00    +0.114 A 
ENDBRANCH   7  11
BRANCH   1  18
ATOM     17  C   UNL     1       6.650   0.299   2.306  0.00  0.00    +0.024 C 
ATOM     18  C   UNL     1       5.856  -0.511   1.279  0.00  0.00    +0.051 C 
ATOM     19  C   UNL     1       5.535  -1.891   1.857  0.00  0.00    +0.024 C 
ENDBRANCH   1  18
BRANCH   9  20
ATOM     20  N   UNL     1      -1.171   2.178   0.003  0.00  0.00    -0.358 N 
ATOM     21  H   UNL     1      -1.196   3.278   0.006  0.00  0.00    +0.142 HD
ATOM     22  H   UNL     1      -2.111   1.607   0.001  0.00  0.00    +0.142 HD
ENDBRANCH   9  20
BRANCH  10  23
ATOM     23  C   UNL     1       1.099   3.692  -0.024  0.00  0.00    +0.101 C 
ATOM     24  N   UNL     1       1.046   4.827  -0.040  0.00  0.00    -0.191 NA
ENDBRANCH  10  23
BRANCH   8  25
ATOM     25  C   UNL     1      -1.062  -0.451   0.878  0.00  0.00    +0.091 C 
ATOM     26  N   UNL     1      -1.894  -0.817   1.559  0.00  0.00    -0.194 NA
ENDBRANCH   8  25
BRANCH   8  27
ATOM     27  C   UNL     1      -0.244  -0.451  -1.374  0.00  0.00    +0.091 C 
ATOM     28  N   UNL     1      -0.445  -0.816  -2.431  0.00  0.00    -0.194 NA
ENDBRANCH   8  27
TORSDOF 6
