REMARK  Name = ZINC11637938
REMARK  13 active torsions:
REMARK  status: ('A' for Active; 'I' for Inactive)
REMARK    1  A    between atoms: C_3  and  C_27
REMARK    2  A    between atoms: C_5  and  N_7
REMARK    3  A    between atoms: C_8  and  C_10
REMARK    4  A    between atoms: C_10  and  C_11
REMARK    5  A    between atoms: C_11  and  C_12
REMARK    6  A    between atoms: C_12  and  C_13
REMARK    7  A    between atoms: C_13  and  C_14
REMARK    8  A    between atoms: C_14  and  C_15
REMARK    9  A    between atoms: C_15  and  C_16
REMARK   10  A    between atoms: C_16  and  C_17
REMARK   11  A    between atoms: C_17  and  C_18
REMARK   12  A    between atoms: C_18  and  C_19
REMARK   13  A    between atoms: C_19  and  N_20
REMARK                            x       y       z     vdW  Elec       q    Type
REMARK                         _______ _______ _______ _____ _____    ______ ____
ROOT
ATOM      1  C   UNL     1      -0.670   4.269   8.088  0.00  0.00    +0.009 C 
ENDROOT
BRANCH   1   2
ATOM      2  C   UNL     1       0.260   3.691   7.020  0.00  0.00    +0.096 C 
BRANCH   2   4
ATOM      3  N   UNL     1       0.072   2.800   4.720  0.00  0.00    -0.285 N 
ATOM      4  C   UNL     1      -0.542   3.330   5.797  0.00  0.00    +0.217 C 
ATOM      5  O   UNL     1      -1.740   3.517   5.781  0.00  0.00    -0.275 OA
ATOM      6  H   UNL     1       1.018   2.589   4.756  0.00  0.00    +0.155 HD
BRANCH   3  11
ATOM      7  C   UNL     1      -2.696   1.905   2.471  0.00  0.00    +0.002 A 
ATOM      8  C   UNL     1      -2.095   2.076   1.236  0.00  0.00    +0.012 A 
ATOM      9  C   UNL     1      -0.775   2.478   1.157  0.00  0.00    +0.057 A 
ATOM     10  C   UNL     1      -0.054   2.721   2.310  0.00  0.00    +0.035 A 
ATOM     11  C   UNL     1      -0.656   2.555   3.550  0.00  0.00    +0.034 A 
ATOM     12  C   UNL     1      -1.981   2.146   3.627  0.00  0.00    +0.023 A 
BRANCH   9  13
ATOM     13  C   UNL     1      -0.123   2.659  -0.190  0.00  0.00    +0.417 C 
ATOM     14  F   UNL     1       0.469   1.455  -0.587  0.00  0.00    -0.166 F 
ATOM     15  F   UNL     1       0.856   3.654  -0.105  0.00  0.00    -0.166 F 
ATOM     16  F   UNL     1      -1.090   3.034  -1.130  0.00  0.00    -0.166 F 
ENDBRANCH   9  13
ENDBRANCH   3  11
ENDBRANCH   2   4
ENDBRANCH   1   2
BRANCH   1  17
ATOM     17  C   UNL     1       0.145   4.635   9.330  0.00  0.00    +0.000 C 
BRANCH  17  18
ATOM     18  C   UNL     1      -0.786   5.213  10.399  0.00  0.00    +0.000 C 
BRANCH  18  19
ATOM     19  C   UNL     1       0.029   5.579  11.641  0.00  0.00    +0.000 C 
BRANCH  19  20
ATOM     20  C   UNL     1      -0.902   6.157  12.709  0.00  0.00    +0.000 C 
BRANCH  20  21
ATOM     21  C   UNL     1      -0.087   6.524  13.951  0.00  0.00    +0.000 C 
BRANCH  21  22
ATOM     22  C   UNL     1      -1.017   7.101  15.019  0.00  0.00    +0.002 C 
BRANCH  22  23
ATOM     23  C   UNL     1      -0.203   7.468  16.261  0.00  0.00    +0.019 C 
BRANCH  23  24
ATOM     24  C   UNL     1      -1.133   8.046  17.329  0.00  0.00    +0.116 C 
BRANCH  24  25
ATOM     25  N   UNL     1      -0.353   8.396  18.519  0.00  0.00    -0.242 N 
ATOM     26  C   UNL     1      -0.138   7.538  19.524  0.00  0.00    +0.222 C 
ATOM     27  O   UNL     1      -0.550   6.399  19.574  0.00  0.00    -0.275 OA
ATOM     28  C   UNL     1       0.702   8.214  20.585  0.00  0.00    +0.105 C 
ATOM     29  C   UNL     1       0.930   9.630  20.018  0.00  0.00    +0.105 C 
ATOM     30  C   UNL     1       0.199   9.603  18.693  0.00  0.00    +0.222 C 
ATOM     31  O   UNL     1       0.126  10.528  17.913  0.00  0.00    -0.275 OA
ENDBRANCH  24  25
ENDBRANCH  23  24
ENDBRANCH  22  23
ENDBRANCH  21  22
ENDBRANCH  20  21
ENDBRANCH  19  20
ENDBRANCH  18  19
ENDBRANCH  17  18
ENDBRANCH   1  17
TORSDOF 13
