REMARK  Name = ZINC13647367
REMARK  5 active torsions:
REMARK  status: ('A' for Active; 'I' for Inactive)
REMARK    1  A    between atoms: C_1  and  C_2
REMARK    2  A    between atoms: C_5  and  C_34
REMARK    3  A    between atoms: N_8  and  C_10
REMARK    4  A    between atoms: C_11  and  C_21
REMARK    5  A    between atoms: N_25  and  C_29
REMARK                            x       y       z     vdW  Elec       q    Type
REMARK                         _______ _______ _______ _____ _____    ______ ____
ROOT
ATOM      1  C   UNL     1      -1.562   4.991   2.471  0.00  0.00    +0.136 A 
ATOM      2  C   UNL     1      -2.245   5.598   1.391  0.00  0.00    +0.081 A 
ATOM      3  C   UNL     1      -2.416   7.003   1.410  0.00  0.00    +0.267 A 
ATOM      4  O   UNL     1      -3.003   7.568   0.503  0.00  0.00    -0.267 OA
ATOM      5  N   UNL     1      -1.914   7.708   2.447  0.00  0.00    -0.268 N 
ATOM      6  C   UNL     1      -2.070   9.062   2.471  0.00  0.00    +0.096 A 
ATOM      7  C   UNL     1      -1.580   9.797   3.494  0.00  0.00    +0.018 A 
ATOM      8  C   UNL     1      -0.902   9.170   4.548  0.00  0.00    +0.005 A 
ATOM      9  C   UNL     1      -0.741   7.816   4.534  0.00  0.00    +0.047 A 
ATOM     10  C   UNL     1      -1.258   7.068   3.461  0.00  0.00    +0.142 A 
ATOM     11  N   UNL     1      -1.096   5.745   3.456  0.00  0.00    -0.214 NA
ENDROOT
BRANCH   1  17
ATOM     12  C   UNL     1      -0.223   1.206   5.181  0.00  0.00    +0.009 C 
ATOM     13  C   UNL     1      -0.794   1.660   3.836  0.00  0.00    +0.004 C 
ATOM     14  C   UNL     1       0.102   1.155   2.702  0.00  0.00    +0.009 C 
ATOM     15  C   UNL     1      -0.444   1.663   1.365  0.00  0.00    +0.004 C 
ATOM     16  C   UNL     1      -0.509   3.192   1.394  0.00  0.00    +0.109 C 
ATOM     17  N   UNL     1      -1.378   3.626   2.495  0.00  0.00    -0.314 N 
ATOM     18  C   UNL     1      -0.849   3.189   3.794  0.00  0.00    +0.109 C 
ATOM     19  C   UNL     1       0.480   1.213   0.232  0.00  0.00    +0.009 C 
ENDBRANCH   1  17
BRANCH   2  20
ATOM     20  C   UNL     1      -2.749   4.821   0.323  0.00  0.00    +0.037 C 
ATOM     21  C   UNL     1      -2.230   4.967  -0.931  0.00  0.00    +0.077 C 
ATOM     22  C   UNL     1      -1.121   5.747  -1.368  0.00  0.00    +0.259 C 
ATOM     23  O   UNL     1      -0.478   6.417  -0.580  0.00  0.00    -0.269 OA
ATOM     24  N   UNL     1      -0.807   5.719  -2.651  0.00  0.00    -0.252 N 
ATOM     25  C   UNL     1      -1.526   4.982  -3.527  0.00  0.00    +0.121 C 
ATOM     26  S   UNL     1      -1.307   4.806  -5.216  0.00  0.00    -0.027 S 
ATOM     27  S   UNL     1      -2.762   4.237  -2.474  0.00  0.00    -0.061 S 
BRANCH  24  28
ATOM     28  C   UNL     1       0.331   6.505  -3.133  0.00  0.00    +0.083 C 
ATOM     29  C   UNL     1      -0.133   7.497  -4.220  0.00  0.00    +0.023 C 
ATOM     30  C   UNL     1       1.036   7.520  -5.237  0.00  0.00    +0.002 C 
ATOM     31  C   UNL     1       1.498   6.042  -5.261  0.00  0.00    +0.002 C 
ATOM     32  C   UNL     1       1.368   5.581  -3.795  0.00  0.00    +0.023 C 
ENDBRANCH  24  28
ENDBRANCH   2  20
TORSDOF 3
