REMARK  Name = ZINC35427307
REMARK  8 active torsions:
REMARK  status: ('A' for Active; 'I' for Inactive)
REMARK    1  A    between atoms: C_1  and  C_2
REMARK    2  A    between atoms: C_2  and  O_3
REMARK    3  A    between atoms: O_3  and  C_4
REMARK    4  A    between atoms: C_9  and  N_10
REMARK    5  A    between atoms: C_25  and  C_27
REMARK    6  A    between atoms: C_31  and  O_33
REMARK    7  A    between atoms: O_33  and  C_34
REMARK    8  A    between atoms: N_36  and  C_39
REMARK                            x       y       z     vdW  Elec       q    Type
REMARK                         _______ _______ _______ _____ _____    ______ ____
ROOT
ATOM      1  N   UNL     1       1.950  -1.502  -3.424  0.00  0.00    -0.266 N 
ATOM      2  C   UNL     1       2.661  -1.991  -4.461  0.00  0.00    +0.308 C 
ATOM      3  O   UNL     1       2.766  -3.192  -4.613  0.00  0.00    -0.252 OA
ATOM      4  N   UNL     1       3.254  -1.147  -5.328  0.00  0.00    -0.268 N 
ATOM      5  C   UNL     1       3.155   0.316  -5.173  0.00  0.00    +0.148 C 
ATOM      6  C   UNL     1       2.980   1.033  -6.493  0.00  0.00    +0.004 A 
ATOM      7  C   UNL     1       1.786   1.677  -6.867  0.00  0.00    -0.034 A 
ATOM      8  C   UNL     1       1.754   2.305  -8.074  0.00  0.00    -0.021 A 
ATOM      9  S   UNL     1       3.375   2.028  -8.738  0.00  0.00    -0.077 S 
ATOM     10  C   UNL     1       4.006   1.079  -7.387  0.00  0.00    +0.090 A 
ATOM     11  N   UNL     1       5.234   0.459  -7.196  0.00  0.00    -0.312 N 
ATOM     12  C   UNL     1       6.500   0.901  -7.381  0.00  0.00    +0.092 A 
ATOM     13  C   UNL     1       7.346  -0.073  -6.976  0.00  0.00    +0.020 A 
ATOM     14  C   UNL     1       6.563  -1.165  -6.544  0.00  0.00    +0.025 A 
ATOM     15  C   UNL     1       5.276  -0.827  -6.710  0.00  0.00    +0.049 A 
ATOM     16  C   UNL     1       4.044  -1.645  -6.480  0.00  0.00    +0.155 C 
ATOM     17  C   UNL     1       0.601   3.042  -8.670  0.00  0.00    -0.036 C 
ATOM     18  N   UNL     1      -0.617   2.679  -7.923  0.00  0.00    +0.381 N 
ATOM     19  C   UNL     1      -0.370   2.827  -6.483  0.00  0.00    -0.074 C 
ATOM     20  C   UNL     1       0.543   1.704  -5.981  0.00  0.00    +0.018 C 
ATOM     21  C   UNL     1      -1.720   3.563  -8.323  0.00  0.00    -0.096 C 
ATOM     22  H   UNL     1       1.815  -0.546  -3.337  0.00  0.00    +0.156 HD
ATOM     23  H   UNL     1      -0.863   1.721  -8.125  0.00  0.00    -0.082 HD
ENDROOT
BRANCH   1  29
ATOM     24  C   UNL     1       1.332  -1.995  -1.136  0.00  0.00    +0.142 A 
ATOM     25  C   UNL     1       0.790  -2.861  -0.201  0.00  0.00    +0.047 A 
ATOM     26  C   UNL     1       0.330  -4.104  -0.595  0.00  0.00    +0.004 A 
ATOM     27  C   UNL     1       0.409  -4.487  -1.921  0.00  0.00    +0.002 A 
ATOM     28  C   UNL     1       0.949  -3.628  -2.860  0.00  0.00    +0.027 A 
ATOM     29  C   UNL     1       1.407  -2.377  -2.473  0.00  0.00    +0.077 A 
BRANCH  24  30
ATOM     30  O   UNL     1       1.786  -0.772  -0.750  0.00  0.00    -0.490 OA
BRANCH  30  32
ATOM     31  C   UNL     1       2.234   0.956   0.879  0.00  0.00    +0.048 C 
ATOM     32  C   UNL     1       1.677  -0.449   0.638  0.00  0.00    +0.226 C 
ENDBRANCH  30  32
ENDBRANCH  24  30
ENDBRANCH   1  29
BRANCH  16  33
ATOM     33  C   UNL     1       3.188  -1.595  -7.719  0.00  0.00    -0.018 A 
ATOM     34  C   UNL     1       3.776  -1.413  -8.958  0.00  0.00    +0.006 A 
ATOM     35  C   UNL     1       2.995  -1.368 -10.097  0.00  0.00    +0.004 A 
ATOM     36  C   UNL     1       1.623  -1.503 -10.000  0.00  0.00    +0.045 A 
ATOM     37  C   UNL     1       1.031  -1.685  -8.759  0.00  0.00    +0.120 A 
ATOM     38  C   UNL     1       1.818  -1.737  -7.618  0.00  0.00    +0.051 A 
BRANCH  37  39
ATOM     39  O   UNL     1      -0.318  -1.818  -8.662  0.00  0.00    -0.495 OA
ATOM     40  C   UNL     1      -1.065  -1.761  -9.879  0.00  0.00    +0.277 C 
ENDBRANCH  37  39
ENDBRANCH  16  33
TORSDOF 5
