REMARK  Name = ZINC41585404
REMARK  6 active torsions:
REMARK  status: ('A' for Active; 'I' for Inactive)
REMARK    1  A    between atoms: C_1  and  C_2
REMARK    2  A    between atoms: C_4  and  O_34
REMARK    3  A    between atoms: C_5  and  C_20
REMARK    4  A    between atoms: C_11  and  C_12
REMARK    5  A    between atoms: C_20  and  N_21
REMARK    6  A    between atoms: N_24  and  C_27
REMARK                            x       y       z     vdW  Elec       q    Type
REMARK                         _______ _______ _______ _____ _____    ______ ____
ROOT
ATOM      1  C   UNL     1       0.370   1.463  -0.007  0.00  0.00    +0.045 C 
ATOM      2  C   UNL     1       0.063  -0.012  -0.001  0.00  0.00    -0.033 A 
ATOM      3  C   UNL     1      -0.157  -0.670  -1.179  0.00  0.00    +0.050 A 
ATOM      4  C   UNL     1      -0.442  -2.033  -1.175  0.00  0.00    +0.122 A 
ATOM      5  C   UNL     1      -0.506  -2.737   0.017  0.00  0.00    +0.020 A 
ATOM      6  C   UNL     1      -0.285  -2.083   1.222  0.00  0.00    +0.145 A 
ATOM      7  C   UNL     1       0.007  -0.710   1.206  0.00  0.00    +0.071 A 
ATOM      8  C   UNL     1       0.197  -0.308   2.612  0.00  0.00    +0.232 C 
ATOM      9  O   UNL     1       0.460   0.801   3.042  0.00  0.00    -0.283 OA
ATOM     10  C   UNL     1      -0.005  -1.547   3.379  0.00  0.00    +0.176 C 
ATOM     11  C   UNL     1       0.069  -1.676   4.728  0.00  0.00    +0.058 C 
ATOM     12  O   UNL     1      -0.290  -2.533   2.496  0.00  0.00    -0.451 OA
ENDROOT
BRANCH  11  13
ATOM     13  C   UNL     1      -0.018  -3.007   5.345  0.00  0.00    -0.021 A 
ATOM     14  C   UNL     1      -0.115  -3.132   6.735  0.00  0.00    +0.009 A 
ATOM     15  C   UNL     1      -0.196  -4.384   7.306  0.00  0.00    +0.016 A 
ATOM     16  C   UNL     1      -0.181  -5.516   6.508  0.00  0.00    +0.018 A 
ATOM     17  C   UNL     1      -0.085  -5.400   5.131  0.00  0.00    +0.016 A 
ATOM     18  C   UNL     1      -0.010  -4.155   4.544  0.00  0.00    +0.009 A 
ATOM     19 BR   UNL     1      -0.292  -7.228   7.302  0.00  0.00    -0.050 Br
ENDBRANCH  11  13
BRANCH   4  20
ATOM     20  O   UNL     1      -0.659  -2.678  -2.350  0.00  0.00    -0.506 OA
ATOM     21  H   UNL     1       0.140  -3.045  -2.751  0.00  0.00    +0.292 HD
ENDBRANCH   4  20
BRANCH   5  22
ATOM     22  C   UNL     1      -0.817  -4.212   0.005  0.00  0.00    -0.035 C 
BRANCH  22  23
ATOM     23  N   UNL     1       0.435  -4.974  -0.093  0.00  0.00    +0.385 N 
ATOM     24  C   UNL     1       1.078  -4.692  -1.383  0.00  0.00    -0.059 C 
ATOM     25  C   UNL     1       2.437  -5.397  -1.440  0.00  0.00    +0.086 C 
ATOM     26  N   UNL     1       2.233  -6.827  -1.163  0.00  0.00    -0.331 N 
ATOM     27  C   UNL     1       1.454  -7.199   0.028  0.00  0.00    +0.086 C 
ATOM     28  C   UNL     1       0.141  -6.409   0.016  0.00  0.00    -0.059 C 
ATOM     29  H   UNL     1       1.054  -4.701   0.655  0.00  0.00    -0.081 HD
BRANCH  26  30
ATOM     30  C   UNL     1       2.764  -7.806  -2.009  0.00  0.00    +0.065 A 
ATOM     31  C   UNL     1       4.034  -8.315  -1.774  0.00  0.00    +0.026 A 
ATOM     32  C   UNL     1       4.555  -9.282  -2.611  0.00  0.00    +0.002 A 
ATOM     33  C   UNL     1       3.815  -9.745  -3.683  0.00  0.00    +0.003 A 
ATOM     34  C   UNL     1       2.549  -9.241  -3.922  0.00  0.00    +0.040 A 
ATOM     35  C   UNL     1       2.018  -8.277  -3.085  0.00  0.00    +0.144 A 
ATOM     36  F   UNL     1       0.780  -7.789  -3.315  0.00  0.00    -0.204 F 
ENDBRANCH  26  30
ENDBRANCH  22  23
ENDBRANCH   5  22
TORSDOF 5
