REMARK  Name = ZINC67161360
REMARK  18 active torsions:
REMARK  status: ('A' for Active; 'I' for Inactive)
REMARK    1  A    between atoms: C_1  and  C_2
REMARK    2  A    between atoms: C_2  and  O_3
REMARK    3  A    between atoms: O_3  and  C_4
REMARK    4  A    between atoms: C_4  and  C_5
REMARK    5  A    between atoms: C_8  and  C_11
REMARK    6  A    between atoms: C_11  and  N_12
REMARK    7  A    between atoms: C_13  and  C_15
REMARK    8  A    between atoms: C_15  and  C_16
REMARK    9  A    between atoms: C_16  and  C_17
REMARK   10  A    between atoms: C_17  and  C_18
REMARK   11  A    between atoms: C_18  and  C_19
REMARK   12  A    between atoms: C_19  and  C_20
REMARK   13  A    between atoms: C_20  and  N_21
REMARK   14  A    between atoms: C_22  and  O_24
REMARK   15  A    between atoms: O_24  and  C_25
REMARK   16  A    between atoms: C_25  and  C_26
REMARK   17  A    between atoms: C_25  and  C_27
REMARK   18  A    between atoms: C_25  and  C_28
REMARK                            x       y       z     vdW  Elec       q    Type
REMARK                         _______ _______ _______ _____ _____    ______ ____
ROOT
ATOM      1  N   UNL     1       3.907  -2.097  -6.862  0.00  0.00    -0.311 N 
ATOM      2  C   UNL     1       4.570  -2.186  -8.032  0.00  0.00    +0.213 C 
ATOM      3  O   UNL     1       4.839  -3.274  -8.495  0.00  0.00    -0.276 OA
ATOM      4  H   UNL     1       3.692  -1.227  -6.491  0.00  0.00    +0.149 HD
ENDROOT
BRANCH   1   5
ATOM      5  C   UNL     1       3.511  -3.314  -6.149  0.00  0.00    +0.139 C 
BRANCH   5   9
ATOM      6  C   UNL     1       1.467  -2.260  -2.550  0.00  0.00    -0.022 A 
ATOM      7  C   UNL     1       0.756  -2.436  -3.722  0.00  0.00    +0.006 A 
ATOM      8  C   UNL     1       1.417  -2.777  -4.887  0.00  0.00    +0.005 A 
ATOM      9  C   UNL     1       2.790  -2.942  -4.880  0.00  0.00    -0.030 A 
ATOM     10  C   UNL     1       3.501  -2.765  -3.707  0.00  0.00    +0.005 A 
ATOM     11  C   UNL     1       2.840  -2.420  -2.543  0.00  0.00    +0.006 A 
BRANCH   6  12
ATOM     12  C   UNL     1       0.746  -1.888  -1.280  0.00  0.00    +0.195 C 
BRANCH  12  13
ATOM     13  O   UNL     1       0.671  -0.465  -1.174  0.00  0.00    -0.375 OA
BRANCH  13  15
ATOM     14  C   UNL     1      -0.019   1.526   0.010  0.00  0.00    +0.034 C 
ATOM     15  C   UNL     1       0.002  -0.004   0.002  0.00  0.00    +0.157 C 
ENDBRANCH  13  15
ENDBRANCH  12  13
ENDBRANCH   6  12
ENDBRANCH   5   9
ENDBRANCH   1   5
BRANCH   2  16
ATOM     16  C   UNL     1       4.977  -0.934  -8.764  0.00  0.00    +0.096 C 
BRANCH  16  17
ATOM     17  C   UNL     1       5.709  -1.312 -10.053  0.00  0.00    +0.009 C 
BRANCH  17  18
ATOM     18  C   UNL     1       6.122  -0.041 -10.797  0.00  0.00    +0.001 C 
BRANCH  18  19
ATOM     19  C   UNL     1       6.854  -0.419 -12.086  0.00  0.00    +0.002 C 
BRANCH  19  20
ATOM     20  C   UNL     1       7.268   0.852 -12.830  0.00  0.00    +0.019 C 
BRANCH  20  21
ATOM     21  C   UNL     1       8.000   0.474 -14.119  0.00  0.00    +0.107 C 
BRANCH  21  22
ATOM     22  N   UNL     1       8.396   1.691 -14.832  0.00  0.00    -0.281 N 
ATOM     23  C   UNL     1       9.059   1.602 -16.002  0.00  0.00    +0.401 C 
ATOM     24  O   UNL     1       9.328   0.512 -16.466  0.00  0.00    -0.226 OA
ATOM     25  H   UNL     1       8.181   2.561 -14.461  0.00  0.00    +0.152 HD
BRANCH  23  26
ATOM     26  O   UNL     1       9.423   2.721 -16.656  0.00  0.00    -0.445 OA
BRANCH  26  27
ATOM     27  C   UNL     1      10.123   2.552 -17.891  0.00  0.00    +0.107 C 
ATOM     28  C   UNL     1       9.246   1.769 -18.870  0.00  0.00    +0.055 C 
ATOM     29  C   UNL     1      10.450   3.924 -18.483  0.00  0.00    +0.055 C 
ATOM     30  C   UNL     1      11.421   1.782 -17.640  0.00  0.00    +0.055 C 
ENDBRANCH  26  27
ENDBRANCH  23  26
ENDBRANCH  21  22
ENDBRANCH  20  21
ENDBRANCH  19  20
ENDBRANCH  18  19
ENDBRANCH  17  18
ENDBRANCH  16  17
ENDBRANCH   2  16
TORSDOF 14
