REMARK  Name = ZINC04976737
REMARK  6 active torsions:
REMARK  status: ('A' for Active; 'I' for Inactive)
REMARK    1  A    between atoms: C_3  and  C_27
REMARK    2  A    between atoms: C_5  and  N_7
REMARK    3  A    between atoms: C_8  and  C_10
REMARK    4  A    between atoms: C_10  and  N_19
REMARK    5  A    between atoms: C_11  and  C_12
REMARK    6  A    between atoms: C_20  and  C_22
REMARK                            x       y       z     vdW  Elec       q    Type
REMARK                         _______ _______ _______ _____ _____    ______ ____
ROOT
ATOM      1  C   UNL     1       0.090  -4.242   0.444  0.00  0.00    +0.097 C 
ATOM      2  C   UNL     1      -1.082  -4.875   0.203  0.00  0.00    +0.036 C 
ENDROOT
BRANCH   2   3
ATOM      3  C   UNL     1      -2.345  -4.122   0.234  0.00  0.00    -0.023 A 
ATOM      4  C   UNL     1      -2.453  -2.903  -0.444  0.00  0.00    +0.011 A 
ATOM      5  C   UNL     1      -3.639  -2.203  -0.411  0.00  0.00    +0.039 A 
ATOM      6  C   UNL     1      -4.724  -2.703   0.292  0.00  0.00    +0.123 A 
ATOM      7  C   UNL     1      -4.624  -3.911   0.967  0.00  0.00    +0.039 A 
ATOM      8  C   UNL     1      -3.445  -4.624   0.938  0.00  0.00    +0.011 A 
ATOM      9  F   UNL     1      -5.884  -2.011   0.321  0.00  0.00    -0.205 F 
ENDBRANCH   2   3
BRANCH   1  11
ATOM     10  N   UNL     1       1.249  -2.187   1.066  0.00  0.00    -0.280 N 
ATOM     11  C   UNL     1       0.089  -2.864   0.953  0.00  0.00    +0.262 C 
ATOM     12  O   UNL     1      -0.958  -2.334   1.272  0.00  0.00    -0.268 OA
ATOM     13  H   UNL     1       2.074  -2.581   0.743  0.00  0.00    +0.155 HD
BRANCH  10  18
ATOM     14  C   UNL     1       2.266   1.258   1.871  0.00  0.00    +0.003 A 
ATOM     15  C   UNL     1       1.307   1.613   2.797  0.00  0.00    +0.015 A 
ATOM     16  C   UNL     1       0.313   0.700   3.159  0.00  0.00    +0.065 A 
ATOM     17  C   UNL     1       0.295  -0.570   2.579  0.00  0.00    +0.038 A 
ATOM     18  C   UNL     1       1.263  -0.916   1.649  0.00  0.00    +0.034 A 
ATOM     19  C   UNL     1       2.247   0.000   1.297  0.00  0.00    +0.023 A 
BRANCH  16  20
ATOM     20  C   UNL     1      -0.713   1.077   4.150  0.00  0.00    +0.387 C 
ATOM     21  O   UNL     1      -0.694   2.190   4.657  0.00  0.00    -0.241 OA
ATOM     22  O   UNL     1      -1.582   0.276   4.465  0.00  0.00    -0.241 OA
ENDBRANCH  16  20
ENDBRANCH  10  18
ENDBRANCH   1  11
BRANCH   1  23
ATOM     23  N   UNL     1       1.301  -4.899   0.207  0.00  0.00    -0.275 N 
ATOM     24  C   UNL     1       2.177  -5.081   1.216  0.00  0.00    +0.284 C 
ATOM     25  O   UNL     1       1.876  -4.757   2.349  0.00  0.00    -0.266 OA
ATOM     26  H   UNL     1       1.511  -5.224  -0.682  0.00  0.00    +0.155 HD
BRANCH  24  27
ATOM     27  C   UNL     1       3.493  -5.670   0.947  0.00  0.00    +0.189 A 
ATOM     28  C   UNL     1       4.468  -5.913   1.872  0.00  0.00    +0.054 A 
ATOM     29  C   UNL     1       5.550  -6.477   1.179  0.00  0.00    +0.042 A 
ATOM     30  C   UNL     1       5.193  -6.553  -0.123  0.00  0.00    +0.196 A 
ATOM     31  O   UNL     1       3.951  -6.071  -0.258  0.00  0.00    -0.458 OA
ENDBRANCH  24  27
ENDBRANCH   1  23
TORSDOF 6
