REMARK  Name = ZINC38971421
REMARK  6 active torsions:
REMARK  status: ('A' for Active; 'I' for Inactive)
REMARK    1  A    between atoms: C_4  and  N_7
REMARK    2  A    between atoms: C_10  and  N_28
REMARK    3  A    between atoms: C_13  and  C_15
REMARK    4  A    between atoms: C_15  and  S_16
REMARK    5  A    between atoms: S_16  and  C_17
REMARK    6  A    between atoms: C_20  and  C_22
REMARK                            x       y       z     vdW  Elec       q    Type
REMARK                         _______ _______ _______ _____ _____    ______ ____
ROOT
ATOM      1  N   UNL     1       3.601  -0.632  -0.036  0.00  0.00    -0.219 NA
ATOM      2  C   UNL     1       3.828  -1.593   0.827  0.00  0.00    +0.188 C 
ATOM      3  N   UNL     1       2.858  -2.054   1.708  0.00  0.00    -0.285 N 
ATOM      4  C   UNL     1       3.269  -2.180   3.116  0.00  0.00    +0.239 C 
ATOM      5  N   UNL     1       4.643  -2.673   3.182  0.00  0.00    -0.346 N 
ATOM      6  C   UNL     1       5.441  -2.676   2.177  0.00  0.00    +0.087 C 
ATOM      7  N   UNL     1       5.056  -2.236   0.928  0.00  0.00    -0.277 N 
ATOM      8  H   UNL     1       1.962  -2.280   1.413  0.00  0.00    +0.152 HD
ATOM      9  H   UNL     1       4.969  -3.016   4.029  0.00  0.00    +0.164 HD
ATOM     10  H   UNL     1       5.621  -2.366   0.150  0.00  0.00    +0.156 HD
ENDROOT
BRANCH   1  14
ATOM     11  C   UNL     1      -0.007   1.397   0.026  0.00  0.00    +0.000 A 
ATOM     12  C   UNL     1       0.760   1.319   1.176  0.00  0.00    +0.002 A 
ATOM     13  C   UNL     1       1.963   0.645   1.162  0.00  0.00    +0.028 A 
ATOM     14  C   UNL     1       2.407   0.039  -0.015  0.00  0.00    +0.067 A 
ATOM     15  C   UNL     1       1.628   0.121  -1.171  0.00  0.00    +0.028 A 
ATOM     16  C   UNL     1       0.427   0.799  -1.144  0.00  0.00    +0.002 A 
ENDBRANCH   1  14
BRANCH   4  17
ATOM     17  N   UNL     1       3.189  -0.866   3.768  0.00  0.00    -0.296 NA
ATOM     18  H   UNL     1       2.248  -0.503   3.737  0.00  0.00    +0.122 HD
ATOM     19  H   UNL     1       3.527  -0.912   4.718  0.00  0.00    +0.122 HD
ENDBRANCH   4  17
BRANCH   6  20
ATOM     20  C   UNL     1       6.848  -3.183   2.367  0.00  0.00    +0.148 C 
BRANCH  20  21
ATOM     21  S   UNL     1       7.747  -3.074   0.796  0.00  0.00    -0.058 S 
BRANCH  21  22
ATOM     22  C   UNL     1       9.351  -3.695   1.179  0.00  0.00    +0.278 A 
ATOM     23  N   UNL     1       9.757  -4.133   2.350  0.00  0.00    -0.101 NA
ATOM     24  N   UNL     1      10.984  -4.510   2.264  0.00  0.00    -0.106 NA
ATOM     25  C   UNL     1      11.411  -4.327   1.038  0.00  0.00    +0.249 A 
ATOM     26  O   UNL     1      10.385  -3.813   0.325  0.00  0.00    -0.411 OA
BRANCH  25  27
ATOM     27  C   UNL     1      12.763  -4.633   0.530  0.00  0.00    +0.041 A 
ATOM     28  C   UNL     1      13.102  -4.386  -0.807  0.00  0.00    +0.033 A 
ATOM     29  C   UNL     1      14.377  -4.687  -1.239  0.00  0.00    +0.111 A 
ATOM     30  N   UNL     1      15.270  -5.199  -0.414  0.00  0.00    -0.263 NA
ATOM     31  C   UNL     1      14.992  -5.447   0.853  0.00  0.00    +0.111 A 
ATOM     32  C   UNL     1      13.745  -5.172   1.371  0.00  0.00    +0.033 A 
ENDBRANCH  25  27
ENDBRANCH  21  22
ENDBRANCH  20  21
ENDBRANCH   6  20
TORSDOF 6
