REMARK  Name = ZINC35724689
REMARK  11 active torsions:
REMARK  status: ('A' for Active; 'I' for Inactive)
REMARK    1  A    between atoms: C_1  and  C_2
REMARK    2  A    between atoms: C_2  and  C_3
REMARK    3  A    between atoms: C_3  and  C_5
REMARK    4  A    between atoms: C_3  and  C_6
REMARK    5  A    between atoms: C_6  and  C_8
REMARK    6  A    between atoms: C_6  and  N_23
REMARK    7  A    between atoms: C_14  and  C_16
REMARK    8  A    between atoms: N_26  and  C_27
REMARK    9  A    between atoms: C_32  and  O_33
REMARK   10  A    between atoms: O_33  and  C_34
REMARK   11  A    between atoms: C_34  and  C_35
REMARK                            x       y       z     vdW  Elec       q    Type
REMARK                         _______ _______ _______ _____ _____    ______ ____
ROOT
ATOM      1  C   UNL     1       0.224  -0.141   2.230  0.00  0.00    +0.163 C 
ENDROOT
BRANCH   1   2
ATOM      2  C   UNL     1      -0.139   1.296   1.962  0.00  0.00    +0.239 C 
ATOM      3  O   UNL     1       0.133   2.153   2.776  0.00  0.00    -0.273 OA
ATOM      4  N   UNL     1      -0.766   1.630   0.817  0.00  0.00    -0.262 N 
ATOM      5  C   UNL     1      -1.000   2.967   0.516  0.00  0.00    +0.188 A 
ATOM      6  N   UNL     1      -0.690   4.061   1.200  0.00  0.00    -0.125 NA
ATOM      7  N   UNL     1      -0.979   5.214   0.779  0.00  0.00    -0.140 NA
ATOM      8  C   UNL     1      -1.610   5.402  -0.373  0.00  0.00    +0.134 A 
ATOM      9  S   UNL     1      -1.798   3.704  -0.907  0.00  0.00    -0.030 S 
ATOM     10  H   UNL     1      -1.055   0.938   0.202  0.00  0.00    +0.157 HD
BRANCH   8  11
ATOM     11  C   UNL     1      -2.032   6.657  -1.031  0.00  0.00    +0.009 A 
ATOM     12  C   UNL     1      -2.697   6.615  -2.257  0.00  0.00    +0.012 A 
ATOM     13  C   UNL     1      -3.089   7.790  -2.866  0.00  0.00    +0.020 A 
ATOM     14  C   UNL     1      -2.822   9.008  -2.264  0.00  0.00    +0.041 A 
ATOM     15  C   UNL     1      -2.162   9.055  -1.048  0.00  0.00    +0.020 A 
ATOM     16  C   UNL     1      -1.771   7.888  -0.426  0.00  0.00    +0.012 A 
ATOM     17 CL   UNL     1      -3.317  10.481  -3.037  0.00  0.00    -0.084 Cl
ENDBRANCH   8  11
ENDBRANCH   1   2
BRANCH   1  18
ATOM     18  N   UNL     1       0.451  -0.328   3.666  0.00  0.00    -0.288 N 
ATOM     19  C   UNL     1       0.291  -1.546   4.221  0.00  0.00    +0.305 C 
ATOM     20  O   UNL     1      -0.042  -2.489   3.530  0.00  0.00    -0.252 OA
ATOM     21  N   UNL     1       0.499  -1.717   5.541  0.00  0.00    -0.266 N 
ATOM     22  H   UNL     1       0.716   0.425   4.217  0.00  0.00    +0.151 HD
ATOM     23  H   UNL     1       0.699  -0.953   6.104  0.00  0.00    +0.156 HD
BRANCH  21  24
ATOM     24  C   UNL     1       0.426  -3.000   6.101  0.00  0.00    +0.077 A 
ATOM     25  C   UNL     1      -0.397  -3.961   5.533  0.00  0.00    +0.027 A 
ATOM     26  C   UNL     1      -0.467  -5.226   6.087  0.00  0.00    +0.002 A 
ATOM     27  C   UNL     1       0.282  -5.536   7.207  0.00  0.00    +0.004 A 
ATOM     28  C   UNL     1       1.104  -4.583   7.779  0.00  0.00    +0.047 A 
ATOM     29  C   UNL     1       1.184  -3.315   7.226  0.00  0.00    +0.142 A 
BRANCH  29  30
ATOM     30  O   UNL     1       1.997  -2.378   7.785  0.00  0.00    -0.490 OA
BRANCH  30  31
ATOM     31  C   UNL     1       2.744  -2.772   8.937  0.00  0.00    +0.226 C 
ATOM     32  C   UNL     1       3.594  -1.594   9.420  0.00  0.00    +0.048 C 
ENDBRANCH  30  31
ENDBRANCH  29  30
ENDBRANCH  21  24
ENDBRANCH   1  18
BRANCH   1  33
ATOM     33  C   UNL     1       1.499  -0.497   1.463  0.00  0.00    +0.015 C 
ATOM     34  C   UNL     1       2.674   0.305   2.025  0.00  0.00    +0.010 C 
BRANCH  33  36
ATOM     35  C   UNL     1       0.692  -2.794   0.902  0.00  0.00    +0.004 C 
ATOM     36  C   UNL     1       1.784  -1.993   1.613  0.00  0.00    +0.002 C 
ENDBRANCH  33  36
ENDBRANCH   1  33
TORSDOF 8
