REMARK  Name = ZINC45110443
REMARK  9 active torsions:
REMARK  status: ('A' for Active; 'I' for Inactive)
REMARK    1  A    between atoms: C_1  and  C_2
REMARK    2  A    between atoms: C_2  and  C_3
REMARK    3  A    between atoms: C_2  and  C_4
REMARK    4  A    between atoms: C_2  and  N_7
REMARK    5  A    between atoms: N_7  and  S_8
REMARK    6  A    between atoms: S_8  and  C_11
REMARK    7  A    between atoms: C_14  and  N_20
REMARK    8  A    between atoms: C_15  and  N_17
REMARK    9  A    between atoms: N_20  and  N_21
REMARK                            x       y       z     vdW  Elec       q    Type
REMARK                         _______ _______ _______ _____ _____    ______ ____
ROOT
ATOM      1  C   UNL     1       3.180  -0.040  -0.081  0.00  0.00    +0.108 A 
ATOM      2  C   UNL     1       2.909   0.466   1.178  0.00  0.00    +0.030 A 
ATOM      3  C   UNL     1       3.511  -0.087   2.291  0.00  0.00    +0.028 A 
ATOM      4  C   UNL     1       4.391  -1.153   2.144  0.00  0.00    +0.071 A 
ATOM      5  C   UNL     1       4.661  -1.657   0.879  0.00  0.00    +0.150 A 
ATOM      6  C   UNL     1       4.051  -1.103  -0.229  0.00  0.00    +0.063 A 
ENDROOT
BRANCH   1   7
ATOM      7  S   UNL     1       2.408   0.669  -1.497  0.00  0.00    +0.059 S 
ATOM      8  O   UNL     1       3.109   0.177  -2.631  0.00  0.00    -0.153 OA
ATOM      9  O   UNL     1       2.268   2.058  -1.232  0.00  0.00    -0.153 OA
BRANCH   7  10
ATOM     10  N   UNL     1       0.875   0.047  -1.582  0.00  0.00    -0.176 NA
ATOM     11  H   UNL     1       0.110   0.622  -1.426  0.00  0.00    +0.149 HD
BRANCH  10  13
ATOM     12  C   UNL     1       1.547  -2.223  -0.968  0.00  0.00    +0.039 C 
ATOM     13  C   UNL     1       0.676  -1.371  -1.893  0.00  0.00    +0.110 C 
ATOM     14  C   UNL     1       1.069  -1.633  -3.349  0.00  0.00    +0.039 C 
BRANCH  13  15
ATOM     15  C   UNL     1      -0.773  -1.731  -1.692  0.00  0.00    +0.232 C 
ATOM     16  O   UNL     1      -1.303  -2.544  -2.419  0.00  0.00    -0.274 OA
ATOM     17  N   UNL     1      -1.480  -1.149  -0.703  0.00  0.00    -0.328 N 
ATOM     18  H   UNL     1      -1.057  -0.499  -0.121  0.00  0.00    +0.145 HD
ATOM     19  H   UNL     1      -2.413  -1.381  -0.573  0.00  0.00    +0.145 HD
ENDBRANCH  13  15
ENDBRANCH  10  13
ENDBRANCH   7  10
ENDBRANCH   1   7
BRANCH   5  20
ATOM     20  N   UNL     1       5.598  -2.792   0.718  0.00  0.00    +0.058 N 
ATOM     21  O   UNL     1       6.590  -2.859   1.407  0.00  0.00    -0.126 OA
ATOM     22  O   UNL     1       5.372  -3.651  -0.102  0.00  0.00    -0.126 OA
ENDBRANCH   5  20
BRANCH   4  23
ATOM     23  N   UNL     1       5.003  -1.714   3.267  0.00  0.00    -0.281 N 
ATOM     24  H   UNL     1       5.652  -2.428   3.160  0.00  0.00    +0.166 HD
BRANCH  23  25
ATOM     25  N   UNL     1       4.689  -1.259   4.516  0.00  0.00    -0.256 NA
ATOM     26  H   UNL     1       3.696  -1.321   4.684  0.00  0.00    +0.140 HD
ATOM     27  H   UNL     1       5.207  -1.757   5.224  0.00  0.00    +0.140 HD
ENDBRANCH  23  25
ENDBRANCH   4  23
TORSDOF 7
