REMARK  Name = ZINC58177746
REMARK  11 active torsions:
REMARK  status: ('A' for Active; 'I' for Inactive)
REMARK    1  A    between atoms: C_1  and  C_2
REMARK    2  A    between atoms: C_7  and  N_8
REMARK    3  A    between atoms: N_8  and  C_9
REMARK    4  A    between atoms: C_9  and  N_11
REMARK    5  A    between atoms: N_11  and  N_12
REMARK    6  A    between atoms: C_13  and  C_15
REMARK    7  A    between atoms: C_15  and  C_16
REMARK    8  A    between atoms: C_15  and  N_20
REMARK    9  A    between atoms: C_16  and  C_17
REMARK   10  A    between atoms: C_17  and  S_18
REMARK   11  A    between atoms: S_18  and  C_19
REMARK                            x       y       z     vdW  Elec       q    Type
REMARK                         _______ _______ _______ _____ _____    ______ ____
ROOT
ATOM      1  N   UNL     1       4.668   0.942   1.166  0.00  0.00    -0.234 N 
ATOM      2  C   UNL     1       5.933   1.409   1.156  0.00  0.00    +0.249 C 
ATOM      3  O   UNL     1       6.543   1.527   2.198  0.00  0.00    -0.272 OA
ATOM      4  H   UNL     1       4.180   0.848   0.333  0.00  0.00    +0.173 HD
ENDROOT
BRANCH   1   5
ATOM      5  N   UNL     1       4.059   0.594   2.379  0.00  0.00    -0.246 N 
ATOM      6  H   UNL     1       4.548   0.689   3.211  0.00  0.00    +0.172 HD
BRANCH   5   7
ATOM      7  C   UNL     1       2.795   0.128   2.388  0.00  0.00    +0.147 C 
ATOM      8  S   UNL     1       2.051  -0.298   3.870  0.00  0.00    -0.017 S 
BRANCH   7   9
ATOM      9  N   UNL     1       2.116  -0.004   1.231  0.00  0.00    -0.322 N 
ATOM     10  H   UNL     1       2.538   0.237   0.392  0.00  0.00    +0.148 HD
BRANCH   9  17
ATOM     11  C   UNL     1      -0.019   1.526   0.010  0.00  0.00    +0.009 C 
ATOM     12  C   UNL     1       0.002  -0.004   0.002  0.00  0.00    +0.006 C 
ATOM     13  C   UNL     1       0.718  -0.497  -1.257  0.00  0.00    +0.005 C 
ATOM     14  C   UNL     1       0.739  -2.027  -1.265  0.00  0.00    +0.000 C 
ATOM     15  C   UNL     1       1.479  -2.534  -0.026  0.00  0.00    +0.002 C 
ATOM     16  C   UNL     1       0.763  -2.041   1.233  0.00  0.00    +0.022 C 
ATOM     17  C   UNL     1       0.742  -0.511   1.242  0.00  0.00    +0.075 C 
ENDBRANCH   9  17
ENDBRANCH   7   9
ENDBRANCH   5   7
ENDBRANCH   1   5
BRANCH   2  18
ATOM     18  C   UNL     1       6.588   1.783  -0.148  0.00  0.00    +0.163 C 
BRANCH  18  19
ATOM     19  N   UNL     1       8.043   1.796   0.022  0.00  0.00    -0.288 N 
ATOM     20  C   UNL     1       8.609   2.626   0.921  0.00  0.00    +0.298 C 
ATOM     21  O   UNL     1       7.912   3.364   1.590  0.00  0.00    -0.253 OA
ATOM     22  N   UNL     1       9.948   2.637   1.077  0.00  0.00    -0.313 N 
ATOM     23  H   UNL     1       8.599   1.207  -0.512  0.00  0.00    +0.151 HD
ATOM     24  H   UNL     1      10.504   2.049   0.543  0.00  0.00    +0.146 HD
ATOM     25  H   UNL     1      10.355   3.234   1.724  0.00  0.00    +0.146 HD
ENDBRANCH  18  19
BRANCH  18  26
ATOM     26  C   UNL     1       6.113   3.173  -0.577  0.00  0.00    +0.042 C 
BRANCH  26  27
ATOM     27  C   UNL     1       6.679   3.501  -1.960  0.00  0.00    +0.071 C 
BRANCH  27  28
ATOM     28  S   UNL     1       6.115   5.149  -2.469  0.00  0.00    -0.164 S 
ATOM     29  C   UNL     1       6.864   5.383  -4.104  0.00  0.00    +0.084 C 
ENDBRANCH  27  28
ENDBRANCH  26  27
ENDBRANCH  18  26
ENDBRANCH   2  18
TORSDOF 9
