REMARK  Name = ZINC20616948
REMARK  6 active torsions:
REMARK  status: ('A' for Active; 'I' for Inactive)
REMARK    1  A    between atoms: C_1  and  C_2
REMARK    2  A    between atoms: C_3  and  C_8
REMARK    3  A    between atoms: N_5  and  C_7
REMARK    4  A    between atoms: C_14  and  C_16
REMARK    5  A    between atoms: C_19  and  C_25
REMARK    6  A    between atoms: N_21  and  C_24
REMARK                            x       y       z     vdW  Elec       q    Type
REMARK                         _______ _______ _______ _____ _____    ______ ____
ROOT
ATOM      1  C   UNL     1      -8.399   0.322   0.083  0.00  0.00    +0.083 A 
ATOM      2  C   UNL     1      -8.465  -1.042   0.076  0.00  0.00    +0.077 A 
ATOM      3  S   UNL     1      -6.728  -1.459   0.051  0.00  0.00    -0.060 S 
ATOM      4  C   UNL     1      -6.102   0.161   0.061  0.00  0.00    +0.165 A 
ATOM      5  N   UNL     1      -7.200   0.888   0.075  0.00  0.00    -0.224 NA
ATOM      6  N   UNL     1      -4.779   0.583   0.051  0.00  0.00    -0.260 N 
ATOM      7  C   UNL     1      -3.783  -0.325   0.036  0.00  0.00    +0.256 C 
ATOM      8  O   UNL     1      -4.043  -1.514   0.032  0.00  0.00    -0.269 OA
ATOM      9  H   UNL     1      -4.545   1.657   0.054  0.00  0.00    +0.157 HD
ENDROOT
BRANCH   7  10
ATOM     10  C   UNL     1      -2.387   0.120   0.025  0.00  0.00    +0.077 A 
ATOM     11  C   UNL     1      -1.252  -0.635   0.011  0.00  0.00    +0.033 A 
ATOM     12  C   UNL     1       0.002  -0.004   0.002  0.00  0.00    +0.040 A 
ATOM     13  C   UNL     1       1.392  -0.353  -0.013  0.00  0.00    +0.173 A 
ATOM     14  N   UNL     1       2.103   0.734  -0.014  0.00  0.00    -0.166 NA
ATOM     15  N   UNL     1       1.253   1.847   0.000  0.00  0.00    -0.260 N 
ATOM     16  C   UNL     1      -0.017   1.399   0.010  0.00  0.00    +0.107 A 
ATOM     17  S   UNL     1      -1.748   1.787   0.034  0.00  0.00    -0.064 S 
ATOM     18  C   UNL     1       1.671   3.251   0.004  0.00  0.00    +0.173 C 
BRANCH  13  19
ATOM     19  C   UNL     1       1.940  -1.757  -0.026  0.00  0.00    +0.437 C 
ATOM     20  F   UNL     1       2.098  -2.184  -1.349  0.00  0.00    -0.164 F 
ATOM     21  F   UNL     1       3.180  -1.779   0.621  0.00  0.00    -0.164 F 
ATOM     22  F   UNL     1       1.052  -2.611   0.637  0.00  0.00    -0.164 F 
ENDBRANCH  13  19
ENDBRANCH   7  10
BRANCH   1  25
ATOM     23  C   UNL     1      -8.513   3.490   0.115  0.00  0.00    +0.068 C 
ATOM     24  C   UNL     1      -9.694   2.554   0.114  0.00  0.00    +0.069 A 
ATOM     25  C   UNL     1      -9.634   1.147   0.100  0.00  0.00    +0.041 A 
ATOM     26  C   UNL     1     -10.915   0.680   0.110  0.00  0.00    +0.118 A 
ATOM     27  N   UNL     1     -11.739   1.749   0.124  0.00  0.00    -0.274 N 
ATOM     28  N   UNL     1     -10.953   2.907   0.123  0.00  0.00    -0.176 NA
ATOM     29  C   UNL     1     -13.204   1.704   0.138  0.00  0.00    +0.172 C 
ENDBRANCH   1  25
TORSDOF 3
