REMARK  Name = ZINC22180982
REMARK  10 active torsions:
REMARK  status: ('A' for Active; 'I' for Inactive)
REMARK    1  A    between atoms: C_1  and  C_2
REMARK    2  A    between atoms: C_2  and  C_4
REMARK    3  A    between atoms: C_2  and  S_17
REMARK    4  A    between atoms: N_6  and  C_7
REMARK    5  A    between atoms: C_10  and  N_13
REMARK    6  A    between atoms: C_14  and  C_16
REMARK    7  A    between atoms: S_17  and  C_18
REMARK    8  A    between atoms: N_23  and  C_24
REMARK    9  A    between atoms: C_27  and  O_30
REMARK   10  A    between atoms: O_30  and  C_31
REMARK                            x       y       z     vdW  Elec       q    Type
REMARK                         _______ _______ _______ _____ _____    ______ ____
ROOT
ATOM      1  S   UNL     1       1.423  10.534   1.389  0.00  0.00    -0.084 S 
ENDROOT
BRANCH   1   2
ATOM      2  C   UNL     1       1.195  12.281   1.349  0.00  0.00    +0.161 A 
ATOM      3  N   UNL     1       0.086  12.975   1.179  0.00  0.00    -0.133 NA
ATOM      4  N   UNL     1       0.133  14.350   1.185  0.00  0.00    -0.125 NA
ATOM      5  C   UNL     1       1.286  14.968   1.351  0.00  0.00    +0.187 A 
ATOM      6  S   UNL     1       2.404  13.585   1.521  0.00  0.00    -0.024 S 
ATOM      7  N   UNL     1       1.559  16.330   1.386  0.00  0.00    -0.292 N 
ATOM      8  H   UNL     1       2.600  16.681   1.450  0.00  0.00    +0.154 HD
BRANCH   7   9
ATOM      9  C   UNL     1       0.510  17.255   1.341  0.00  0.00    +0.033 A 
ATOM     10  C   UNL     1       0.725  18.524   0.818  0.00  0.00    +0.027 A 
ATOM     11  C   UNL     1      -0.313  19.435   0.769  0.00  0.00    +0.048 A 
ATOM     12  C   UNL     1      -1.566  19.086   1.251  0.00  0.00    +0.130 A 
ATOM     13  C   UNL     1      -1.779  17.821   1.778  0.00  0.00    +0.048 A 
ATOM     14  C   UNL     1      -0.745  16.907   1.823  0.00  0.00    +0.027 A 
BRANCH  12  15
ATOM     15  O   UNL     1      -2.585  19.985   1.206  0.00  0.00    -0.406 OA
BRANCH  15  16
ATOM     16  C   UNL     1      -2.294  21.269   0.650  0.00  0.00    +0.575 C 
ATOM     17  F   UNL     1      -1.868  21.118  -0.674  0.00  0.00    -0.133 F 
ATOM     18  F   UNL     1      -3.446  22.062   0.682  0.00  0.00    -0.133 F 
ATOM     19  F   UNL     1      -1.284  21.883   1.398  0.00  0.00    -0.133 F 
ENDBRANCH  15  16
ENDBRANCH  12  15
ENDBRANCH   7   9
ENDBRANCH   1   2
BRANCH   1  21
ATOM     20  C   UNL     1      -0.748  10.242  -0.247  0.00  0.00    +0.029 C 
ATOM     21  C   UNL     1      -0.246   9.868   1.149  0.00  0.00    +0.136 C 
BRANCH  21  22
ATOM     22  C   UNL     1      -0.213   8.367   1.284  0.00  0.00    +0.230 C 
ATOM     23  O   UNL     1       0.835   7.770   1.157  0.00  0.00    -0.274 OA
ATOM     24  N   UNL     1      -1.347   7.689   1.547  0.00  0.00    -0.285 N 
ATOM     25  H   UNL     1      -2.283   8.235   1.739  0.00  0.00    +0.155 HD
BRANCH  24  26
ATOM     26  C   UNL     1      -1.335   6.288   1.576  0.00  0.00    +0.034 A 
ATOM     27  C   UNL     1      -2.434   5.575   1.115  0.00  0.00    +0.025 A 
ATOM     28  C   UNL     1      -2.422   4.195   1.143  0.00  0.00    +0.025 A 
ATOM     29  C   UNL     1      -1.311   3.520   1.632  0.00  0.00    +0.033 A 
ATOM     30  C   UNL     1      -0.214   4.233   2.098  0.00  0.00    +0.025 A 
ATOM     31  C   UNL     1      -0.224   5.613   2.065  0.00  0.00    +0.025 A 
BRANCH  29  32
ATOM     32  N   UNL     1      -1.299   2.119   1.660  0.00  0.00    -0.286 N 
ATOM     33  C   UNL     1      -0.144   1.452   1.469  0.00  0.00    +0.214 C 
ATOM     34  O   UNL     1       0.866   2.057   1.176  0.00  0.00    -0.276 OA
ATOM     35  C   UNL     1      -0.108  -0.048   1.612  0.00  0.00    +0.109 C 
ATOM     36  H   UNL     1      -2.232   1.565   1.839  0.00  0.00    +0.155 HD
ENDBRANCH  29  32
ENDBRANCH  24  26
ENDBRANCH  21  22
ENDBRANCH   1  21
TORSDOF 8
