REMARK  Name = ZINC61114061
REMARK  4 active torsions:
REMARK  status: ('A' for Active; 'I' for Inactive)
REMARK    1  A    between atoms: C_3  and  C_6
REMARK    2  A    between atoms: C_6  and  N_7
REMARK    3  A    between atoms: C_9  and  C_13
REMARK    4  A    between atoms: N_15  and  C_16
REMARK                            x       y       z     vdW  Elec       q    Type
REMARK                         _______ _______ _______ _____ _____    ______ ____
ROOT
ATOM      1  C   UNL     1       5.540   2.077   4.362  0.00  0.00    +0.222 C 
ATOM      2  O   UNL     1       6.214   2.914   3.800  0.00  0.00    -0.275 OA
ATOM      3  N   UNL     1       5.757   1.800   5.663  0.00  0.00    -0.284 N 
ATOM      4  H   UNL     1       5.177   1.178   6.130  0.00  0.00    +0.155 HD
ENDROOT
BRANCH   3   5
ATOM      5  C   UNL     1       6.820   2.409   6.341  0.00  0.00    +0.053 A 
ATOM      6  C   UNL     1       7.187   3.711   6.031  0.00  0.00    +0.046 A 
ATOM      7  C   UNL     1       8.237   4.310   6.701  0.00  0.00    +0.061 A 
ATOM      8  C   UNL     1       8.923   3.612   7.681  0.00  0.00    +0.061 A 
ATOM      9  C   UNL     1       8.559   2.314   7.992  0.00  0.00    +0.043 A 
ATOM     10  C   UNL     1       7.506   1.713   7.328  0.00  0.00    +0.064 A 
ATOM     11 CL   UNL     1       7.045   0.086   7.724  0.00  0.00    -0.082 Cl
ATOM     12 CL   UNL     1      10.241   4.367   8.521  0.00  0.00    -0.082 Cl
ATOM     13 CL   UNL     1       8.697   5.939   6.314  0.00  0.00    -0.082 Cl
ENDBRANCH   3   5
BRANCH   1  16
ATOM     14  N   UNL     1       4.075   0.628   1.351  0.00  0.00    -0.293 N 
ATOM     15  C   UNL     1       4.392   1.825   2.139  0.00  0.00    +0.121 C 
ATOM     16  C   UNL     1       4.460   1.347   3.606  0.00  0.00    +0.101 C 
ATOM     17  C   UNL     1       4.818  -0.147   3.434  0.00  0.00    +0.110 C 
ATOM     18  C   UNL     1       4.305  -0.494   2.054  0.00  0.00    +0.217 C 
ATOM     19  O   UNL     1       4.129  -1.621   1.641  0.00  0.00    -0.276 OA
BRANCH  14  20
ATOM     20  C   UNL     1       3.568   0.654  -0.023  0.00  0.00    +0.182 C 
BRANCH  20  23
ATOM     21  C   UNL     1      -0.043   1.391   0.033  0.00  0.00    +0.041 A 
ATOM     22  C   UNL     1       1.307   1.811   0.018  0.00  0.00    +0.046 A 
ATOM     23  C   UNL     1       2.062   0.698  -0.002  0.00  0.00    +0.122 A 
ATOM     24  O   UNL     1       1.245  -0.368   0.001  0.00  0.00    -0.466 OA
ATOM     25  C   UNL     1      -0.033   0.046   0.022  0.00  0.00    +0.195 A 
ENDBRANCH  20  23
ENDBRANCH  14  20
ENDBRANCH   1  16
TORSDOF 4
