REMARK  Name = ZINC44389872
REMARK  6 active torsions:
REMARK  status: ('A' for Active; 'I' for Inactive)
REMARK    1  A    between atoms: C_1  and  C_2
REMARK    2  A    between atoms: C_2  and  C_3
REMARK    3  A    between atoms: C_4  and  C_32
REMARK    4  A    between atoms: C_11  and  N_21
REMARK    5  A    between atoms: C_13  and  C_15
REMARK    6  A    between atoms: N_24  and  C_25
REMARK                            x       y       z     vdW  Elec       q    Type
REMARK                         _______ _______ _______ _____ _____    ______ ____
ROOT
ATOM      1  C   UNL     1      -1.426  -0.487   0.012  0.00  0.00    +0.040 A 
ATOM      2  C   UNL     1      -2.078  -0.736   1.205  0.00  0.00    +0.050 A 
ATOM      3  N   UNL     1      -3.317  -1.204   1.180  0.00  0.00    -0.215 NA
ATOM      4  C   UNL     1      -3.933  -1.433   0.031  0.00  0.00    +0.256 A 
ATOM      5  N   UNL     1      -3.343  -1.207  -1.131  0.00  0.00    -0.171 NA
ATOM      6  C   UNL     1      -2.104  -0.733  -1.181  0.00  0.00    +0.278 A 
ATOM      7  O   UNL     1      -1.505  -0.498  -2.373  0.00  0.00    -0.265 OA
ATOM      8  N   UNL     1      -5.237  -1.926   0.047  0.00  0.00    -0.183 N 
ATOM      9  C   UNL     1      -5.997  -2.216  -1.047  0.00  0.00    +0.133 A 
ATOM     10  C   UNL     1      -7.199  -2.669  -0.605  0.00  0.00    +0.074 A 
ATOM     11  C   UNL     1      -7.172  -2.656   0.803  0.00  0.00    +0.095 A 
ATOM     12  N   UNL     1      -5.994  -2.216   1.189  0.00  0.00    -0.162 NA
ATOM     13  C   UNL     1      -1.387  -0.480   2.520  0.00  0.00    +0.066 C 
ENDROOT
BRANCH  11  14
ATOM     14  C   UNL     1      -8.281  -3.073   1.697  0.00  0.00    +0.002 A 
ATOM     15  C   UNL     1      -9.480  -3.533   1.157  0.00  0.00    +0.010 A 
ATOM     16  C   UNL     1     -10.508  -3.919   1.994  0.00  0.00    +0.001 A 
ATOM     17  C   UNL     1     -10.349  -3.850   3.366  0.00  0.00    +0.000 A 
ATOM     18  C   UNL     1      -9.160  -3.394   3.908  0.00  0.00    +0.001 A 
ATOM     19  C   UNL     1      -8.124  -3.011   3.080  0.00  0.00    +0.010 A 
ENDBRANCH  11  14
BRANCH   9  20
ATOM     20  N   UNL     1      -5.611  -2.072  -2.379  0.00  0.00    -0.254 N 
ATOM     21  C   UNL     1      -6.467  -2.398  -3.368  0.00  0.00    +0.309 C 
ATOM     22  O   UNL     1      -7.576  -2.817  -3.098  0.00  0.00    -0.252 OA
ATOM     23  N   UNL     1      -6.095  -2.259  -4.655  0.00  0.00    -0.269 N 
ATOM     24  H   UNL     1      -4.727  -1.737  -2.594  0.00  0.00    +0.158 HD
ATOM     25  H   UNL     1      -5.236  -1.862  -4.871  0.00  0.00    +0.156 HD
BRANCH  23  26
ATOM     26  C   UNL     1      -6.946  -2.687  -5.681  0.00  0.00    +0.035 A 
ATOM     27  C   UNL     1      -6.415  -3.240  -6.839  0.00  0.00    +0.025 A 
ATOM     28  C   UNL     1      -7.257  -3.662  -7.849  0.00  0.00    +0.022 A 
ATOM     29  C   UNL     1      -8.628  -3.534  -7.708  0.00  0.00    +0.041 A 
ATOM     30  C   UNL     1      -9.159  -2.984  -6.555  0.00  0.00    +0.022 A 
ATOM     31  C   UNL     1      -8.322  -2.566  -5.539  0.00  0.00    +0.025 A 
ATOM     32 CL   UNL     1      -9.683  -4.065  -8.980  0.00  0.00    -0.084 Cl
ENDBRANCH  23  26
ENDBRANCH   9  20
BRANCH   1  34
ATOM     33  C   UNL     1      -0.048   1.575   0.008  0.00  0.00    +0.009 C 
ATOM     34  C   UNL     1      -0.016   0.046   0.001  0.00  0.00    +0.039 C 
ENDBRANCH   1  34
TORSDOF 4
