REMARK  Name = ZINC59378685
REMARK  5 active torsions:
REMARK  status: ('A' for Active; 'I' for Inactive)
REMARK    1  A    between atoms: C_1  and  O_2
REMARK    2  A    between atoms: O_2  and  C_3
REMARK    3  A    between atoms: C_3  and  O_28
REMARK    4  A    between atoms: C_6  and  C_14
REMARK    5  A    between atoms: O_28  and  C_29
REMARK                            x       y       z     vdW  Elec       q    Type
REMARK                         _______ _______ _______ _____ _____    ______ ____
ROOT
ATOM      1  C   UNL     1      -1.271  -0.554   0.108  0.00  0.00    +0.219 C 
ATOM      2  C   UNL     1      -2.032  -0.807  -1.245  0.00  0.00    +0.138 C 
ATOM      3  C   UNL     1      -0.956  -1.630  -2.024  0.00  0.00    +0.049 C 
ATOM      4  C   UNL     1      -0.291  -2.496  -0.926  0.00  0.00    +0.112 C 
ATOM      5  C   UNL     1      -1.049  -2.088   0.377  0.00  0.00    +0.148 C 
ATOM      6  C   UNL     1      -2.477  -2.601   0.154  0.00  0.00    +0.061 C 
ATOM      7  C   UNL     1      -3.044  -1.862  -0.782  0.00  0.00    +0.061 C 
ATOM      8 CL   UNL     1      -4.661  -2.053  -1.386  0.00  0.00    -0.085 Cl
ATOM      9 CL   UNL     1      -3.221  -3.928   0.991  0.00  0.00    -0.085 Cl
ATOM     10 CL   UNL     1      -0.255  -2.529   1.934  0.00  0.00    -0.106 Cl
ATOM     11 CL   UNL     1      -2.710   0.642  -2.075  0.00  0.00    -0.106 Cl
ENDROOT
BRANCH   4  12
ATOM     12  C   UNL     1       1.176  -2.172  -0.812  0.00  0.00    +0.242 C 
ATOM     13  O   UNL     1       1.622  -1.735   0.227  0.00  0.00    -0.272 OA
ATOM     14  N   UNL     1       1.994  -2.370  -1.866  0.00  0.00    -0.212 N 
ATOM     15  C   UNL     1       3.369  -2.122  -1.904  0.00  0.00    +0.098 A 
ATOM     16  C   UNL     1       4.275  -1.639  -0.974  0.00  0.00    +0.031 A 
ATOM     17  C   UNL     1       5.606  -1.501  -1.317  0.00  0.00    +0.022 A 
ATOM     18  C   UNL     1       6.036  -1.845  -2.588  0.00  0.00    +0.045 A 
ATOM     19  C   UNL     1       5.137  -2.327  -3.521  0.00  0.00    +0.068 A 
ATOM     20  C   UNL     1       3.800  -2.469  -3.184  0.00  0.00    +0.159 A 
ATOM     21  O   UNL     1       2.715  -2.904  -3.870  0.00  0.00    -0.407 OA
ATOM     22  C   UNL     1       1.636  -2.849  -3.074  0.00  0.00    +0.428 A 
ATOM     23  O   UNL     1       0.510  -3.176  -3.394  0.00  0.00    -0.222 OA
ATOM     24 CL   UNL     1       7.710  -1.669  -3.011  0.00  0.00    -0.083 Cl
ENDBRANCH   4  12
BRANCH   1  26
ATOM     25  C   UNL     1      -0.203   1.562  -0.244  0.00  0.00    +0.197 C 
ATOM     26  O   UNL     1      -0.043   0.152  -0.079  0.00  0.00    -0.348 OA
ENDBRANCH   1  26
BRANCH   1  27
ATOM     27  O   UNL     1      -2.099   0.061   1.097  0.00  0.00    -0.348 OA
ATOM     28  C   UNL     1      -1.452   0.258   2.356  0.00  0.00    +0.197 C 
ENDBRANCH   1  27
TORSDOF 3
