REMARK  Name = ZINC11718269
REMARK  7 active torsions:
REMARK  status: ('A' for Active; 'I' for Inactive)
REMARK    1  A    between atoms: C_1  and  C_2
REMARK    2  A    between atoms: C_2  and  C_4
REMARK    3  A    between atoms: C_2  and  N_49
REMARK    4  A    between atoms: N_6  and  C_7
REMARK    5  A    between atoms: C_16  and  N_19
REMARK    6  A    between atoms: N_19  and  S_20
REMARK    7  A    between atoms: S_20  and  C_23
REMARK                            x       y       z     vdW  Elec       q    Type
REMARK                         _______ _______ _______ _____ _____    ______ ____
ROOT
ATOM      1  C   UNL     1       4.511  -4.296   1.159  0.00  0.00    -0.076 C 
ATOM      2  C   UNL     1       5.992  -4.660   1.030  0.00  0.00    +0.002 C 
ATOM      3  C   UNL     1       6.139  -6.184   1.015  0.00  0.00    +0.073 C 
ATOM      4  C   UNL     1       5.314  -6.758  -0.140  0.00  0.00    +0.002 C 
ATOM      5  C   UNL     1       3.852  -6.333   0.023  0.00  0.00    -0.076 C 
ATOM      6  N   UNL     1       3.776  -4.857   0.004  0.00  0.00    +0.387 N 
ATOM      7  H   UNL     1       4.206  -4.513  -0.863  0.00  0.00    -0.081 HD
ENDROOT
BRANCH   6   9
ATOM      8  C   UNL     1       2.314  -2.896   0.106  0.00  0.00    -0.004 C 
ATOM      9  C   UNL     1       2.365  -4.424   0.046  0.00  0.00    +0.016 C 
BRANCH   9  10
ATOM     10  C   UNL     1       1.673  -4.900  -1.206  0.00  0.00    +0.203 C 
ATOM     11  O   UNL     1       2.318  -5.126  -2.207  0.00  0.00    -0.277 OA
ATOM     12  N   UNL     1       0.336  -5.076  -1.211  0.00  0.00    -0.287 N 
ATOM     13  H   UNL     1      -0.189  -4.828  -0.434  0.00  0.00    +0.155 HD
BRANCH  12  14
ATOM     14  C   UNL     1      -0.294  -5.615  -2.339  0.00  0.00    +0.033 A 
ATOM     15  C   UNL     1      -1.390  -6.454  -2.188  0.00  0.00    +0.024 A 
ATOM     16  C   UNL     1      -2.010  -6.985  -3.302  0.00  0.00    +0.017 A 
ATOM     17  C   UNL     1      -1.539  -6.682  -4.568  0.00  0.00    +0.018 A 
ATOM     18  C   UNL     1      -0.447  -5.847  -4.721  0.00  0.00    +0.017 A 
ATOM     19  C   UNL     1       0.177  -5.313  -3.610  0.00  0.00    +0.024 A 
ATOM     20 BR   UNL     1      -2.390  -7.412  -6.091  0.00  0.00    -0.050 Br
ENDBRANCH  12  14
ENDBRANCH   9  10
ENDBRANCH   6   9
BRANCH   3  21
ATOM     21  N   UNL     1       7.548  -6.538   0.834  0.00  0.00    -0.187 NA
ATOM     22  H   UNL     1       7.926  -6.582  -0.059  0.00  0.00    +0.148 HD
BRANCH  21  23
ATOM     23  S   UNL     1       8.498  -6.862   2.151  0.00  0.00    +0.065 S 
ATOM     24  O   UNL     1       9.786  -7.194   1.652  0.00  0.00    -0.153 OA
ATOM     25  O   UNL     1       8.288  -5.802   3.074  0.00  0.00    -0.153 OA
BRANCH  23  26
ATOM     26  C   UNL     1       7.859  -8.320   2.906  0.00  0.00    +0.142 A 
ATOM     27  C   UNL     1       8.184  -9.615   2.671  0.00  0.00    +0.036 A 
ATOM     28  C   UNL     1       7.546 -10.608   3.393  0.00  0.00    +0.010 A 
ATOM     29  C   UNL     1       6.616 -10.256   4.314  0.00  0.00    +0.047 A 
ATOM     30  S   UNL     1       6.623  -8.476   4.186  0.00  0.00    -0.077 S 
ENDBRANCH  23  26
ENDBRANCH  21  23
ENDBRANCH   3  21
TORSDOF 6
