REMARK  Name = ZINC63302925
REMARK  6 active torsions:
REMARK  status: ('A' for Active; 'I' for Inactive)
REMARK    1  A    between atoms: C_1  and  C_2
REMARK    2  A    between atoms: C_2  and  N_3
REMARK    3  A    between atoms: C_5  and  C_15
REMARK    4  A    between atoms: C_11  and  C_14
REMARK    5  A    between atoms: C_25  and  O_30
REMARK    6  A    between atoms: O_30  and  C_31
REMARK                            x       y       z     vdW  Elec       q    Type
REMARK                         _______ _______ _______ _____ _____    ______ ____
ROOT
ATOM      1  C   UNL     1      -2.979  -2.844   2.392  0.00  0.00    +0.248 C 
ATOM      2  O   UNL     1      -2.730  -2.237   1.365  0.00  0.00    -0.270 OA
ATOM      3  N   UNL     1      -2.619  -2.327   3.584  0.00  0.00    -0.293 N 
ATOM      4  C   UNL     1      -2.026  -0.988   3.666  0.00  0.00    +0.111 C 
ATOM      5  C   UNL     1      -2.850  -0.086   4.593  0.00  0.00    +0.048 C 
ATOM      6  C   UNL     1      -2.886  -0.716   5.987  0.00  0.00    +0.109 C 
ATOM      7  C   UNL     1      -3.419  -2.133   5.818  0.00  0.00    -0.021 C 
ATOM      8  C   UNL     1      -4.471  -2.239   6.618  0.00  0.00    +0.004 A 
ATOM      9  C   UNL     1      -5.352  -3.372   6.941  0.00  0.00    +0.055 A 
ATOM     10  C   UNL     1      -6.368  -3.126   7.814  0.00  0.00    +0.121 A 
ATOM     11  C   UNL     1      -6.609  -1.877   8.404  0.00  0.00    +0.047 A 
ATOM     12  C   UNL     1      -5.858  -0.769   8.181  0.00  0.00    +0.029 A 
ATOM     13  C   UNL     1      -4.725  -0.910   7.257  0.00  0.00    +0.043 A 
ATOM     14  N   UNL     1      -3.824  -0.027   6.876  0.00  0.00    -0.377 N 
ATOM     15  C   UNL     1      -2.821  -3.099   4.829  0.00  0.00    +0.141 C 
ATOM     16  H   UNL     1      -3.784   0.909   7.128  0.00  0.00    +0.160 HD
ENDROOT
BRANCH   1  19
ATOM     17  N   UNL     1      -5.531  -5.356   1.466  0.00  0.00    -0.312 N 
ATOM     18  C   UNL     1      -5.140  -4.128   2.168  0.00  0.00    +0.150 C 
ATOM     19  C   UNL     1      -3.643  -4.086   2.334  0.00  0.00    +0.079 C 
ATOM     20  C   UNL     1      -2.927  -5.244   2.429  0.00  0.00    +0.199 C 
ATOM     21  O   UNL     1      -1.586  -5.207   2.600  0.00  0.00    -0.287 OA
ATOM     22  C   UNL     1      -3.633  -6.531   2.343  0.00  0.00    +0.060 A 
ATOM     23  C   UNL     1      -4.955  -6.557   1.850  0.00  0.00    +0.110 A 
ATOM     24  N   UNL     1      -5.614  -7.698   1.760  0.00  0.00    -0.346 N 
ATOM     25  C   UNL     1      -5.066  -8.841   2.131  0.00  0.00    +0.014 A 
ATOM     26  C   UNL     1      -3.777  -8.896   2.631  0.00  0.00    +0.021 A 
ATOM     27  C   UNL     1      -3.031  -7.725   2.739  0.00  0.00    +0.017 A 
ATOM     28  C   UNL     1      -5.863 -10.114   2.008  0.00  0.00    +0.063 C 
ATOM     29  H   UNL     1      -6.520  -7.696   1.414  0.00  0.00    +0.167 HD
BRANCH  17  31
ATOM     30  C   UNL     1      -7.920  -5.502   0.964  0.00  0.00    +0.024 C 
ATOM     31  C   UNL     1      -6.517  -5.315   0.383  0.00  0.00    +0.103 C 
ENDBRANCH  17  31
ENDBRANCH   1  19
BRANCH  10  32
ATOM     32  O   UNL     1      -7.198  -4.154   8.131  0.00  0.00    -0.495 OA
ATOM     33  C   UNL     1      -8.257  -3.873   9.049  0.00  0.00    +0.277 C 
ENDBRANCH  10  32
TORSDOF 3
