REMARK  Name = ZINC00755620
REMARK  4 active torsions:
REMARK  status: ('A' for Active; 'I' for Inactive)
REMARK    1  A    between atoms: C_4  and  C_7
REMARK    2  A    between atoms: C_12  and  C_20
REMARK    3  A    between atoms: C_14  and  C_18
REMARK    4  A    between atoms: C_15  and  N_17
REMARK                            x       y       z     vdW  Elec       q    Type
REMARK                         _______ _______ _______ _____ _____    ______ ____
ROOT
ATOM      1  C   UNL     1      -0.536  -3.051  -3.642  0.00  0.00    +0.034 C 
ATOM      2  C   UNL     1      -0.821  -3.913  -2.410  0.00  0.00    +0.083 C 
ATOM      3  C   UNL     1      -0.815  -3.048  -1.172  0.00  0.00    +0.115 C 
ATOM      4  C   UNL     1      -1.202  -1.761  -1.232  0.00  0.00    +0.049 C 
ATOM      5  C   UNL     1      -1.208  -0.902   0.009  0.00  0.00    +0.137 C 
ATOM      6  C   UNL     1      -1.177  -1.770   1.236  0.00  0.00    +0.101 C 
ATOM      7  C   UNL     1      -0.786  -3.062   1.154  0.00  0.00    +0.198 C 
ATOM      8  O   UNL     1      -0.410  -3.605  -0.015  0.00  0.00    -0.445 OA
ATOM      9  C   UNL     1      -1.609  -1.175  -2.446  0.00  0.00    +0.164 C 
ATOM     10  O   UNL     1      -1.967  -0.014  -2.458  0.00  0.00    -0.292 OA
ATOM     11  C   UNL     1      -1.608  -1.960  -3.729  0.00  0.00    +0.088 C 
ENDROOT
BRANCH   1  15
ATOM     12  C   UNL     1      -0.666  -5.479  -7.154  0.00  0.00    +0.000 A 
ATOM     13  C   UNL     1       0.493  -4.802  -6.825  0.00  0.00    +0.000 A 
ATOM     14  C   UNL     1       0.535  -4.017  -5.688  0.00  0.00    +0.004 A 
ATOM     15  C   UNL     1      -0.582  -3.908  -4.881  0.00  0.00    -0.043 A 
ATOM     16  C   UNL     1      -1.740  -4.588  -5.208  0.00  0.00    +0.004 A 
ATOM     17  C   UNL     1      -1.783  -5.370  -6.347  0.00  0.00    +0.000 A 
ENDBRANCH   1  15
BRANCH   5  18
ATOM     18  C   UNL     1       0.002  -0.004   0.002  0.00  0.00    +0.119 A 
ATOM     19  C   UNL     1      -0.016   1.341   0.009  0.00  0.00    +0.047 A 
ATOM     20  C   UNL     1       1.331   1.769  -0.001  0.00  0.00    +0.057 A 
ATOM     21  C   UNL     1       2.093   0.659  -0.014  0.00  0.00    +0.170 A 
ATOM     22  O   UNL     1       1.282  -0.412  -0.012  0.00  0.00    -0.452 OA
ATOM     23 BR   UNL     1       3.983   0.615  -0.033  0.00  0.00    -0.008 Br
ENDBRANCH   5  18
BRANCH   7  24
ATOM     24  N   UNL     1      -0.770  -3.835   2.289  0.00  0.00    -0.328 N 
ATOM     25  H   UNL     1      -0.490  -4.762   2.241  0.00  0.00    +0.145 HD
ATOM     26  H   UNL     1      -1.040  -3.453   3.139  0.00  0.00    +0.145 HD
ENDBRANCH   7  24
BRANCH   6  27
ATOM     27  C   UNL     1      -1.566  -1.227   2.502  0.00  0.00    +0.101 C 
ATOM     28  N   UNL     1      -1.874  -0.796   3.507  0.00  0.00    -0.191 NA
ENDBRANCH   6  27
TORSDOF 4
