REMARK  Name = ZINC39012862
REMARK  4 active torsions:
REMARK  status: ('A' for Active; 'I' for Inactive)
REMARK    1  A    between atoms: N_7  and  S_8
REMARK    2  A    between atoms: S_8  and  C_11
REMARK    3  A    between atoms: C_18  and  N_23
REMARK    4  A    between atoms: N_26  and  C_29
REMARK                            x       y       z     vdW  Elec       q    Type
REMARK                         _______ _______ _______ _____ _____    ______ ____
ROOT
ATOM      1  C   UNL     1      -0.223   1.197   0.106  0.00  0.00    +0.002 A 
ATOM      2  C   UNL     1       0.918   2.014   0.051  0.00  0.00    +0.002 A 
ATOM      3  C   UNL     1       2.172   1.515  -0.010  0.00  0.00    +0.030 A 
ATOM      4  C   UNL     1       2.386   0.113  -0.021  0.00  0.00    +0.089 A 
ATOM      5  N   UNL     1       3.610  -0.368  -0.080  0.00  0.00    -0.226 NA
ATOM      6  C   UNL     1       3.847  -1.689  -0.093  0.00  0.00    +0.189 C 
ATOM      7  N   UNL     1       5.066  -2.140  -0.152  0.00  0.00    -0.110 NA
ATOM      8  C   UNL     1       2.677  -2.645  -0.038  0.00  0.00    +0.222 C 
ATOM      9  N   UNL     1       1.324  -2.072   0.028  0.00  0.00    -0.361 N 
ATOM     10  C   UNL     1       1.198  -0.774   0.035  0.00  0.00    +0.063 A 
ATOM     11  C   UNL     1      -0.132  -0.151   0.101  0.00  0.00    +0.027 A 
ATOM     12  H   UNL     1       0.543  -2.646   0.064  0.00  0.00    +0.162 HD
ENDROOT
BRANCH   8  13
ATOM     13  N   UNL     1       2.743  -3.503  -1.229  0.00  0.00    -0.274 NA
ATOM     14  C   UNL     1       1.791  -4.618  -1.127  0.00  0.00    +0.105 C 
ATOM     15  C   UNL     1       2.016  -5.584  -2.295  0.00  0.00    +0.120 C 
ATOM     16  N   UNL     1       1.950  -4.822  -3.551  0.00  0.00    -0.325 N 
ATOM     17  C   UNL     1       2.774  -3.611  -3.675  0.00  0.00    +0.120 C 
ATOM     18  C   UNL     1       2.520  -2.722  -2.453  0.00  0.00    +0.105 C 
BRANCH  16  19
ATOM     19  C   UNL     1       1.124  -5.239  -4.601  0.00  0.00    +0.065 A 
ATOM     20  C   UNL     1      -0.185  -4.784  -4.679  0.00  0.00    +0.026 A 
ATOM     21  C   UNL     1      -0.997  -5.197  -5.718  0.00  0.00    +0.002 A 
ATOM     22  C   UNL     1      -0.509  -6.063  -6.678  0.00  0.00    +0.003 A 
ATOM     23  C   UNL     1       0.794  -6.520  -6.604  0.00  0.00    +0.040 A 
ATOM     24  C   UNL     1       1.615  -6.106  -5.571  0.00  0.00    +0.144 A 
ATOM     25  F   UNL     1       2.890  -6.547  -5.502  0.00  0.00    -0.204 F 
ENDBRANCH  16  19
ENDBRANCH   8  13
BRANCH   7  26
ATOM     26  S   UNL     1       6.338  -1.082  -0.211  0.00  0.00    +0.100 S 
ATOM     27  O   UNL     1       6.239  -0.397  -1.452  0.00  0.00    -0.146 OA
ATOM     28  O   UNL     1       6.358  -0.400   1.035  0.00  0.00    -0.146 OA
BRANCH  26  29
ATOM     29  C   UNL     1       7.813  -2.044  -0.282  0.00  0.00    +0.113 A 
ATOM     30  C   UNL     1       8.445  -2.427   0.886  0.00  0.00    +0.030 A 
ATOM     31  C   UNL     1       9.601  -3.182   0.831  0.00  0.00    +0.022 A 
ATOM     32  C   UNL     1      10.127  -3.554  -0.394  0.00  0.00    +0.041 A 
ATOM     33  C   UNL     1       9.494  -3.170  -1.563  0.00  0.00    +0.022 A 
ATOM     34  C   UNL     1       8.334  -2.420  -1.506  0.00  0.00    +0.030 A 
ATOM     35 CL   UNL     1      11.580  -4.501  -0.464  0.00  0.00    -0.084 Cl
ENDBRANCH  26  29
ENDBRANCH   7  26
TORSDOF 4
