REMARK  Name = ZINC50975569
REMARK  13 active torsions:
REMARK  status: ('A' for Active; 'I' for Inactive)
REMARK    1  A    between atoms: C_1  and  C_2
REMARK    2  A    between atoms: C_2  and  C_4
REMARK    3  A    between atoms: C_2  and  N_21
REMARK    4  A    between atoms: C_6  and  C_7
REMARK    5  A    between atoms: C_6  and  C_9
REMARK    6  A    between atoms: N_11  and  C_12
REMARK    7  A    between atoms: C_15  and  O_19
REMARK    8  A    between atoms: O_19  and  C_20
REMARK    9  A    between atoms: C_22  and  O_24
REMARK   10  A    between atoms: O_24  and  C_25
REMARK   11  A    between atoms: C_25  and  C_26
REMARK   12  A    between atoms: C_25  and  C_27
REMARK   13  A    between atoms: C_25  and  C_28
REMARK                            x       y       z     vdW  Elec       q    Type
REMARK                         _______ _______ _______ _____ _____    ______ ____
ROOT
ATOM      1  C   UNL     1      -1.410  -0.530   0.011  0.00  0.00    +0.198 C 
ATOM      2  O   UNL     1      -2.223  -0.288  -1.031  0.00  0.00    -0.289 OA
ATOM      3  C   UNL     1      -1.866  -1.241   1.081  0.00  0.00    +0.158 C 
ENDROOT
BRANCH   3   4
ATOM      4  C   UNL     1      -3.248  -1.743   1.095  0.00  0.00    +0.262 C 
ATOM      5  O   UNL     1      -3.984  -1.524   0.151  0.00  0.00    -0.269 OA
ATOM      6  N   UNL     1      -3.699  -2.446   2.152  0.00  0.00    -0.281 N 
ATOM      7  H   UNL     1      -3.094  -2.679   2.874  0.00  0.00    +0.155 HD
BRANCH   6   8
ATOM      8  C   UNL     1      -5.041  -2.841   2.210  0.00  0.00    +0.035 A 
ATOM      9  C   UNL     1      -5.710  -3.199   1.047  0.00  0.00    +0.027 A 
ATOM     10  C   UNL     1      -7.035  -3.587   1.103  0.00  0.00    +0.049 A 
ATOM     11  C   UNL     1      -7.696  -3.621   2.322  0.00  0.00    +0.138 A 
ATOM     12  C   UNL     1      -7.029  -3.264   3.485  0.00  0.00    +0.084 A 
ATOM     13  C   UNL     1      -5.702  -2.880   3.430  0.00  0.00    +0.047 A 
ATOM     14 CL   UNL     1      -7.857  -3.306   5.010  0.00  0.00    -0.080 Cl
BRANCH  11  15
ATOM     15  O   UNL     1      -9.000  -4.003   2.377  0.00  0.00    -0.494 OA
ATOM     16  C   UNL     1      -9.625  -4.357   1.141  0.00  0.00    +0.277 C 
ENDBRANCH  11  15
ENDBRANCH   6   8
ENDBRANCH   3   4
BRANCH   1  18
ATOM     17  C   UNL     1      -0.007   1.514   0.010  0.00  0.00    +0.036 C 
ATOM     18  C   UNL     1       0.006  -0.015  -0.003  0.00  0.00    +0.145 C 
BRANCH  18  19
ATOM     19  N   UNL     1       0.685  -0.487  -1.213  0.00  0.00    -0.271 N 
ATOM     20  C   UNL     1       2.028  -0.605  -1.230  0.00  0.00    +0.401 C 
ATOM     21  O   UNL     1       2.675  -0.319  -0.242  0.00  0.00    -0.226 OA
ATOM     22  H   UNL     1       0.169  -0.716  -2.001  0.00  0.00    +0.153 HD
BRANCH  20  23
ATOM     23  O   UNL     1       2.652  -1.038  -2.341  0.00  0.00    -0.445 OA
BRANCH  23  24
ATOM     24  C   UNL     1       4.076  -1.138  -2.288  0.00  0.00    +0.107 C 
ATOM     25  C   UNL     1       4.478  -2.117  -1.183  0.00  0.00    +0.055 C 
ATOM     26  C   UNL     1       4.602  -1.644  -3.633  0.00  0.00    +0.055 C 
ATOM     27  C   UNL     1       4.674   0.239  -1.992  0.00  0.00    +0.055 C 
ENDBRANCH  23  24
ENDBRANCH  20  23
ENDBRANCH  18  19
ENDBRANCH   1  18
BRANCH   3  28
ATOM     28  C   UNL     1      -1.000  -1.499   2.191  0.00  0.00    +0.108 C 
ATOM     29  N   UNL     1      -0.312  -1.704   3.072  0.00  0.00    -0.191 NA
ENDBRANCH   3  28
TORSDOF 8
