REMARK  Name = ZINC25834715
REMARK  7 active torsions:
REMARK  status: ('A' for Active; 'I' for Inactive)
REMARK    1  A    between atoms: C_1  and  C_2
REMARK    2  A    between atoms: C_5  and  N_9
REMARK    3  A    between atoms: C_19  and  S_20
REMARK    4  A    between atoms: S_20  and  C_21
REMARK    5  A    between atoms: C_21  and  C_23
REMARK    6  A    between atoms: C_21  and  C_24
REMARK    7  A    between atoms: N_29  and  C_30
REMARK                            x       y       z     vdW  Elec       q    Type
REMARK                         _______ _______ _______ _____ _____    ______ ____
ROOT
ATOM      1  N   UNL     1      -6.334   1.113  -1.184  0.00  0.00    -0.255 N 
ATOM      2  C   UNL     1      -6.991   0.098  -1.793  0.00  0.00    +0.267 A 
ATOM      3  O   UNL     1      -7.730   0.302  -2.738  0.00  0.00    -0.267 OA
ATOM      4  C   UNL     1      -6.784  -1.258  -1.267  0.00  0.00    +0.065 A 
ATOM      5  C   UNL     1      -7.420  -2.368  -1.822  0.00  0.00    +0.015 A 
ATOM      6  C   UNL     1      -7.193  -3.608  -1.293  0.00  0.00    +0.001 A 
ATOM      7  C   UNL     1      -6.337  -3.773  -0.212  0.00  0.00    +0.002 A 
ATOM      8  C   UNL     1      -5.701  -2.703   0.351  0.00  0.00    +0.028 A 
ATOM      9  C   UNL     1      -5.913  -1.422  -0.166  0.00  0.00    +0.079 A 
ATOM     10  N   UNL     1      -5.304  -0.334   0.361  0.00  0.00    -0.223 NA
ATOM     11  C   UNL     1      -5.504   0.866  -0.125  0.00  0.00    +0.177 A 
ENDROOT
BRANCH   1  16
ATOM     12  C   UNL     1      -7.009   6.430  -3.051  0.00  0.00    +0.047 C 
ATOM     13  C   UNL     1      -6.831   5.018  -2.555  0.00  0.00    -0.015 A 
ATOM     14  C   UNL     1      -5.831   4.223  -3.083  0.00  0.00    +0.008 A 
ATOM     15  C   UNL     1      -5.661   2.930  -2.627  0.00  0.00    +0.027 A 
ATOM     16  C   UNL     1      -6.502   2.425  -1.644  0.00  0.00    +0.055 A 
ATOM     17  C   UNL     1      -7.506   3.224  -1.115  0.00  0.00    +0.065 A 
ATOM     18  C   UNL     1      -7.669   4.520  -1.572  0.00  0.00    +0.128 A 
ATOM     19  F   UNL     1      -8.645   5.299  -1.058  0.00  0.00    -0.205 F 
ENDBRANCH   1  16
BRANCH  11  20
ATOM     20  S   UNL     1      -4.671   2.226   0.624  0.00  0.00    -0.075 S 
BRANCH  20  21
ATOM     21  C   UNL     1      -3.755   1.357   1.921  0.00  0.00    +0.137 C 
ATOM     22  C   UNL     1      -4.740   0.748   2.920  0.00  0.00    +0.029 C 
BRANCH  21  23
ATOM     23  C   UNL     1      -2.852   2.330   2.635  0.00  0.00    +0.233 C 
ATOM     24  O   UNL     1      -3.122   3.511   2.648  0.00  0.00    -0.274 OA
ATOM     25  N   UNL     1      -1.743   1.886   3.260  0.00  0.00    -0.239 N 
ATOM     26  C   UNL     1      -0.933   2.756   3.894  0.00  0.00    +0.306 C 
ATOM     27  O   UNL     1      -1.204   3.941   3.907  0.00  0.00    -0.252 OA
ATOM     28  N   UNL     1       0.179   2.312   4.515  0.00  0.00    -0.302 N 
ATOM     29  C   UNL     1       1.060   3.259   5.204  0.00  0.00    +0.129 C 
ATOM     30  H   UNL     1      -1.500   0.813   3.253  0.00  0.00    +0.159 HD
ATOM     31  H   UNL     1       0.424   1.240   4.503  0.00  0.00    +0.150 HD
ENDBRANCH  21  23
ENDBRANCH  20  21
ENDBRANCH  11  20
TORSDOF 4
