REMARK  Name = ZINC13637080
REMARK  4 active torsions:
REMARK  status: ('A' for Active; 'I' for Inactive)
REMARK    1  A    between atoms: C_3  and  O_32
REMARK    2  A    between atoms: C_6  and  C_7
REMARK    3  A    between atoms: C_18  and  S_23
REMARK    4  A    between atoms: S_23  and  N_26
REMARK                            x       y       z     vdW  Elec       q    Type
REMARK                         _______ _______ _______ _____ _____    ______ ____
ROOT
ATOM      1  C   UNL     1       4.913   0.015  -0.017  0.00  0.00    +0.105 C 
ATOM      2  C   UNL     1       4.699   1.292   0.776  0.00  0.00    +0.029 C 
ATOM      3  C   UNL     1       5.842   2.316   0.772  0.00  0.00    +0.033 C 
ATOM      4  C   UNL     1       5.079   3.630   0.949  0.00  0.00    -0.030 C 
ATOM      5  C   UNL     1       3.839   3.499   0.493  0.00  0.00    -0.023 C 
ATOM      6  C   UNL     1       3.675   2.127  -0.049  0.00  0.00    +0.049 C 
ATOM      7  C   UNL     1       2.378   1.419  -0.015  0.00  0.00    -0.018 A 
ATOM      8  C   UNL     1       1.171   2.086   0.002  0.00  0.00    +0.034 A 
ATOM      9  C   UNL     1      -0.017   1.379   0.010  0.00  0.00    +0.106 A 
ATOM     10  C   UNL     1       0.002  -0.004   0.002  0.00  0.00    +0.030 A 
ATOM     11  C   UNL     1       1.204  -0.681  -0.006  0.00  0.00    +0.025 A 
ATOM     12  C   UNL     1       2.404   0.020  -0.012  0.00  0.00    +0.031 A 
ATOM     13  N   UNL     1       3.612  -0.688   0.000  0.00  0.00    -0.336 N 
ATOM     14  H   UNL     1       3.595  -1.658   0.021  0.00  0.00    +0.147 HD
ENDROOT
BRANCH   1  20
ATOM     15  C   UNL     1       5.671  -1.553   1.781  0.00  0.00    +0.009 A 
ATOM     16  C   UNL     1       6.638  -2.336   2.381  0.00  0.00    +0.046 A 
ATOM     17  C   UNL     1       7.915  -2.392   1.842  0.00  0.00    +0.117 A 
ATOM     18  C   UNL     1       8.216  -1.666   0.700  0.00  0.00    +0.046 A 
ATOM     19  C   UNL     1       7.244  -0.889   0.100  0.00  0.00    +0.009 A 
ATOM     20  C   UNL     1       5.972  -0.834   0.639  0.00  0.00    -0.027 A 
BRANCH  17  21
ATOM     21  O   UNL     1       8.870  -3.157   2.434  0.00  0.00    -0.507 OA
ATOM     22  H   UNL     1       9.387  -2.691   3.106  0.00  0.00    +0.292 HD
ENDBRANCH  17  21
ENDBRANCH   1  20
BRANCH   9  23
ATOM     23  S   UNL     1      -1.554   2.239   0.022  0.00  0.00    +0.061 S 
ATOM     24  O   UNL     1      -1.303   3.527  -0.523  0.00  0.00    -0.153 OA
ATOM     25  O   UNL     1      -2.519   1.354  -0.529  0.00  0.00    -0.153 OA
BRANCH  23  26
ATOM     26  N   UNL     1      -1.974   2.470   1.607  0.00  0.00    -0.172 NA
ATOM     27  C   UNL     1      -2.787   1.477   2.327  0.00  0.00    +0.137 C 
ATOM     28  C   UNL     1      -2.079   1.148   3.651  0.00  0.00    +0.177 C 
ATOM     29  O   UNL     1      -1.798   2.364   4.348  0.00  0.00    -0.377 OA
ATOM     30  C   UNL     1      -0.907   3.242   3.657  0.00  0.00    +0.177 C 
ATOM     31  C   UNL     1      -1.550   3.676   2.335  0.00  0.00    +0.137 C 
ENDBRANCH  23  26
ENDBRANCH   9  23
TORSDOF 4
