REMARK  Name = ZINC62218650
REMARK  3 active torsions:
REMARK  status: ('A' for Active; 'I' for Inactive)
REMARK    1  A    between atoms: C_6  and  N_7
REMARK    2  A    between atoms: C_8  and  C_14
REMARK    3  A    between atoms: C_9  and  C_12
REMARK                            x       y       z     vdW  Elec       q    Type
REMARK                         _______ _______ _______ _____ _____    ______ ____
ROOT
ATOM      1  N   UNL     1      -1.311  -0.585  -0.142  0.00  0.00    -0.216 N 
ATOM      2  C   UNL     1      -1.390  -1.858  -0.583  0.00  0.00    +0.078 A 
ATOM      3  C   UNL     1      -2.608  -2.348  -0.158  0.00  0.00    +0.148 A 
ATOM      4  N   UNL     1      -3.238  -1.373   0.524  0.00  0.00    -0.126 NA
ATOM      5  N   UNL     1      -2.498  -0.321   0.556  0.00  0.00    -0.060 NA
ENDROOT
BRANCH   1  11
ATOM      6  C   UNL     1      -0.490   1.658  -0.514  0.00  0.00    +0.031 A 
ATOM      7  C   UNL     1       0.562   2.531  -0.708  0.00  0.00    +0.042 A 
ATOM      8  C   UNL     1       1.863   2.057  -0.730  0.00  0.00    +0.142 A 
ATOM      9  C   UNL     1       2.111   0.704  -0.557  0.00  0.00    +0.078 A 
ATOM     10  C   UNL     1       1.061  -0.172  -0.362  0.00  0.00    +0.050 A 
ATOM     11  C   UNL     1      -0.244   0.303  -0.340  0.00  0.00    +0.069 A 
ATOM     12 CL   UNL     1       3.742   0.111  -0.586  0.00  0.00    -0.081 Cl
ATOM     13  F   UNL     1       2.890   2.913  -0.920  0.00  0.00    -0.204 F 
ENDBRANCH   1  11
BRANCH   2  14
ATOM     14  C   UNL     1      -0.350  -2.600  -1.382  0.00  0.00    +0.040 C 
ATOM     15  C   UNL     1      -0.933  -3.408  -2.553  0.00  0.00    +0.010 C 
ATOM     16  C   UNL     1       0.073  -4.512  -2.190  0.00  0.00    +0.001 C 
ATOM     17  C   UNL     1       0.060  -3.946  -0.760  0.00  0.00    +0.010 C 
ENDBRANCH   2  14
BRANCH   3  18
ATOM     18  C   UNL     1      -3.128  -3.698  -0.408  0.00  0.00    +0.282 C 
ATOM     19  O   UNL     1      -4.240  -3.999  -0.030  0.00  0.00    -0.294 OA
ENDBRANCH   3  18
TORSDOF 3
