REMARK  Name = ZINC47833544
REMARK  4 active torsions:
REMARK  status: ('A' for Active; 'I' for Inactive)
REMARK    1  A    between atoms: C_4  and  C_17
REMARK    2  A    between atoms: C_6  and  N_7
REMARK    3  A    between atoms: N_10  and  C_11
REMARK    4  A    between atoms: C_11  and  C_12
REMARK                            x       y       z     vdW  Elec       q    Type
REMARK                         _______ _______ _______ _____ _____    ______ ____
ROOT
ATOM      1  C   UNL     1      -0.021   1.325  -0.200  0.00  0.00    +0.025 A 
ATOM      2  C   UNL     1       1.147   2.061  -0.271  0.00  0.00    +0.022 A 
ATOM      3  C   UNL     1       2.367   1.449  -0.061  0.00  0.00    +0.052 A 
ATOM      4  C   UNL     1       2.423   0.083   0.225  0.00  0.00    +0.039 A 
ATOM      5  C   UNL     1       1.244  -0.658   0.297  0.00  0.00    +0.036 A 
ATOM      6  C   UNL     1       0.025  -0.034   0.084  0.00  0.00    +0.036 A 
ATOM      7 CL   UNL     1       3.831   2.377  -0.152  0.00  0.00    -0.083 Cl
ENDROOT
BRANCH   4   8
ATOM      8  C   UNL     1       3.728  -0.576   0.451  0.00  0.00    +0.166 A 
ATOM      9  N   UNL     1       4.808  -0.453  -0.292  0.00  0.00    -0.129 NA
ATOM     10  N   UNL     1       5.760  -1.162   0.204  0.00  0.00    -0.134 NA
ATOM     11  C   UNL     1       5.348  -1.768   1.282  0.00  0.00    +0.134 A 
ATOM     12  N   UNL     1       4.047  -1.422   1.472  0.00  0.00    -0.311 N 
ATOM     13  C   UNL     1       3.170  -1.885   2.547  0.00  0.00    +0.125 C 
ATOM     14  C   UNL     1       4.013  -2.218   3.781  0.00  0.00    +0.022 C 
ATOM     15  C   UNL     1       4.459  -3.678   3.722  0.00  0.00    +0.002 C 
ATOM     16  C   UNL     1       5.325  -3.925   2.491  0.00  0.00    +0.008 C 
ATOM     17  C   UNL     1       6.147  -2.679   2.178  0.00  0.00    +0.076 C 
ENDBRANCH   4   8
BRANCH   6  18
ATOM     18  N   UNL     1      -1.162  -0.775   0.155  0.00  0.00    -0.269 N 
ATOM     19  C   UNL     1      -1.189  -2.049  -0.284  0.00  0.00    +0.304 C 
ATOM     20  O   UNL     1      -0.165  -2.582  -0.665  0.00  0.00    -0.252 OA
ATOM     21  N   UNL     1      -2.351  -2.731  -0.300  0.00  0.00    -0.295 N 
ATOM     22  H   UNL     1      -1.964  -0.370   0.521  0.00  0.00    +0.156 HD
ATOM     23  H   UNL     1      -3.167  -2.306   0.004  0.00  0.00    +0.151 HD
BRANCH  21  24
ATOM     24  C   UNL     1      -2.380  -4.116  -0.777  0.00  0.00    +0.144 C 
BRANCH  24  25
ATOM     25  C   UNL     1      -3.788  -4.647  -0.694  0.00  0.00    +0.007 A 
ATOM     26  C   UNL     1      -4.375  -5.306   0.410  0.00  0.00    +0.046 A 
ATOM     27  C   UNL     1      -5.639  -5.606   0.058  0.00  0.00    +0.195 A 
ATOM     28  O   UNL     1      -5.846  -5.165  -1.194  0.00  0.00    -0.471 OA
ATOM     29  C   UNL     1      -4.729  -4.578  -1.653  0.00  0.00    +0.200 A 
ENDBRANCH  24  25
ENDBRANCH  21  24
ENDBRANCH   6  18
TORSDOF 4
