REMARK  Name = ZINC35271371
REMARK  18 active torsions:
REMARK  status: ('A' for Active; 'I' for Inactive)
REMARK    1  A    between atoms: C_1  and  O_2
REMARK    2  A    between atoms: O_2  and  C_3
REMARK    3  A    between atoms: C_5  and  C_10
REMARK    4  A    between atoms: C_8  and  O_9
REMARK    5  A    between atoms: C_10  and  C_12
REMARK    6  A    between atoms: C_10  and  C_14
REMARK    7  A    between atoms: C_12  and  O_13
REMARK    8  A    between atoms: C_14  and  C_16
REMARK    9  A    between atoms: C_14  and  O_25
REMARK   10  A    between atoms: C_19  and  O_24
REMARK   11  A    between atoms: C_20  and  O_22
REMARK   12  A    between atoms: O_22  and  C_23
REMARK   13  A    between atoms: O_25  and  C_26
REMARK   14  A    between atoms: C_28  and  O_41
REMARK   15  A    between atoms: C_30  and  O_40
REMARK   16  A    between atoms: C_32  and  O_39
REMARK   17  A    between atoms: C_34  and  C_37
REMARK   18  A    between atoms: C_37  and  O_38
REMARK                            x       y       z     vdW  Elec       q    Type
REMARK                         _______ _______ _______ _____ _____    ______ ____
ROOT
ATOM      1  C   UNL     1      -5.696  -0.079  -1.206  0.00  0.00    +0.161 C 
ENDROOT
BRANCH   1   2
ATOM      2  C   UNL     1      -4.901   0.256  -2.442  0.00  0.00    -0.014 A 
ATOM      3  C   UNL     1      -4.827   1.565  -2.881  0.00  0.00    +0.010 A 
ATOM      4  C   UNL     1      -4.099   1.877  -4.013  0.00  0.00    +0.049 A 
ATOM      5  C   UNL     1      -3.441   0.877  -4.712  0.00  0.00    +0.158 A 
ATOM      6  C   UNL     1      -3.516  -0.440  -4.271  0.00  0.00    +0.162 A 
ATOM      7  C   UNL     1      -4.243  -0.746  -3.131  0.00  0.00    +0.055 A 
BRANCH   5   8
ATOM      8  O   UNL     1      -2.725   1.183  -5.827  0.00  0.00    -0.503 OA
ATOM      9  H   UNL     1      -1.798   1.397  -5.653  0.00  0.00    +0.292 HD
ENDBRANCH   5   8
BRANCH   6  10
ATOM     10  O   UNL     1      -2.872  -1.425  -4.953  0.00  0.00    -0.491 OA
ATOM     11  C   UNL     1      -2.993  -2.754  -4.442  0.00  0.00    +0.277 C 
ENDBRANCH   6  10
ENDBRANCH   1   2
BRANCH   1  12
ATOM     12  O   UNL     1      -6.905   0.682  -1.197  0.00  0.00    -0.340 OA
BRANCH  12  13
ATOM     13  C   UNL     1      -8.004   0.037  -1.843  0.00  0.00    +0.282 C 
ATOM     14  C   UNL     1      -9.161   1.028  -1.994  0.00  0.00    +0.201 C 
ATOM     15  C   UNL     1     -10.356   0.312  -2.632  0.00  0.00    +0.179 C 
ATOM     16  C   UNL     1     -10.734  -0.896  -1.769  0.00  0.00    +0.177 C 
ATOM     17  C   UNL     1      -9.516  -1.812  -1.627  0.00  0.00    +0.178 C 
ATOM     18  O   UNL     1      -8.432  -1.077  -1.056  0.00  0.00    -0.341 OA
BRANCH  14  19
ATOM     19  O   UNL     1      -9.534   1.527  -0.708  0.00  0.00    -0.384 OA
ATOM     20  H   UNL     1      -8.822   1.989  -0.244  0.00  0.00    +0.210 HD
ENDBRANCH  14  19
BRANCH  15  21
ATOM     21  O   UNL     1     -11.464   1.211  -2.712  0.00  0.00    -0.386 OA
ATOM     22  H   UNL     1     -11.292   2.003  -3.239  0.00  0.00    +0.210 HD
ENDBRANCH  15  21
BRANCH  16  23
ATOM     23  O   UNL     1     -11.150  -0.448  -0.477  0.00  0.00    -0.386 OA
ATOM     24  H   UNL     1     -11.916   0.141  -0.493  0.00  0.00    +0.210 HD
ENDBRANCH  16  23
BRANCH  17  25
ATOM     25  C   UNL     1      -9.868  -2.991  -0.717  0.00  0.00    +0.190 C 
BRANCH  25  26
ATOM     26  O   UNL     1      -8.772  -3.906  -0.677  0.00  0.00    -0.392 OA
ATOM     27  H   UNL     1      -8.925  -4.680  -0.118  0.00  0.00    +0.210 HD
ENDBRANCH  25  26
ENDBRANCH  17  25
ENDBRANCH  12  13
ENDBRANCH   1  12
BRANCH   1  28
ATOM     28  C   UNL     1      -4.871   0.257   0.037  0.00  0.00    +0.078 C 
BRANCH  28  31
ATOM     29  C   UNL     1      -1.201  -0.638   0.010  0.00  0.00    +0.162 A 
ATOM     30  C   UNL     1      -2.374   0.099   0.019  0.00  0.00    +0.053 A 
ATOM     31  C   UNL     1      -3.596  -0.546   0.027  0.00  0.00    -0.036 A 
ATOM     32  C   UNL     1      -3.652  -1.928   0.026  0.00  0.00    +0.008 A 
ATOM     33  C   UNL     1      -2.485  -2.669   0.017  0.00  0.00    +0.049 A 
ATOM     34  C   UNL     1      -1.257  -2.028   0.003  0.00  0.00    +0.158 A 
BRANCH  29  36
ATOM     35  C   UNL     1      -0.017   1.425   0.010  0.00  0.00    +0.277 C 
ATOM     36  O   UNL     1       0.002  -0.004   0.002  0.00  0.00    -0.491 OA
ENDBRANCH  29  36
BRANCH  34  37
ATOM     37  O   UNL     1      -0.108  -2.756  -0.012  0.00  0.00    -0.503 OA
ATOM     38  H   UNL     1       0.232  -2.972   0.867  0.00  0.00    +0.292 HD
ENDBRANCH  34  37
ENDBRANCH  28  31
BRANCH  28  39
ATOM     39  C   UNL     1      -5.678  -0.083   1.292  0.00  0.00    +0.166 C 
BRANCH  39  40
ATOM     40  O   UNL     1      -4.957   0.338   2.451  0.00  0.00    -0.394 OA
ATOM     41  H   UNL     1      -5.410   0.154   3.285  0.00  0.00    +0.209 HD
ENDBRANCH  39  40
ENDBRANCH  28  39
ENDBRANCH   1  28
TORSDOF 16
