REMARK  Name = ZINC16588959
REMARK  8 active torsions:
REMARK  status: ('A' for Active; 'I' for Inactive)
REMARK    1  A    between atoms: C_1  and  C_2
REMARK    2  A    between atoms: N_5  and  S_11
REMARK    3  A    between atoms: C_7  and  C_10
REMARK    4  A    between atoms: S_11  and  C_14
REMARK    5  A    between atoms: C_17  and  N_20
REMARK    6  A    between atoms: C_21  and  C_23
REMARK    7  A    between atoms: C_23  and  S_24
REMARK    8  A    between atoms: S_24  and  C_25
REMARK                            x       y       z     vdW  Elec       q    Type
REMARK                         _______ _______ _______ _____ _____    ______ ____
ROOT
ATOM      1  C   UNL     1      -1.165  -3.411  -2.163  0.00  0.00    +0.106 A 
ATOM      2  C   UNL     1      -1.266  -2.728  -3.361  0.00  0.00    +0.030 A 
ATOM      3  C   UNL     1      -0.422  -3.039  -4.409  0.00  0.00    +0.025 A 
ATOM      4  C   UNL     1       0.529  -4.040  -4.259  0.00  0.00    +0.034 A 
ATOM      5  C   UNL     1       0.628  -4.724  -3.055  0.00  0.00    +0.025 A 
ATOM      6  C   UNL     1      -0.216  -4.405  -2.009  0.00  0.00    +0.030 A 
ENDROOT
BRANCH   4   7
ATOM      7  N   UNL     1       1.385  -4.358  -5.319  0.00  0.00    -0.285 N 
ATOM      8  C   UNL     1       1.793  -3.394  -6.168  0.00  0.00    +0.227 C 
ATOM      9  O   UNL     1       1.497  -2.237  -5.959  0.00  0.00    -0.275 OA
ATOM     10  H   UNL     1       1.685  -5.272  -5.442  0.00  0.00    +0.155 HD
BRANCH   8  11
ATOM     11  C   UNL     1       2.617  -3.755  -7.377  0.00  0.00    +0.170 C 
BRANCH  11  12
ATOM     12  S   UNL     1       3.006  -2.251  -8.314  0.00  0.00    -0.113 S 
BRANCH  12  13
ATOM     13  C   UNL     1       3.960  -2.833  -9.677  0.00  0.00    +0.044 A 
ATOM     14  C   UNL     1       4.229  -4.189  -9.810  0.00  0.00    +0.017 A 
ATOM     15  C   UNL     1       4.977  -4.642 -10.879  0.00  0.00    +0.001 A 
ATOM     16  C   UNL     1       5.458  -3.747 -11.818  0.00  0.00    +0.003 A 
ATOM     17  C   UNL     1       5.194  -2.396 -11.689  0.00  0.00    +0.039 A 
ATOM     18  C   UNL     1       4.441  -1.936 -10.625  0.00  0.00    +0.137 A 
ATOM     19  F   UNL     1       4.177  -0.616 -10.503  0.00  0.00    -0.204 F 
ENDBRANCH  12  13
ENDBRANCH  11  12
ENDBRANCH   8  11
ENDBRANCH   4   7
BRANCH   1  20
ATOM     20  S   UNL     1      -2.244  -3.011  -0.829  0.00  0.00    +0.061 S 
ATOM     21  O   UNL     1      -2.307  -4.162   0.002  0.00  0.00    -0.153 OA
ATOM     22  O   UNL     1      -3.402  -2.424  -1.405  0.00  0.00    -0.153 OA
BRANCH  20  26
ATOM     23  C   UNL     1      -0.548   1.794  -0.481  0.00  0.00    +0.039 C 
ATOM     24  C   UNL     1      -0.354   0.282  -0.356  0.00  0.00    +0.131 C 
ATOM     25  C   UNL     1      -1.721  -0.403  -0.246  0.00  0.00    +0.140 C 
ATOM     26  N   UNL     1      -1.504  -1.826   0.060  0.00  0.00    -0.172 NA
ATOM     27  C   UNL     1      -0.612  -2.164   1.179  0.00  0.00    +0.140 C 
ATOM     28  C   UNL     1       0.702  -1.393   1.000  0.00  0.00    +0.131 C 
ATOM     29  O   UNL     1       0.413  -0.006   0.816  0.00  0.00    -0.371 OA
ATOM     30  C   UNL     1       1.574  -1.574   2.244  0.00  0.00    +0.039 C 
ENDBRANCH  20  26
ENDBRANCH   1  20
TORSDOF 6
