REMARK  Name = ZINC01893609
REMARK  4 active torsions:
REMARK  status: ('A' for Active; 'I' for Inactive)
REMARK    1  A    between atoms: C_3  and  N_24
REMARK    2  A    between atoms: C_6  and  C_7
REMARK    3  A    between atoms: C_19  and  N_23
REMARK    4  A    between atoms: C_20  and  C_21
REMARK                            x       y       z     vdW  Elec       q    Type
REMARK                         _______ _______ _______ _____ _____    ______ ____
ROOT
ATOM      1  C   UNL     1      -1.293  -0.775   0.010  0.00  0.00    +0.105 C 
ATOM      2  C   UNL     1      -1.349  -1.641   1.238  0.00  0.00    +0.091 A 
ATOM      3  C   UNL     1      -1.634  -1.073   2.486  0.00  0.00    +0.262 A 
ATOM      4  O   UNL     1      -1.839   0.126   2.591  0.00  0.00    -0.267 OA
ATOM      5  N   UNL     1      -1.679  -1.876   3.570  0.00  0.00    -0.273 N 
ATOM      6  H   UNL     1      -1.875  -1.502   4.443  0.00  0.00    +0.173 HD
ATOM      7  C   UNL     1      -1.450  -3.208   3.437  0.00  0.00    +0.352 A 
ATOM      8  O   UNL     1      -1.499  -3.997   4.530  0.00  0.00    -0.245 OA
ATOM      9  N   UNL     1      -1.182  -3.746   2.269  0.00  0.00    -0.157 NA
ATOM     10  C   UNL     1      -1.124  -3.001   1.157  0.00  0.00    +0.236 A 
ATOM     11  O   UNL     1      -0.846  -3.588  -0.026  0.00  0.00    -0.423 OA
ATOM     12  C   UNL     1      -1.150  -2.960  -1.176  0.00  0.00    +0.200 C 
ATOM     13  C   UNL     1      -1.373  -1.629  -1.226  0.00  0.00    +0.098 C 
ENDROOT
BRANCH   1  19
ATOM     14  C   UNL     1      -0.017   1.378   0.010  0.00  0.00    +0.007 A 
ATOM     15  C   UNL     1       1.171   2.086   0.002  0.00  0.00    +0.033 A 
ATOM     16  C   UNL     1       2.377   1.411  -0.013  0.00  0.00    +0.126 A 
ATOM     17  C   UNL     1       2.396   0.029  -0.020  0.00  0.00    +0.033 A 
ATOM     18  C   UNL     1       1.208  -0.679  -0.012  0.00  0.00    +0.007 A 
ATOM     19  C   UNL     1       0.002  -0.004   0.002  0.00  0.00    -0.034 A 
BRANCH  16  20
ATOM     20  N   UNL     1       3.649   2.168  -0.022  0.00  0.00    +0.056 N 
ATOM     21  O   UNL     1       3.633   3.377  -0.016  0.00  0.00    -0.126 OA
ATOM     22  O   UNL     1       4.704   1.578  -0.035  0.00  0.00    -0.126 OA
ENDBRANCH  16  20
ENDBRANCH   1  19
BRANCH  12  23
ATOM     23  N   UNL     1      -1.236  -3.694  -2.332  0.00  0.00    -0.328 N 
ATOM     24  H   UNL     1      -1.078  -4.651  -2.312  0.00  0.00    +0.145 HD
ATOM     25  H   UNL     1      -1.454  -3.256  -3.170  0.00  0.00    +0.145 HD
ENDBRANCH  12  23
BRANCH  13  26
ATOM     26  C   UNL     1      -1.692  -1.019  -2.482  0.00  0.00    +0.101 C 
ATOM     27  N   UNL     1      -1.945  -0.536  -3.478  0.00  0.00    -0.191 NA
ENDBRANCH  13  26
TORSDOF 4
