REMARK  Name = ZINC38999333
REMARK  10 active torsions:
REMARK  status: ('A' for Active; 'I' for Inactive)
REMARK    1  A    between atoms: C_4  and  C_7
REMARK    2  A    between atoms: C_7  and  O_8
REMARK    3  A    between atoms: O_8  and  C_9
REMARK    4  A    between atoms: C_12  and  N_15
REMARK    5  A    between atoms: C_16  and  C_18
REMARK    6  A    between atoms: C_18  and  S_19
REMARK    7  A    between atoms: S_19  and  C_20
REMARK    8  A    between atoms: C_24  and  C_28
REMARK    9  A    between atoms: N_26  and  N_27
REMARK   10  A    between atoms: C_31  and  C_34
REMARK                            x       y       z     vdW  Elec       q    Type
REMARK                         _______ _______ _______ _____ _____    ______ ____
ROOT
ATOM      1  C   UNL     1      12.844  -5.296   5.175  0.00  0.00    +0.214 C 
ATOM      2  N   UNL     1      13.809  -4.517   4.355  0.00  0.00    -0.228 NA
ATOM      3  N   UNL     1      14.844  -5.487   3.986  0.00  0.00    -0.234 NA
ATOM      4  C   UNL     1      14.224  -6.826   4.066  0.00  0.00    +0.185 C 
ATOM      5  N   UNL     1      12.820  -6.619   4.495  0.00  0.00    -0.197 NA
ATOM      6  H   UNL     1      14.202  -3.754   4.886  0.00  0.00    +0.143 HD
ATOM      7  H   UNL     1      15.195  -5.306   3.058  0.00  0.00    +0.143 HD
ENDROOT
BRANCH   4   8
ATOM      8  C   UNL     1      14.262  -7.504   2.695  0.00  0.00    +0.187 C 
ATOM      9  C   UNL     1      15.695  -7.753   2.260  0.00  0.00    +0.034 C 
ATOM     10  C   UNL     1      15.820  -7.031   1.129  0.00  0.00    +0.091 C 
ATOM     11  N   UNL     1      14.654  -6.393   0.843  0.00  0.00    -0.154 NA
ATOM     12  N   UNL     1      13.744  -6.601   1.654  0.00  0.00    -0.176 NA
BRANCH  10  13
ATOM     13  C   UNL     1      17.055  -6.944   0.312  0.00  0.00    +0.002 A 
ATOM     14  C   UNL     1      18.197  -7.645   0.694  0.00  0.00    +0.010 A 
ATOM     15  C   UNL     1      19.343  -7.561  -0.071  0.00  0.00    +0.001 A 
ATOM     16  C   UNL     1      19.359  -6.782  -1.214  0.00  0.00    +0.000 A 
ATOM     17  C   UNL     1      18.228  -6.085  -1.598  0.00  0.00    +0.001 A 
ATOM     18  C   UNL     1      17.075  -6.166  -0.844  0.00  0.00    +0.010 A 
ENDBRANCH  10  13
ENDBRANCH   4   8
BRANCH   5  19
ATOM     19  N   UNL     1      12.390  -7.665   5.408  0.00  0.00    -0.264 NA
ATOM     20  H   UNL     1      11.464  -7.479   5.762  0.00  0.00    +0.137 HD
ATOM     21  H   UNL     1      12.433  -8.571   4.966  0.00  0.00    +0.137 HD
ENDBRANCH   5  19
BRANCH   1  22
ATOM     22  S   UNL     1      11.203  -4.525   5.139  0.00  0.00    -0.115 S 
BRANCH  22  23
ATOM     23  C   UNL     1      10.800  -4.430   3.373  0.00  0.00    +0.168 C 
BRANCH  23  25
ATOM     24  N   UNL     1       8.932  -3.626   1.965  0.00  0.00    -0.285 N 
ATOM     25  C   UNL     1       9.442  -3.800   3.200  0.00  0.00    +0.227 C 
ATOM     26  O   UNL     1       8.808  -3.450   4.173  0.00  0.00    -0.275 OA
ATOM     27  H   UNL     1       9.404  -3.975   1.192  0.00  0.00    +0.155 HD
BRANCH  24  31
ATOM     28  C   UNL     1       5.329  -1.589   1.465  0.00  0.00    +0.121 A 
ATOM     29  C   UNL     1       6.195  -1.226   2.486  0.00  0.00    +0.047 A 
ATOM     30  C   UNL     1       7.388  -1.900   2.652  0.00  0.00    +0.027 A 
ATOM     31  C   UNL     1       7.721  -2.942   1.797  0.00  0.00    +0.034 A 
ATOM     32  C   UNL     1       6.854  -3.305   0.775  0.00  0.00    +0.027 A 
ATOM     33  C   UNL     1       5.658  -2.634   0.614  0.00  0.00    +0.047 A 
BRANCH  28  34
ATOM     34  O   UNL     1       4.154  -0.924   1.301  0.00  0.00    -0.487 OA
BRANCH  34  35
ATOM     35  C   UNL     1       3.878   0.141   2.213  0.00  0.00    +0.264 C 
BRANCH  35  39
ATOM     36  C   UNL     1       0.094   1.883   1.272  0.00  0.00    +0.000 A 
ATOM     37  C   UNL     1       0.167   0.828   2.162  0.00  0.00    +0.000 A 
ATOM     38  C   UNL     1       1.391   0.264   2.467  0.00  0.00    +0.007 A 
ATOM     39  C   UNL     1       2.543   0.755   1.881  0.00  0.00    -0.010 A 
ATOM     40  C   UNL     1       2.470   1.809   0.989  0.00  0.00    +0.007 A 
ATOM     41  C   UNL     1       1.246   2.374   0.686  0.00  0.00    +0.000 A 
ENDBRANCH  35  39
ENDBRANCH  34  35
ENDBRANCH  28  34
ENDBRANCH  24  31
ENDBRANCH  23  25
ENDBRANCH  22  23
ENDBRANCH   1  22
TORSDOF 10
