REMARK  Name = ZINC15784943
REMARK  17 active torsions:
REMARK  status: ('A' for Active; 'I' for Inactive)
REMARK    1  A    between atoms: C_1  and  C_2
REMARK    2  A    between atoms: C_2  and  C_3
REMARK    3  A    between atoms: C_3  and  C_4
REMARK    4  A    between atoms: C_4  and  C_5
REMARK    5  A    between atoms: C_5  and  C_7
REMARK    6  A    between atoms: C_5  and  C_9
REMARK    7  A    between atoms: C_7  and  C_8
REMARK    8  A    between atoms: C_9  and  C_11
REMARK    9  A    between atoms: C_9  and  N_20
REMARK   10  A    between atoms: C_11  and  C_12
REMARK   11  A    between atoms: C_11  and  C_16
REMARK   12  A    between atoms: C_12  and  O_14
REMARK   13  A    between atoms: O_14  and  C_15
REMARK   14  A    between atoms: C_16  and  O_18
REMARK   15  A    between atoms: O_18  and  C_19
REMARK   16  A    between atoms: N_20  and  C_21
REMARK   17  A    between atoms: C_21  and  C_23
REMARK                            x       y       z     vdW  Elec       q    Type
REMARK                         _______ _______ _______ _____ _____    ______ ____
ROOT
ATOM      1  C   UNL     1       5.584  -0.970   1.048  0.00  0.00    +0.099 C 
ENDROOT
BRANCH   1   2
ATOM      2  N   UNL     1       4.197  -0.497   1.074  0.00  0.00    -0.333 N 
ATOM      3  H   UNL     1       3.967   0.303   1.571  0.00  0.00    +0.147 HD
BRANCH   2   4
ATOM      4  C   UNL     1       3.242  -1.174   0.406  0.00  0.00    +0.080 C 
ATOM      5  S   UNL     1       3.649  -2.586  -0.472  0.00  0.00    -0.035 S 
BRANCH   4   6
ATOM      6  C   UNL     1       1.845  -0.698   0.432  0.00  0.00    +0.003 A 
ATOM      7  C   UNL     1       0.791  -1.614   0.431  0.00  0.00    +0.010 A 
ATOM      8  C   UNL     1      -0.512  -1.162   0.455  0.00  0.00    +0.001 A 
ATOM      9  C   UNL     1      -0.776   0.197   0.480  0.00  0.00    +0.000 A 
ATOM     10  C   UNL     1       0.264   1.110   0.481  0.00  0.00    +0.001 A 
ATOM     11  C   UNL     1       1.571   0.672   0.457  0.00  0.00    +0.010 A 
ENDBRANCH   4   6
ENDBRANCH   2   4
ENDBRANCH   1   2
BRANCH   1  12
ATOM     12  C   UNL     1       6.529   0.205   1.305  0.00  0.00    +0.010 C 
BRANCH  12  13
ATOM     13  C   UNL     1       6.478   0.586   2.786  0.00  0.00    +0.002 C 
ATOM     14  C   UNL     1       7.277   1.872   3.009  0.00  0.00    +0.004 C 
ENDBRANCH  12  13
BRANCH  12  15
ATOM     15  C   UNL     1       7.957  -0.197   0.930  0.00  0.00    +0.005 C 
BRANCH  15  16
ATOM     16  C   UNL     1       7.986  -0.681  -0.521  0.00  0.00    +0.000 C 
BRANCH  16  18
ATOM     17  C   UNL     1       9.468  -1.458  -2.376  0.00  0.00    +0.004 C 
ATOM     18  C   UNL     1       9.409  -1.106  -0.888  0.00  0.00    -0.003 C 
ENDBRANCH  16  18
ENDBRANCH  15  16
ENDBRANCH  12  15
ENDBRANCH   1  12
BRANCH   1  19
ATOM     19  C   UNL     1       5.782  -2.030   2.134  0.00  0.00    +0.226 C 
BRANCH  19  20
ATOM     20  C   UNL     1       7.241  -2.397   2.219  0.00  0.00    +0.323 C 
ATOM     21  O   UNL     1       7.878  -2.117   3.207  0.00  0.00    -0.250 OA
BRANCH  20  22
ATOM     22  O   UNL     1       7.833  -3.034   1.196  0.00  0.00    -0.467 OA
ATOM     23  C   UNL     1       9.234  -3.380   1.358  0.00  0.00    +0.280 C 
ENDBRANCH  20  22
ENDBRANCH  19  20
BRANCH  19  24
ATOM     24  C   UNL     1       5.324  -1.481   3.461  0.00  0.00    +0.323 C 
ATOM     25  O   UNL     1       6.035  -1.579   4.433  0.00  0.00    -0.250 OA
BRANCH  24  26
ATOM     26  O   UNL     1       4.126  -0.883   3.563  0.00  0.00    -0.467 OA
ATOM     27  C   UNL     1       3.704  -0.476   4.891  0.00  0.00    +0.280 C 
ENDBRANCH  24  26
ENDBRANCH  19  24
ENDBRANCH   1  19
TORSDOF 13
