REMARK  Name = ZINC20152349
REMARK  3 active torsions:
REMARK  status: ('A' for Active; 'I' for Inactive)
REMARK    1  A    between atoms: C_4  and  N_27
REMARK    2  A    between atoms: C_6  and  C_7
REMARK    3  A    between atoms: C_12  and  C_19
REMARK                            x       y       z     vdW  Elec       q    Type
REMARK                         _______ _______ _______ _____ _____    ______ ____
ROOT
ATOM      1  C   UNL     1       0.707   3.596  -1.669  0.00  0.00    +0.253 C 
ATOM      2  O   UNL     1       1.390   2.600  -1.805  0.00  0.00    -0.270 OA
ATOM      3  N   UNL     1       0.163   4.192  -2.748  0.00  0.00    -0.234 N 
ATOM      4  C   UNL     1       0.756   4.400  -3.943  0.00  0.00    +0.109 C 
ATOM      5  S   UNL     1       2.354   3.946  -4.357  0.00  0.00    -0.033 S 
ATOM      6  C   UNL     1      -0.204   5.087  -4.835  0.00  0.00    +0.098 C 
ATOM      7  N   UNL     1      -1.325   5.284  -4.207  0.00  0.00    -0.255 NA
ATOM      8  C   UNL     1      -1.189   4.743  -2.857  0.00  0.00    +0.135 C 
ATOM      9  C   UNL     1      -2.240   3.657  -2.595  0.00  0.00    +0.050 C 
ATOM     10  C   UNL     1      -3.073   4.136  -1.386  0.00  0.00    +0.004 C 
ATOM     11  C   UNL     1      -2.133   5.121  -0.645  0.00  0.00    +0.004 C 
ATOM     12  C   UNL     1      -1.407   5.846  -1.807  0.00  0.00    +0.050 C 
ENDROOT
BRANCH   6  13
ATOM     13  C   UNL     1       0.071   5.489  -6.233  0.00  0.00    +0.021 A 
ATOM     14  C   UNL     1       1.270   5.121  -6.845  0.00  0.00    +0.013 A 
ATOM     15  C   UNL     1       1.519   5.494  -8.149  0.00  0.00    +0.021 A 
ATOM     16  C   UNL     1       0.586   6.243  -8.849  0.00  0.00    +0.042 A 
ATOM     17  C   UNL     1      -0.603   6.615  -8.246  0.00  0.00    +0.040 A 
ATOM     18  C   UNL     1      -0.866   6.243  -6.943  0.00  0.00    +0.052 A 
ATOM     19 CL   UNL     1      -2.358   6.711  -6.188  0.00  0.00    -0.083 Cl
ATOM     20 CL   UNL     1       0.910   6.715 -10.488  0.00  0.00    -0.083 Cl
ENDBRANCH   6  13
BRANCH   1  26
ATOM     21  C   UNL     1      -0.307   3.454   0.601  0.00  0.00    +0.014 A 
ATOM     22  C   UNL     1      -0.521   3.979   1.858  0.00  0.00    +0.023 A 
ATOM     23  C   UNL     1       0.039   5.198   2.207  0.00  0.00    +0.071 A 
ATOM     24  C   UNL     1       0.816   5.896   1.296  0.00  0.00    +0.145 A 
ATOM     25  C   UNL     1       1.040   5.378   0.038  0.00  0.00    +0.047 A 
ATOM     26  C   UNL     1       0.474   4.153  -0.321  0.00  0.00    +0.040 A 
ATOM     27 CL   UNL     1      -0.235   5.852   3.791  0.00  0.00    -0.081 Cl
BRANCH  24  28
ATOM     28  N   UNL     1       1.410   7.197   1.677  0.00  0.00    +0.058 N 
ATOM     29  O   UNL     1       2.093   7.811   0.878  0.00  0.00    -0.126 OA
ATOM     30  O   UNL     1       1.216   7.652   2.790  0.00  0.00    -0.126 OA
ENDBRANCH  24  28
ENDBRANCH   1  26
TORSDOF 3
