REMARK  Name = ZINC36069788
REMARK  12 active torsions:
REMARK  status: ('A' for Active; 'I' for Inactive)
REMARK    1  A    between atoms: C_1  and  C_2
REMARK    2  A    between atoms: C_2  and  N_3
REMARK    3  A    between atoms: N_3  and  C_4
REMARK    4  A    between atoms: N_3  and  C_6
REMARK    5  A    between atoms: C_4  and  C_5
REMARK    6  A    between atoms: C_6  and  C_7
REMARK    7  A    between atoms: C_7  and  N_8
REMARK    8  A    between atoms: N_8  and  C_9
REMARK    9  A    between atoms: C_9  and  C_10
REMARK   10  A    between atoms: C_21  and  C_24
REMARK   11  A    between atoms: C_27  and  C_30
REMARK   12  A    between atoms: C_31  and  C_33
REMARK                            x       y       z     vdW  Elec       q    Type
REMARK                         _______ _______ _______ _____ _____    ______ ____
ROOT
ATOM      1  C   UNL     1      -1.866  -5.099  -0.442  0.00  0.00    +0.233 C 
ATOM      2  O   UNL     1      -2.817  -4.696  -1.079  0.00  0.00    -0.274 OA
ATOM      3  N   UNL     1      -2.054  -5.957   0.580  0.00  0.00    -0.297 N 
ATOM      4  C   UNL     1      -0.912  -6.449   1.363  0.00  0.00    +0.126 C 
ATOM      5  C   UNL     1      -1.165  -6.141   2.844  0.00  0.00    +0.125 C 
ATOM      6  N   UNL     1      -2.516  -6.601   3.196  0.00  0.00    -0.311 N 
ATOM      7  C   UNL     1      -3.658  -6.109   2.412  0.00  0.00    +0.125 C 
ATOM      8  C   UNL     1      -3.406  -6.413   0.935  0.00  0.00    +0.126 C 
ATOM      9  C   UNL     1      -2.710  -7.485   4.250  0.00  0.00    +0.144 A 
ATOM     10  C   UNL     1      -1.657  -7.779   5.119  0.00  0.00    +0.047 A 
ATOM     11  C   UNL     1      -1.897  -8.665   6.154  0.00  0.00    +0.033 A 
ATOM     12  C   UNL     1      -3.181  -9.211   6.265  0.00  0.00    +0.093 A 
ATOM     13  N   UNL     1      -4.119  -8.873   5.392  0.00  0.00    -0.147 NA
ATOM     14  N   UNL     1      -3.896  -8.047   4.436  0.00  0.00    -0.134 NA
ENDROOT
BRANCH  12  15
ATOM     15  C   UNL     1      -3.490 -10.166   7.357  0.00  0.00    +0.002 A 
ATOM     16  C   UNL     1      -2.505 -10.518   8.278  0.00  0.00    +0.010 A 
ATOM     17  C   UNL     1      -2.799 -11.407   9.293  0.00  0.00    +0.004 A 
ATOM     18  C   UNL     1      -4.067 -11.949   9.396  0.00  0.00    -0.050 A 
ATOM     19  C   UNL     1      -5.049 -11.603   8.484  0.00  0.00    +0.004 A 
ATOM     20  C   UNL     1      -4.768 -10.711   7.469  0.00  0.00    +0.010 A 
ATOM     21  C   UNL     1      -4.382 -12.919  10.505  0.00  0.00    +0.044 C 
ENDBRANCH  12  15
BRANCH   1  22
ATOM     22  C   UNL     1      -0.474  -4.641  -0.795  0.00  0.00    +0.203 C 
BRANCH  22  23
ATOM     23  N   UNL     1      -0.537  -3.719  -1.932  0.00  0.00    -0.290 N 
ATOM     24  C   UNL     1      -0.315  -4.175  -3.181  0.00  0.00    +0.247 C 
ATOM     25  O   UNL     1      -0.283  -3.397  -4.115  0.00  0.00    -0.270 OA
BRANCH  24  26
ATOM     26  C   UNL     1      -0.111  -5.620  -3.416  0.00  0.00    +0.040 A 
ATOM     27  C   UNL     1      -0.945  -6.555  -2.800  0.00  0.00    +0.013 A 
ATOM     28  C   UNL     1      -0.750  -7.902  -3.022  0.00  0.00    +0.004 A 
ATOM     29  C   UNL     1       0.269  -8.329  -3.854  0.00  0.00    +0.038 A 
ATOM     30  C   UNL     1       1.101  -7.408  -4.469  0.00  0.00    +0.124 A 
ATOM     31  C   UNL     1       0.913  -6.055  -4.258  0.00  0.00    +0.051 A 
ATOM     32  F   UNL     1       2.096  -7.832  -5.279  0.00  0.00    -0.205 F 
ENDBRANCH  24  26
BRANCH  23  33
ATOM     33  C   UNL     1      -0.841  -2.303  -1.712  0.00  0.00    +0.090 C 
BRANCH  33  34
ATOM     34  C   UNL     1       0.464  -1.512  -1.609  0.00  0.00    -0.060 C 
BRANCH  34  35
ATOM     35  N   UNL     1       0.159  -0.092  -1.388  0.00  0.00    +0.380 N 
ATOM     36  H   UNL     1      -0.455   0.238  -2.118  0.00  0.00    -0.082 HD
BRANCH  35  38
ATOM     37  C   UNL     1      -0.935   1.527   0.088  0.00  0.00    -0.017 C 
ATOM     38  C   UNL     1      -0.499   0.071  -0.084  0.00  0.00    -0.082 C 
ENDBRANCH  35  38
BRANCH  35  39
ATOM     39  C   UNL     1       1.405   0.686  -1.408  0.00  0.00    -0.082 C 
ATOM     40  C   UNL     1       2.022   0.625  -2.807  0.00  0.00    -0.017 C 
ENDBRANCH  35  39
ENDBRANCH  34  35
ENDBRANCH  33  34
ENDBRANCH  23  33
ENDBRANCH  22  23
ENDBRANCH   1  22
TORSDOF 9
