REMARK  Name = ZINC21589853
REMARK  3 active torsions:
REMARK  status: ('A' for Active; 'I' for Inactive)
REMARK    1  A    between atoms: C_1  and  N_2
REMARK    2  A    between atoms: C_17  and  C_19
REMARK    3  A    between atoms: C_22  and  C_24
REMARK                            x       y       z     vdW  Elec       q    Type
REMARK                         _______ _______ _______ _____ _____    ______ ____
ROOT
ATOM      1  C   UNL     1      -1.164   7.697  -3.279  0.00  0.00    +0.131 C 
ATOM      2  N   UNL     1      -0.237   8.187  -2.250  0.00  0.00    -0.315 N 
ATOM      3  C   UNL     1      -0.247   9.648  -2.188  0.00  0.00    +0.108 C 
ATOM      4  C   UNL     1       1.115  10.197  -1.783  0.00  0.00    +0.038 C 
ATOM      5  C   UNL     1       1.474   9.894  -0.345  0.00  0.00    +0.117 C 
ATOM      6  N   UNL     1       1.583   8.439  -0.146  0.00  0.00    -0.248 N 
ATOM      7  C   UNL     1       0.405   7.722   0.042  0.00  0.00    +0.169 A 
ATOM      8  C   UNL     1      -0.532   7.628  -1.003  0.00  0.00    +0.162 A 
ATOM      9  N   UNL     1      -1.679   7.007  -0.825  0.00  0.00    -0.227 NA
ATOM     10  C   UNL     1      -1.944   6.433   0.358  0.00  0.00    +0.091 A 
ATOM     11  C   UNL     1      -3.160   5.767   0.579  0.00  0.00    +0.030 A 
ATOM     12  C   UNL     1      -3.400   5.178   1.784  0.00  0.00    +0.002 A 
ATOM     13  C   UNL     1      -2.454   5.229   2.805  0.00  0.00    +0.002 A 
ATOM     14  C   UNL     1      -1.266   5.870   2.627  0.00  0.00    +0.030 A 
ATOM     15  C   UNL     1      -0.987   6.494   1.400  0.00  0.00    +0.091 A 
ATOM     16  N   UNL     1       0.168   7.147   1.208  0.00  0.00    -0.227 NA
ATOM     17  C   UNL     1       2.781   7.823  -0.153  0.00  0.00    +0.271 C 
ATOM     18  O   UNL     1       3.803   8.480  -0.219  0.00  0.00    -0.268 OA
ENDROOT
BRANCH  17  19
ATOM     19  C   UNL     1       2.854   6.354  -0.081  0.00  0.00    +0.134 A 
ATOM     20  C   UNL     1       4.064   5.723   0.054  0.00  0.00    +0.080 A 
ATOM     21  S   UNL     1       3.587   4.055   0.094  0.00  0.00    -0.075 S 
ATOM     22  C   UNL     1       1.827   4.302  -0.081  0.00  0.00    +0.110 A 
ATOM     23  N   UNL     1       1.745   5.619  -0.146  0.00  0.00    -0.234 NA
BRANCH  22  24
ATOM     24  C   UNL     1       0.745   3.297  -0.132  0.00  0.00    +0.014 A 
ATOM     25  C   UNL     1       1.012   1.946   0.088  0.00  0.00    +0.018 A 
ATOM     26  C   UNL     1      -0.025   1.082   0.025  0.00  0.00    +0.046 A 
ATOM     27  S   UNL     1      -1.395   2.159  -0.351  0.00  0.00    -0.104 S 
ATOM     28  C   UNL     1      -0.544   3.668  -0.395  0.00  0.00    +0.055 A 
ENDBRANCH  22  24
ENDBRANCH  17  19
TORSDOF 2
