REMARK  Name = ZINC05259925
REMARK  13 active torsions:
REMARK  status: ('A' for Active; 'I' for Inactive)
REMARK    1  A    between atoms: C_1  and  C_2
REMARK    2  A    between atoms: C_2  and  C_3
REMARK    3  A    between atoms: C_2  and  N_4
REMARK    4  A    between atoms: N_7  and  C_8
REMARK    5  A    between atoms: N_7  and  O_29
REMARK    6  A    between atoms: C_10  and  C_27
REMARK    7  A    between atoms: C_10  and  C_28
REMARK    8  A    between atoms: N_11  and  C_18
REMARK    9  A    between atoms: N_14  and  C_15
REMARK   10  A    between atoms: C_15  and  C_16
REMARK   11  A    between atoms: C_15  and  C_17
REMARK   12  A    between atoms: C_18  and  C_19
REMARK   13  A    between atoms: C_19  and  C_20
REMARK                            x       y       z     vdW  Elec       q    Type
REMARK                         _______ _______ _______ _____ _____    ______ ____
ROOT
ATOM      1  C   UNL     1      -0.717   3.624   0.069  0.00  0.00    +0.220 C 
ATOM      2  C   UNL     1       0.818   3.495   0.000  0.00  0.00    +0.070 C 
ATOM      3  N   UNL     1       1.048   2.044  -0.057  0.00  0.00    -0.276 N 
ATOM      4  C   UNL     1      -0.132   1.410  -0.028  0.00  0.00    +0.307 C 
ATOM      5  O   UNL     1      -0.235   0.199  -0.063  0.00  0.00    -0.252 OA
ATOM      6  N   UNL     1      -1.188   2.231   0.038  0.00  0.00    -0.260 N 
ATOM      7  C   UNL     1       1.463   4.093   1.252  0.00  0.00    +0.035 C 
ATOM      8  C   UNL     1       1.357   4.174  -1.260  0.00  0.00    +0.035 C 
ENDROOT
BRANCH   1  12
ATOM      9  N   UNL     1      -2.528   6.086  -1.972  0.00  0.00    -0.295 N 
ATOM     10  C   UNL     1      -2.134   5.342  -0.920  0.00  0.00    +0.327 C 
ATOM     11  O   UNL     1      -2.599   5.554   0.183  0.00  0.00    -0.250 OA
ATOM     12  N   UNL     1      -1.224   4.362  -1.090  0.00  0.00    -0.144 N 
ATOM     13  H   UNL     1      -2.212   5.871  -2.864  0.00  0.00    +0.151 HD
BRANCH   9  15
ATOM     14  C   UNL     1      -3.246   8.231  -2.901  0.00  0.00    +0.027 C 
ATOM     15  C   UNL     1      -3.434   7.219  -1.770  0.00  0.00    +0.068 C 
ATOM     16  C   UNL     1      -4.881   6.721  -1.766  0.00  0.00    +0.027 C 
ENDBRANCH   9  15
BRANCH  12  17
ATOM     17  O   UNL     1      -0.757   4.048  -2.390  0.00  0.00    -0.289 OA
ATOM     18  H   UNL     1      -1.089   4.638  -3.080  0.00  0.00    +0.242 HD
ENDBRANCH  12  17
ENDBRANCH   1  12
BRANCH   6  19
ATOM     19  C   UNL     1      -2.591   1.809   0.076  0.00  0.00    +0.073 C 
ATOM     20  C   UNL     1      -2.897   0.944  -1.148  0.00  0.00    +0.028 C 
ATOM     21  C   UNL     1      -2.844   0.998   1.349  0.00  0.00    +0.028 C 
ENDBRANCH   6  19
BRANCH   3  22
ATOM     22  C   UNL     1       2.358   1.395  -0.133  0.00  0.00    +0.115 C 
BRANCH  22  23
ATOM     23  C   UNL     1       2.754   1.216  -1.600  0.00  0.00    +0.057 C 
BRANCH  23  24
ATOM     24  C   UNL     1       4.103   0.548  -1.679  0.00  0.00    -0.011 A 
ATOM     25  C   UNL     1       5.247   1.313  -1.812  0.00  0.00    +0.006 A 
ATOM     26  C   UNL     1       6.484   0.701  -1.879  0.00  0.00    +0.000 A 
ATOM     27  C   UNL     1       6.579  -0.678  -1.823  0.00  0.00    +0.003 A 
ATOM     28  C   UNL     1       5.436  -1.444  -1.696  0.00  0.00    +0.038 A 
ATOM     29  C   UNL     1       4.196  -0.832  -1.624  0.00  0.00    +0.127 A 
ATOM     30  F   UNL     1       3.079  -1.581  -1.500  0.00  0.00    -0.205 F 
ENDBRANCH  23  24
ENDBRANCH  22  23
ENDBRANCH   3  22
TORSDOF 7
