REMARK  Name = ZINC48969705
REMARK  7 active torsions:
REMARK  status: ('A' for Active; 'I' for Inactive)
REMARK    1  A    between atoms: C_1  and  C_2
REMARK    2  A    between atoms: C_5  and  N_8
REMARK    3  A    between atoms: N_8  and  C_9
REMARK    4  A    between atoms: N_12  and  C_13
REMARK    5  A    between atoms: C_16  and  C_19
REMARK    6  A    between atoms: C_19  and  C_21
REMARK    7  A    between atoms: C_19  and  N_22
REMARK                            x       y       z     vdW  Elec       q    Type
REMARK                         _______ _______ _______ _____ _____    ______ ____
ROOT
ATOM      1  N   UNL     1      -1.434  -2.043   2.274  0.00  0.00    -0.285 N 
ATOM      2  C   UNL     1      -1.485  -0.748   2.955  0.00  0.00    +0.134 C 
ATOM      3  C   UNL     1      -1.914  -3.145   2.884  0.00  0.00    +0.306 C 
ATOM      4  O   UNL     1      -1.871  -4.221   2.318  0.00  0.00    -0.252 OA
ATOM      5  N   UNL     1      -2.441  -3.055   4.121  0.00  0.00    -0.269 N 
ATOM      6  H   UNL     1      -2.542  -2.188   4.543  0.00  0.00    +0.156 HD
ENDROOT
BRANCH   1  11
ATOM      7  C   UNL     1      -4.114   0.247  -0.632  0.00  0.00    +0.007 C 
ATOM      8  C   UNL     1      -2.830  -0.584  -0.580  0.00  0.00    -0.014 C 
ATOM      9  C   UNL     1      -3.150  -1.986  -0.058  0.00  0.00    +0.005 C 
ATOM     10  C   UNL     1      -1.866  -2.816  -0.006  0.00  0.00    +0.023 C 
ATOM     11  C   UNL     1      -0.860  -2.142   0.929  0.00  0.00    +0.077 C 
ATOM     12  C   UNL     1      -0.540  -0.739   0.408  0.00  0.00    +0.023 C 
ATOM     13  C   UNL     1      -1.824   0.091   0.355  0.00  0.00    +0.005 C 
ENDBRANCH   1  11
BRANCH   5  14
ATOM     14  C   UNL     1      -2.844  -4.213   4.796  0.00  0.00    +0.035 A 
ATOM     15  C   UNL     1      -3.927  -4.171   5.663  0.00  0.00    +0.023 A 
ATOM     16  C   UNL     1      -4.322  -5.316   6.328  0.00  0.00    +0.004 A 
ATOM     17  C   UNL     1      -3.639  -6.502   6.131  0.00  0.00    -0.062 A 
ATOM     18  C   UNL     1      -2.560  -6.547   5.268  0.00  0.00    +0.004 A 
ATOM     19  C   UNL     1      -2.163  -5.407   4.596  0.00  0.00    +0.023 A 
BRANCH  17  20
ATOM     20  C   UNL     1      -4.073  -7.749   6.857  0.00  0.00    -0.047 C 
ATOM     21  C   UNL     1      -3.163  -7.977   8.066  0.00  0.00    -0.009 C 
BRANCH  20  22
ATOM     22  N   UNL     1      -3.980  -8.902   5.951  0.00  0.00    +0.382 N 
ATOM     23  H   UNL     1      -4.271  -9.736   6.438  0.00  0.00    -0.089 HD
ATOM     24  H   UNL     1      -4.580  -8.751   5.154  0.00  0.00    -0.089 HD
ATOM     25  H   UNL     1      -3.027  -9.008   5.639  0.00  0.00    -0.089 HD
ENDBRANCH  20  22
ENDBRANCH  17  20
ENDBRANCH   5  14
TORSDOF 4
