REMARK  Name = ZINC06134144
REMARK  13 active torsions:
REMARK  status: ('A' for Active; 'I' for Inactive)
REMARK    1  A    between atoms: C_1  and  C_2
REMARK    2  A    between atoms: C_2  and  C_3
REMARK    3  A    between atoms: C_2  and  C_4
REMARK    4  A    between atoms: C_4  and  C_5
REMARK    5  A    between atoms: C_5  and  N_6
REMARK    6  A    between atoms: C_7  and  C_9
REMARK    7  A    between atoms: C_9  and  C_11
REMARK    8  A    between atoms: C_9  and  N_18
REMARK    9  A    between atoms: N_18  and  C_19
REMARK   10  A    between atoms: C_19  and  C_20
REMARK   11  A    between atoms: C_25  and  C_27
REMARK   12  A    between atoms: C_28  and  N_35
REMARK   13  A    between atoms: C_29  and  C_32
REMARK                            x       y       z     vdW  Elec       q    Type
REMARK                         _______ _______ _______ _____ _____    ______ ____
ROOT
ATOM      1  N   UNL     1       4.336  -3.833   0.796  0.00  0.00    -0.274 N 
ATOM      2  C   UNL     1       4.083  -4.698  -0.207  0.00  0.00    +0.258 C 
ATOM      3  O   UNL     1       2.953  -4.809  -0.645  0.00  0.00    -0.269 OA
ENDROOT
BRANCH   2   4
ATOM      4  C   UNL     1       5.169  -5.504  -0.769  0.00  0.00    +0.115 A 
ATOM      5  C   UNL     1       5.181  -6.857  -1.110  0.00  0.00    +0.076 A 
ATOM      6  C   UNL     1       6.411  -7.267  -1.625  0.00  0.00    +0.155 A 
ATOM      7  N   UNL     1       7.389  -6.395  -1.726  0.00  0.00    -0.203 NA
ATOM      8  S   UNL     1       6.830  -5.021  -1.193  0.00  0.00    +0.019 S 
BRANCH   6   9
ATOM      9  C   UNL     1       6.613  -8.666  -2.047  0.00  0.00    +0.262 C 
ATOM     10  O   UNL     1       5.704  -9.467  -1.951  0.00  0.00    -0.269 OA
ATOM     11  N   UNL     1       7.806  -9.056  -2.539  0.00  0.00    -0.324 N 
ATOM     12  H   UNL     1       8.531  -8.416  -2.615  0.00  0.00    +0.145 HD
ATOM     13  H   UNL     1       7.939  -9.975  -2.816  0.00  0.00    +0.145 HD
ENDBRANCH   6   9
BRANCH   5  14
ATOM     14  N   UNL     1       4.089  -7.701  -0.957  0.00  0.00    -0.355 N 
ATOM     15  H   UNL     1       3.257  -7.357  -0.595  0.00  0.00    +0.142 HD
ATOM     16  H   UNL     1       4.157  -8.634  -1.213  0.00  0.00    +0.142 HD
ENDBRANCH   5  14
ENDBRANCH   2   4
BRANCH   1  17
ATOM     17  C   UNL     1       3.226  -3.209   1.522  0.00  0.00    +0.193 C 
BRANCH  17  18
ATOM     18  C   UNL     1       2.924  -1.863   0.917  0.00  0.00    -0.018 A 
ATOM     19  C   UNL     1       3.950  -0.967   0.678  0.00  0.00    +0.007 A 
ATOM     20  C   UNL     1       3.674   0.266   0.118  0.00  0.00    +0.020 A 
ATOM     21  C   UNL     1       2.370   0.609  -0.193  0.00  0.00    +0.041 A 
ATOM     22  C   UNL     1       1.343  -0.286   0.051  0.00  0.00    +0.020 A 
ATOM     23  C   UNL     1       1.621  -1.521   0.606  0.00  0.00    +0.007 A 
ATOM     24 CL   UNL     1       2.022   2.160  -0.889  0.00  0.00    -0.084 Cl
ENDBRANCH  17  18
BRANCH  17  26
ATOM     25  N   UNL     1       2.675  -3.169   3.933  0.00  0.00    -0.313 N 
ATOM     26  C   UNL     1       3.608  -3.036   2.969  0.00  0.00    +0.238 C 
ATOM     27  O   UNL     1       4.754  -2.776   3.267  0.00  0.00    -0.273 OA
ATOM     28  H   UNL     1       1.758  -3.376   3.694  0.00  0.00    +0.149 HD
BRANCH  25  29
ATOM     29  C   UNL     1       3.046  -3.000   5.340  0.00  0.00    +0.104 C 
BRANCH  29  30
ATOM     30  C   UNL     1       1.811  -3.202   6.221  0.00  0.00    +0.022 C 
BRANCH  30  32
ATOM     31  C   UNL     1       0.943  -3.103   8.561  0.00  0.00    +0.007 C 
ATOM     32  C   UNL     1       2.198  -3.025   7.690  0.00  0.00    -0.016 C 
ATOM     33  C   UNL     1       3.171  -4.133   8.098  0.00  0.00    +0.007 C 
ENDBRANCH  30  32
ENDBRANCH  29  30
ENDBRANCH  25  29
ENDBRANCH  17  26
ENDBRANCH   1  17
BRANCH   1  34
ATOM     34  C   UNL     1       5.719  -3.517   1.160  0.00  0.00    +0.183 C 
BRANCH  34  35
ATOM     35  C   UNL     1       6.248  -4.576   2.091  0.00  0.00    +0.122 A 
ATOM     36  C   UNL     1       6.785  -5.753   1.720  0.00  0.00    +0.046 A 
ATOM     37  C   UNL     1       7.146  -6.431   2.907  0.00  0.00    +0.041 A 
ATOM     38  C   UNL     1       6.807  -5.629   3.932  0.00  0.00    +0.195 A 
ATOM     39  O   UNL     1       6.270  -4.504   3.432  0.00  0.00    -0.466 OA
ENDBRANCH  34  35
ENDBRANCH   1  34
TORSDOF 11
