REMARK  Name = ZINC15087701
REMARK  8 active torsions:
REMARK  status: ('A' for Active; 'I' for Inactive)
REMARK    1  A    between atoms: C_1  and  C_2
REMARK    2  A    between atoms: C_5  and  N_8
REMARK    3  A    between atoms: N_23  and  C_24
REMARK    4  A    between atoms: C_24  and  C_25
REMARK    5  A    between atoms: N_27  and  C_28
REMARK    6  A    between atoms: C_33  and  C_34
REMARK    7  A    between atoms: C_35  and  C_36
REMARK    8  A    between atoms: C_35  and  C_37
REMARK                            x       y       z     vdW  Elec       q    Type
REMARK                         _______ _______ _______ _____ _____    ______ ____
ROOT
ATOM      1  N   UNL     1       1.441  -0.521   3.313  0.00  0.00    -0.209 N 
ATOM      2  C   UNL     1       0.266  -0.401   2.642  0.00  0.00    +0.232 C 
ATOM      3  O   UNL     1      -0.447  -1.300   2.252  0.00  0.00    -0.274 OA
ATOM      4  C   UNL     1       0.029   1.068   2.482  0.00  0.00    +0.109 C 
ATOM      5  C   UNL     1       1.497   1.588   2.421  0.00  0.00    +0.152 C 
ATOM      6  C   UNL     1       2.144   0.638   3.390  0.00  0.00    +0.240 C 
ATOM      7  O   UNL     1       3.103   0.861   4.098  0.00  0.00    -0.274 OA
ATOM      8  S   UNL     1       1.434   3.311   2.975  0.00  0.00    -0.093 S 
ATOM      9  C   UNL     1       0.098   3.923   1.955  0.00  0.00    +0.091 A 
ATOM     10  C   UNL     1      -0.715   3.070   1.293  0.00  0.00    +0.031 A 
ATOM     11  S   UNL     1      -1.833   4.151   0.437  0.00  0.00    -0.030 S 
ATOM     12  C   UNL     1      -1.185   5.660   0.998  0.00  0.00    +0.292 A 
ATOM     13  O   UNL     1      -1.553   6.792   0.739  0.00  0.00    -0.259 OA
ATOM     14  N   UNL     1      -0.170   5.261   1.791  0.00  0.00    -0.288 N 
ATOM     15  C   UNL     1      -0.707   1.567   1.263  0.00  0.00    +0.012 C 
ATOM     16  C   UNL     1       0.004   1.081  -0.001  0.00  0.00    +0.017 C 
ATOM     17  C   UNL     1      -2.143   1.041   1.279  0.00  0.00    +0.017 C 
ENDROOT
BRANCH   1  22
ATOM     18  C   UNL     1       3.240  -5.406   5.577  0.00  0.00    +0.044 C 
ATOM     19  C   UNL     1       2.762  -4.109   4.975  0.00  0.00    -0.050 A 
ATOM     20  C   UNL     1       3.534  -2.968   5.094  0.00  0.00    +0.005 A 
ATOM     21  C   UNL     1       3.099  -1.778   4.544  0.00  0.00    +0.024 A 
ATOM     22  C   UNL     1       1.886  -1.728   3.872  0.00  0.00    +0.044 A 
ATOM     23  C   UNL     1       1.111  -2.874   3.758  0.00  0.00    +0.024 A 
ATOM     24  C   UNL     1       1.553  -4.063   4.306  0.00  0.00    +0.005 A 
ENDBRANCH   1  22
BRANCH  14  25
ATOM     25  C   UNL     1       0.652   6.258   2.481  0.00  0.00    +0.222 C 
BRANCH  25  26
ATOM     26  C   UNL     1       1.818   6.641   1.606  0.00  0.00    +0.237 C 
ATOM     27  O   UNL     1       1.950   6.130   0.514  0.00  0.00    -0.274 OA
ATOM     28  N   UNL     1       2.714   7.550   2.038  0.00  0.00    -0.284 N 
ATOM     29  H   UNL     1       2.566   8.017   2.875  0.00  0.00    +0.155 HD
BRANCH  28  30
ATOM     30  C   UNL     1       3.858   7.820   1.278  0.00  0.00    +0.036 A 
ATOM     31  C   UNL     1       4.353   6.863   0.402  0.00  0.00    +0.023 A 
ATOM     32  C   UNL     1       5.482   7.133  -0.346  0.00  0.00    +0.002 A 
ATOM     33  C   UNL     1       6.119   8.355  -0.223  0.00  0.00    +0.000 A 
ATOM     34  C   UNL     1       5.629   9.309   0.648  0.00  0.00    +0.005 A 
ATOM     35  C   UNL     1       4.496   9.048   1.395  0.00  0.00    -0.029 A 
ATOM     36  C   UNL     1       3.958  10.091   2.340  0.00  0.00    +0.045 C 
ENDBRANCH  28  30
ENDBRANCH  25  26
ENDBRANCH  14  25
TORSDOF 4
