REMARK  Name = ZINC38632619
REMARK  8 active torsions:
REMARK  status: ('A' for Active; 'I' for Inactive)
REMARK    1  A    between atoms: C_1  and  O_2
REMARK    2  A    between atoms: O_2  and  C_3
REMARK    3  A    between atoms: C_6  and  S_10
REMARK    4  A    between atoms: S_10  and  N_13
REMARK    5  A    between atoms: N_13  and  C_14
REMARK    6  A    between atoms: C_14  and  C_15
REMARK    7  A    between atoms: C_15  and  C_17
REMARK    8  A    between atoms: C_15  and  N_22
REMARK                            x       y       z     vdW  Elec       q    Type
REMARK                         _______ _______ _______ _____ _____    ______ ____
ROOT
ATOM      1  C   UNL     1      -5.713  -4.287  -3.603  0.00  0.00    +0.139 C 
ENDROOT
BRANCH   1   2
ATOM      2  N   UNL     1      -7.009  -4.791  -3.128  0.00  0.00    -0.287 NA
ATOM      3  C   UNL     1      -6.827  -5.900  -2.178  0.00  0.00    +0.090 C 
ATOM      4  C   UNL     1      -8.150  -6.136  -1.449  0.00  0.00    +0.051 C 
ATOM      5  C   UNL     1      -9.273  -6.255  -2.447  0.00  0.00    -0.042 A 
ATOM      6  C   UNL     1     -10.471  -6.817  -2.031  0.00  0.00    +0.004 A 
ATOM      7  C   UNL     1     -11.526  -6.942  -2.912  0.00  0.00    +0.000 A 
ATOM      8  C   UNL     1     -11.389  -6.504  -4.216  0.00  0.00    +0.000 A 
ATOM      9  C   UNL     1     -10.197  -5.946  -4.631  0.00  0.00    +0.005 A 
ATOM     10  C   UNL     1      -9.134  -5.822  -3.748  0.00  0.00    -0.030 A 
ATOM     11  C   UNL     1      -7.850  -5.216  -4.251  0.00  0.00    +0.120 C 
ENDBRANCH   1   2
BRANCH   1  12
ATOM     12  C   UNL     1      -4.972  -5.393  -4.309  0.00  0.00    +0.123 A 
ATOM     13  C   UNL     1      -4.240  -5.258  -5.430  0.00  0.00    +0.046 A 
ATOM     14  C   UNL     1      -3.728  -6.539  -5.740  0.00  0.00    +0.041 A 
ATOM     15  C   UNL     1      -4.177  -7.379  -4.790  0.00  0.00    +0.195 A 
ATOM     16  O   UNL     1      -4.925  -6.678  -3.923  0.00  0.00    -0.466 OA
ENDBRANCH   1  12
BRANCH   1  17
ATOM     17  C   UNL     1      -4.887  -3.800  -2.410  0.00  0.00    +0.132 C 
BRANCH  17  18
ATOM     18  N   UNL     1      -5.662  -2.817  -1.648  0.00  0.00    -0.188 NA
ATOM     19  H   UNL     1      -6.446  -2.405  -2.045  0.00  0.00    +0.148 HD
BRANCH  18  20
ATOM     20  S   UNL     1      -5.201  -2.411  -0.111  0.00  0.00    +0.059 S 
ATOM     21  O   UNL     1      -4.983  -3.632   0.584  0.00  0.00    -0.153 OA
ATOM     22  O   UNL     1      -6.123  -1.430   0.344  0.00  0.00    -0.153 OA
BRANCH  20  26
ATOM     23  C   UNL     1      -1.175  -0.357  -0.418  0.00  0.00    +0.155 A 
ATOM     24  C   UNL     1      -2.343   0.388  -0.486  0.00  0.00    +0.050 A 
ATOM     25  C   UNL     1      -3.569  -0.241  -0.393  0.00  0.00    +0.032 A 
ATOM     26  C   UNL     1      -3.635  -1.613  -0.231  0.00  0.00    +0.108 A 
ATOM     27  C   UNL     1      -2.473  -2.360  -0.162  0.00  0.00    +0.070 A 
ATOM     28  C   UNL     1      -1.242  -1.736  -0.262  0.00  0.00    +0.167 A 
ATOM     29  F   UNL     1      -0.107  -2.466  -0.201  0.00  0.00    -0.202 F 
BRANCH  23  31
ATOM     30  C   UNL     1       0.025   1.680  -0.670  0.00  0.00    +0.277 C 
ATOM     31  O   UNL     1       0.033   0.260  -0.510  0.00  0.00    -0.492 OA
ENDBRANCH  23  31
ENDBRANCH  20  26
ENDBRANCH  18  20
ENDBRANCH  17  18
ENDBRANCH   1  17
TORSDOF 7
