REMARK  Name = ZINC36737332
REMARK  4 active torsions:
REMARK  status: ('A' for Active; 'I' for Inactive)
REMARK    1  A    between atoms: C_5  and  C_7
REMARK    2  A    between atoms: C_7  and  C_8
REMARK    3  A    between atoms: N_10  and  C_11
REMARK    4  A    between atoms: C_12  and  N_19
REMARK                            x       y       z     vdW  Elec       q    Type
REMARK                         _______ _______ _______ _____ _____    ______ ____
ROOT
ATOM      1  C   UNL     1       2.417  -3.468   0.915  0.00  0.00    +0.222 C 
ATOM      2  O   UNL     1       3.503  -3.297   1.428  0.00  0.00    -0.275 OA
ATOM      3  N   UNL     1       1.415  -4.021   1.627  0.00  0.00    -0.283 N 
ATOM      4  H   UNL     1       0.528  -4.091   1.241  0.00  0.00    +0.155 HD
ENDROOT
BRANCH   3   5
ATOM      5  C   UNL     1       1.655  -4.493   2.925  0.00  0.00    +0.068 A 
ATOM      6  C   UNL     1       2.114  -5.795   3.122  0.00  0.00    +0.048 A 
ATOM      7  C   UNL     1       2.350  -6.257   4.408  0.00  0.00    +0.040 A 
ATOM      8  C   UNL     1       2.129  -5.427   5.492  0.00  0.00    +0.021 A 
ATOM      9  C   UNL     1       1.673  -4.135   5.297  0.00  0.00    +0.032 A 
ATOM     10  C   UNL     1       1.441  -3.665   4.017  0.00  0.00    +0.042 A 
ATOM     11 BR   UNL     1       0.826  -1.896   3.756  0.00  0.00    -0.048 Br
ATOM     12 BR   UNL     1       2.451  -6.059   7.245  0.00  0.00    -0.050 Br
BRANCH   6  13
ATOM     13  N   UNL     1       2.337  -6.634   2.024  0.00  0.00    -0.356 N 
ATOM     14  H   UNL     1       2.171  -6.310   1.125  0.00  0.00    +0.142 HD
ATOM     15  H   UNL     1       2.656  -7.539   2.162  0.00  0.00    +0.142 HD
ENDBRANCH   6  13
ENDBRANCH   3   5
BRANCH   1  16
ATOM     16  C   UNL     1       2.189  -3.064  -0.519  0.00  0.00    +0.132 C 
BRANCH  16  21
ATOM     17  C   UNL     1       4.812  -0.569  -1.591  0.00  0.00    +0.000 A 
ATOM     18  C   UNL     1       5.785  -1.399  -2.118  0.00  0.00    +0.001 A 
ATOM     19  C   UNL     1       5.594  -2.768  -2.129  0.00  0.00    +0.020 A 
ATOM     20  C   UNL     1       4.430  -3.307  -1.611  0.00  0.00    +0.045 A 
ATOM     21  C   UNL     1       3.458  -2.477  -1.083  0.00  0.00    -0.020 A 
ATOM     22  C   UNL     1       3.650  -1.108  -1.073  0.00  0.00    +0.005 A 
ATOM     23 CL   UNL     1       4.189  -5.027  -1.624  0.00  0.00    -0.083 Cl
ENDBRANCH  16  21
ENDBRANCH   1  16
TORSDOF 4
