REMARK  Name = ZINC42603005
REMARK  5 active torsions:
REMARK  status: ('A' for Active; 'I' for Inactive)
REMARK    1  A    between atoms: C_1  and  C_2
REMARK    2  A    between atoms: C_8  and  N_10
REMARK    3  A    between atoms: N_10  and  C_11
REMARK    4  A    between atoms: N_10  and  C_12
REMARK    5  A    between atoms: C_17  and  N_18
REMARK                            x       y       z     vdW  Elec       q    Type
REMARK                         _______ _______ _______ _____ _____    ______ ____
ROOT
ATOM      1  C   UNL     1       0.735   0.771   3.367  0.00  0.00    +0.051 A 
ATOM      2  C   UNL     1       0.702   2.151   3.235  0.00  0.00    +0.026 A 
ATOM      3  C   UNL     1       1.371   2.949   4.145  0.00  0.00    +0.017 A 
ATOM      4  C   UNL     1       2.077   2.374   5.187  0.00  0.00    +0.020 A 
ATOM      5  C   UNL     1       2.115   0.998   5.325  0.00  0.00    +0.039 A 
ATOM      6  C   UNL     1       1.441   0.191   4.421  0.00  0.00    +0.047 A 
ATOM      7 BR   UNL     1       2.991   3.472   6.425  0.00  0.00    -0.050 Br
ENDROOT
BRANCH   6   8
ATOM      8  N   UNL     1       1.474  -1.201   4.561  0.00  0.00    -0.357 N 
ATOM      9  H   UNL     1       1.005  -1.764   3.926  0.00  0.00    +0.142 HD
ATOM     10  H   UNL     1       1.965  -1.603   5.295  0.00  0.00    +0.142 HD
ENDBRANCH   6   8
BRANCH   1  11
ATOM     11  N   UNL     1       0.056  -0.038   2.447  0.00  0.00    -0.328 N 
ATOM     12  C   UNL     1      -1.339  -0.413   2.690  0.00  0.00    +0.129 C 
BRANCH  11  19
ATOM     13  C   UNL     1      -0.019   1.526   0.010  0.00  0.00    +0.009 C 
ATOM     14  C   UNL     1       0.002  -0.004   0.002  0.00  0.00    +0.006 C 
ATOM     15  C   UNL     1       0.718  -0.497  -1.257  0.00  0.00    +0.005 C 
ATOM     16  C   UNL     1       0.739  -2.027  -1.265  0.00  0.00    +0.000 C 
ATOM     17  C   UNL     1       1.479  -2.534  -0.026  0.00  0.00    +0.002 C 
ATOM     18  C   UNL     1       0.763  -2.041   1.233  0.00  0.00    +0.023 C 
ATOM     19  C   UNL     1       0.742  -0.511   1.242  0.00  0.00    +0.076 C 
ENDBRANCH  11  19
ENDBRANCH   1  11
TORSDOF 3
