REMARK  Name = ZINC04852520
REMARK  8 active torsions:
REMARK  status: ('A' for Active; 'I' for Inactive)
REMARK    1  A    between atoms: C_1  and  C_2
REMARK    2  A    between atoms: C_4  and  C_26
REMARK    3  A    between atoms: C_5  and  N_9
REMARK    4  A    between atoms: C_6  and  C_8
REMARK    5  A    between atoms: C_10  and  C_12
REMARK    6  A    between atoms: C_13  and  N_25
REMARK    7  A    between atoms: N_14  and  C_17
REMARK    8  A    between atoms: C_17  and  C_18
REMARK                            x       y       z     vdW  Elec       q    Type
REMARK                         _______ _______ _______ _____ _____    ______ ____
ROOT
ATOM      1  C   UNL     1       0.688  -2.268  -0.405  0.00  0.00    +0.188 A 
ATOM      2  C   UNL     1       1.425  -1.119  -0.667  0.00  0.00    +0.147 A 
ATOM      3  N   UNL     1       1.107  -0.231   0.304  0.00  0.00    -0.226 N 
ATOM      4  N   UNL     1       0.171  -0.857   1.138  0.00  0.00    -0.063 NA
ATOM      5  N   UNL     1      -0.052  -2.045   0.697  0.00  0.00    -0.123 NA
ENDROOT
BRANCH   1   7
ATOM      6  N   UNL     1      -0.062  -4.549  -0.831  0.00  0.00    -0.280 N 
ATOM      7  C   UNL     1       0.710  -3.505  -1.193  0.00  0.00    +0.272 C 
ATOM      8  O   UNL     1       1.425  -3.589  -2.175  0.00  0.00    -0.268 OA
ATOM      9  H   UNL     1      -0.591  -4.502  -0.019  0.00  0.00    +0.155 HD
BRANCH   6  14
ATOM     10  C   UNL     1      -0.212  -9.218  -4.049  0.00  0.00    +0.044 C 
ATOM     11  C   UNL     1      -0.172  -7.978  -3.194  0.00  0.00    -0.050 A 
ATOM     12  C   UNL     1       0.093  -8.081  -1.841  0.00  0.00    +0.008 A 
ATOM     13  C   UNL     1       0.130  -6.946  -1.054  0.00  0.00    -0.029 A 
ATOM     14  C   UNL     1      -0.099  -5.700  -1.624  0.00  0.00    +0.040 A 
ATOM     15  C   UNL     1      -0.371  -5.601  -2.982  0.00  0.00    -0.029 A 
ATOM     16  C   UNL     1      -0.401  -6.739  -3.764  0.00  0.00    +0.008 A 
ATOM     17  C   UNL     1      -0.626  -4.252  -3.604  0.00  0.00    +0.045 C 
ATOM     18  C   UNL     1       0.419  -7.059   0.420  0.00  0.00    +0.045 C 
ENDBRANCH   6  14
ENDBRANCH   1   7
BRANCH   2  19
ATOM     19  N   UNL     1       2.307  -0.923  -1.710  0.00  0.00    -0.341 N 
ATOM     20  H   UNL     1       2.773  -0.077  -1.798  0.00  0.00    +0.144 HD
ATOM     21  H   UNL     1       2.462  -1.632  -2.354  0.00  0.00    +0.144 HD
ENDBRANCH   2  19
BRANCH   3  22
ATOM     22  C   UNL     1       1.636   1.127   0.451  0.00  0.00    +0.182 C 
BRANCH  22  23
ATOM     23  C   UNL     1       2.873   1.095   1.311  0.00  0.00    -0.025 A 
ATOM     24  C   UNL     1       4.115   0.922   0.729  0.00  0.00    +0.005 A 
ATOM     25  C   UNL     1       5.250   0.892   1.517  0.00  0.00    +0.001 A 
ATOM     26  C   UNL     1       5.143   1.035   2.888  0.00  0.00    +0.015 A 
ATOM     27  C   UNL     1       3.901   1.207   3.471  0.00  0.00    +0.018 A 
ATOM     28  C   UNL     1       2.766   1.242   2.681  0.00  0.00    +0.020 A 
ATOM     29 BR   UNL     1       3.755   1.401   5.346  0.00  0.00    -0.050 Br
ENDBRANCH  22  23
ENDBRANCH   3  22
TORSDOF 5
