REMARK  Name = ZINC39353486
REMARK  4 active torsions:
REMARK  status: ('A' for Active; 'I' for Inactive)
REMARK    1  A    between atoms: C_4  and  C_7
REMARK    2  A    between atoms: C_15  and  C_17
REMARK    3  A    between atoms: C_22  and  N_25
REMARK    4  A    between atoms: C_33  and  C_35
REMARK                            x       y       z     vdW  Elec       q    Type
REMARK                         _______ _______ _______ _____ _____    ______ ____
ROOT
ATOM      1  C   UNL     1       3.485  -1.794  -2.307  0.00  0.00    +0.264 C 
ATOM      2  O   UNL     1       2.353  -1.385  -2.489  0.00  0.00    -0.268 OA
ATOM      3  N   UNL     1       4.102  -2.518  -3.262  0.00  0.00    -0.296 N 
ATOM      4  C   UNL     1       5.422  -3.114  -3.014  0.00  0.00    +0.110 C 
ATOM      5  C   UNL     1       6.377  -2.678  -4.129  0.00  0.00    +0.041 C 
ATOM      6  C   UNL     1       5.769  -3.039  -5.486  0.00  0.00    +0.080 C 
ATOM      7  C   UNL     1       4.444  -2.296  -5.668  0.00  0.00    +0.041 C 
ATOM      8  C   UNL     1       3.464  -2.733  -4.568  0.00  0.00    +0.110 C 
ENDROOT
BRANCH   1  17
ATOM      9  C   UNL     1       5.022  -0.423  -0.830  0.00  0.00    +0.020 A 
ATOM     10  C   UNL     1       5.475  -0.526   0.562  0.00  0.00    +0.010 A 
ATOM     11  C   UNL     1       6.320   0.249   1.360  0.00  0.00    +0.030 A 
ATOM     12  C   UNL     1       6.553  -0.116   2.656  0.00  0.00    +0.042 A 
ATOM     13  C   UNL     1       5.957  -1.254   3.186  0.00  0.00    +0.022 A 
ATOM     14  C   UNL     1       5.122  -2.032   2.417  0.00  0.00    +0.027 A 
ATOM     15  C   UNL     1       4.868  -1.679   1.094  0.00  0.00    +0.048 A 
ATOM     16  N   UNL     1       4.097  -2.247   0.106  0.00  0.00    -0.350 N 
ATOM     17  C   UNL     1       4.179  -1.497  -1.049  0.00  0.00    +0.111 A 
ATOM     18  H   UNL     1       3.570  -3.055   0.208  0.00  0.00    +0.166 HD
ATOM     19 CL   UNL     1       7.603   0.848   3.647  0.00  0.00    -0.084 Cl
BRANCH   9  23
ATOM     20  C   UNL     1       6.076   2.591  -3.632  0.00  0.00    +0.000 A 
ATOM     21  C   UNL     1       7.046   1.731  -3.149  0.00  0.00    +0.001 A 
ATOM     22  C   UNL     1       6.710   0.750  -2.239  0.00  0.00    +0.008 A 
ATOM     23  C   UNL     1       5.389   0.627  -1.806  0.00  0.00    -0.015 A 
ATOM     24  C   UNL     1       4.416   1.498  -2.297  0.00  0.00    +0.008 A 
ATOM     25  C   UNL     1       4.765   2.475  -3.207  0.00  0.00    +0.001 A 
ENDBRANCH   9  23
ENDBRANCH   1  17
BRANCH   6  26
ATOM     26  N   UNL     1       6.695  -2.653  -6.554  0.00  0.00    -0.291 N 
ATOM     27  C   UNL     1       7.164  -1.365  -6.813  0.00  0.00    +0.122 A 
ATOM     28  C   UNL     1       8.027  -1.391  -7.908  0.00  0.00    +0.067 A 
ATOM     29  C   UNL     1       8.612  -0.206  -8.339  0.00  0.00    +0.028 A 
ATOM     30  C   UNL     1       8.313   0.966  -7.659  0.00  0.00    +0.019 A 
ATOM     31  C   UNL     1       7.450   0.920  -6.583  0.00  0.00    +0.084 A 
ATOM     32  N   UNL     1       6.909  -0.219  -6.194  0.00  0.00    -0.348 N 
ATOM     33  N   UNL     1       8.144  -2.699  -8.392  0.00  0.00    -0.321 N 
ATOM     34  C   UNL     1       7.303  -3.552  -7.542  0.00  0.00    +0.189 C 
ATOM     35  H   UNL     1       8.681  -2.989  -9.146  0.00  0.00    +0.148 HD
ATOM     36  H   UNL     1       6.306  -0.218  -5.434  0.00  0.00    +0.167 HD
BRANCH  34  37
ATOM     37  C   UNL     1       6.216  -4.224  -8.384  0.00  0.00    +0.157 C 
ATOM     38  C   UNL     1       6.856  -5.256  -9.337  0.00  0.00    +0.037 C 
ATOM     39  C   UNL     1       6.026  -5.064 -10.636  0.00  0.00    +0.031 C 
ATOM     40  C   UNL     1       5.744  -3.541 -10.582  0.00  0.00    +0.160 C 
ATOM     41  O   UNL     1       5.549  -3.244  -9.188  0.00  0.00    -0.373 OA
ENDBRANCH  34  37
ENDBRANCH   6  26
TORSDOF 4
