REMARK  Name = ZINC16461666
REMARK  8 active torsions:
REMARK  status: ('A' for Active; 'I' for Inactive)
REMARK    1  A    between atoms: C_1  and  C_2
REMARK    2  A    between atoms: C_7  and  N_8
REMARK    3  A    between atoms: C_9  and  C_29
REMARK    4  A    between atoms: C_12  and  S_13
REMARK    5  A    between atoms: S_13  and  C_14
REMARK    6  A    between atoms: C_14  and  C_15
REMARK    7  A    between atoms: C_17  and  C_20
REMARK    8  A    between atoms: N_22  and  C_23
REMARK                            x       y       z     vdW  Elec       q    Type
REMARK                         _______ _______ _______ _____ _____    ______ ____
ROOT
ATOM      1  N   UNL     1       2.057   0.674  -0.014  0.00  0.00    -0.270 N 
ATOM      2  C   UNL     1       1.242  -0.437  -0.012  0.00  0.00    +0.171 A 
ATOM      3  N   UNL     1       0.002  -0.004   0.002  0.00  0.00    -0.128 NA
ATOM      4  N   UNL     1      -0.015   1.281   0.009  0.00  0.00    -0.122 NA
ATOM      5  C   UNL     1       1.212   1.750  -0.000  0.00  0.00    +0.197 A 
ENDROOT
BRANCH   1  12
ATOM      6  C   UNL     1       3.425   0.695   2.482  0.00  0.00    +0.046 C 
ATOM      7  C   UNL     1       4.165   0.707   1.169  0.00  0.00    -0.026 A 
ATOM      8  C   UNL     1       5.546   0.724   1.154  0.00  0.00    +0.007 A 
ATOM      9  C   UNL     1       6.226   0.740  -0.050  0.00  0.00    +0.020 A 
ATOM     10  C   UNL     1       5.525   0.736  -1.243  0.00  0.00    +0.043 A 
ATOM     11  C   UNL     1       4.143   0.714  -1.234  0.00  0.00    +0.046 A 
ATOM     12  C   UNL     1       3.458   0.696  -0.026  0.00  0.00    +0.055 A 
ATOM     13 CL   UNL     1       6.382   0.757  -2.753  0.00  0.00    -0.083 Cl
ENDBRANCH   1  12
BRANCH   2  14
ATOM     14  C   UNL     1       1.679  -1.849  -0.024  0.00  0.00    +0.038 A 
ATOM     15  C   UNL     1       0.775  -2.872  -0.332  0.00  0.00    +0.014 A 
ATOM     16  C   UNL     1       1.235  -4.177  -0.329  0.00  0.00    +0.020 A 
ATOM     17  C   UNL     1       2.562  -4.426  -0.024  0.00  0.00    +0.111 A 
ATOM     18  N   UNL     1       3.391  -3.442   0.263  0.00  0.00    -0.263 NA
ATOM     19  C   UNL     1       3.002  -2.183   0.268  0.00  0.00    +0.122 A 
ENDBRANCH   2  14
BRANCH   5  20
ATOM     20  S   UNL     1       1.683   3.448   0.004  0.00  0.00    -0.079 S 
BRANCH  20  21
ATOM     21  C   UNL     1       0.049   4.227   0.024  0.00  0.00    +0.140 C 
BRANCH  21  22
ATOM     22  C   UNL     1       0.207   5.726   0.030  0.00  0.00    +0.089 A 
ATOM     23  N   UNL     1       0.282   6.543  -0.988  0.00  0.00    -0.239 NA
ATOM     24  C   UNL     1       0.422   7.853  -0.782  0.00  0.00    +0.133 A 
ATOM     25  C   UNL     1       0.481   8.288   0.518  0.00  0.00    +0.080 A 
ATOM     26  S   UNL     1       0.326   6.796   1.389  0.00  0.00    -0.079 S 
BRANCH  24  27
ATOM     27  C   UNL     1       0.509   8.798  -1.908  0.00  0.00    +0.263 C 
ATOM     28  O   UNL     1       0.636   9.989  -1.694  0.00  0.00    -0.269 OA
ATOM     29  N   UNL     1       0.448   8.343  -3.175  0.00  0.00    -0.307 N 
ATOM     30  H   UNL     1       0.347   7.394  -3.346  0.00  0.00    +0.149 HD
BRANCH  29  31
ATOM     31  C   UNL     1       0.535   9.284  -4.296  0.00  0.00    +0.073 C 
ATOM     32  C   UNL     1      -0.853   9.856  -4.590  0.00  0.00    +0.022 C 
ATOM     33  C   UNL     1      -0.762  10.838  -5.760  0.00  0.00    +0.002 C 
ATOM     34  C   UNL     1      -0.238  10.108  -6.998  0.00  0.00    +0.000 C 
ATOM     35  C   UNL     1       1.149   9.536  -6.704  0.00  0.00    +0.002 C 
ATOM     36  C   UNL     1       1.059   8.554  -5.534  0.00  0.00    +0.022 C 
ENDBRANCH  29  31
ENDBRANCH  24  27
ENDBRANCH  21  22
ENDBRANCH  20  21
ENDBRANCH   5  20
TORSDOF 7
