REMARK  Name = ZINC04801934
REMARK  8 active torsions:
REMARK  status: ('A' for Active; 'I' for Inactive)
REMARK    1  A    between atoms: C_3  and  C_9
REMARK    2  A    between atoms: C_9  and  S_10
REMARK    3  A    between atoms: S_10  and  C_11
REMARK    4  A    between atoms: N_18  and  C1*_21
REMARK    5  A    between atoms: C2*_23  and  O2*_33
REMARK    6  A    between atoms: C3*_25  and  O3*_32
REMARK    7  A    between atoms: C4*_27  and  C5*_30
REMARK    8  A    between atoms: C5*_30  and  O5*_31
REMARK                            x       y       z     vdW  Elec       q    Type
REMARK                         _______ _______ _______ _____ _____    ______ ____
ROOT
ATOM      1  C   UNL     1      -3.597   4.084  -0.637  0.00  0.00    +0.130 A 
ATOM      2  C   UNL     1      -2.252   3.946  -1.022  0.00  0.00    +0.140 A 
ATOM      3  C   UNL     1      -1.323   3.526  -0.056  0.00  0.00    +0.169 A 
ATOM      4  N   UNL     1      -1.743   3.274   1.181  0.00  0.00    -0.195 NA
ATOM      5  C   UNL     1      -3.019   3.412   1.500  0.00  0.00    +0.216 A 
ATOM      6  N   UNL     1      -3.932   3.803   0.618  0.00  0.00    -0.206 NA
ATOM      7  N   UNL     1      -3.418   3.139   2.798  0.00  0.00    -0.327 N 
ATOM      8  N   UNL     1      -0.108   3.482  -0.692  0.00  0.00    -0.285 N 
ATOM      9  C   UNL     1      -0.313   3.853  -1.989  0.00  0.00    +0.203 A 
ATOM     10  N   UNL     1      -1.571   4.125  -2.180  0.00  0.00    -0.231 NA
ATOM     11  H   UNL     1      -2.765   2.852   3.455  0.00  0.00    +0.145 HD
ATOM     12  H   UNL     1      -4.349   3.236   3.050  0.00  0.00    +0.145 HD
ENDROOT
BRANCH   8  13
ATOM     13  C1* UNL     1       1.172   3.100  -0.091  0.00  0.00    +0.253 C 
ATOM     14  C2* UNL     1       1.289   1.562  -0.008  0.00  0.00    +0.195 C 
ATOM     15  C3* UNL     1       2.061   1.174  -1.290  0.00  0.00    +0.178 C 
ATOM     16  C4* UNL     1       2.318   2.524  -1.995  0.00  0.00    +0.177 C 
ATOM     17  O4* UNL     1       2.267   3.508  -0.939  0.00  0.00    -0.346 OA
BRANCH  15  18
ATOM     18  O3* UNL     1       3.296   0.536  -0.957  0.00  0.00    -0.386 OA
ATOM     19  H3* UNL     1       3.821   0.272  -1.725  0.00  0.00    +0.210 HD
ENDBRANCH  15  18
BRANCH  14  20
ATOM     20  O2* UNL     1      -0.007   0.960  -0.003  0.00  0.00    -0.385 OA
ATOM     21  H2* UNL     1       0.008  -0.007  -0.012  0.00  0.00    +0.210 HD
ENDBRANCH  14  20
BRANCH  16  22
ATOM     22  C5* UNL     1       3.698   2.525  -2.657  0.00  0.00    +0.190 C 
BRANCH  22  23
ATOM     23  O5* UNL     1       3.869   3.733  -3.400  0.00  0.00    -0.392 OA
ATOM     24  H5* UNL     1       4.723   3.802  -3.848  0.00  0.00    +0.210 HD
ENDBRANCH  22  23
ENDBRANCH  16  22
ENDBRANCH   8  13
BRANCH   1  25
ATOM     25  S   UNL     1      -4.817   4.601  -1.799  0.00  0.00    -0.099 S 
BRANCH  25  26
ATOM     26  C   UNL     1      -6.285   4.587  -0.740  0.00  0.00    +0.112 C 
BRANCH  26  29
ATOM     27  C   UNL     1      -8.941   6.730  -2.354  0.00  0.00    +0.020 A 
ATOM     28  C   UNL     1      -7.841   6.342  -1.613  0.00  0.00    +0.007 A 
ATOM     29  C   UNL     1      -7.488   5.008  -1.544  0.00  0.00    -0.019 A 
ATOM     30  C   UNL     1      -8.243   4.057  -2.209  0.00  0.00    +0.046 A 
ATOM     31  C   UNL     1      -9.347   4.444  -2.947  0.00  0.00    +0.040 A 
ATOM     32  C   UNL     1      -9.696   5.780  -3.020  0.00  0.00    +0.042 A 
ATOM     33 CL   UNL     1     -11.082   6.266  -3.945  0.00  0.00    -0.083 Cl
ATOM     34 CL   UNL     1      -7.803   2.380  -2.118  0.00  0.00    -0.083 Cl
ENDBRANCH  26  29
ENDBRANCH  25  26
ENDBRANCH   1  25
TORSDOF 8
