REMARK  Name = ZINC09498432
REMARK  5 active torsions:
REMARK  status: ('A' for Active; 'I' for Inactive)
REMARK    1  A    between atoms: C_1  and  C_2
REMARK    2  A    between atoms: C_4  and  C_36
REMARK    3  A    between atoms: N_20  and  C_23
REMARK    4  A    between atoms: C_26  and  N_30
REMARK    5  A    between atoms: C_28  and  C_29
REMARK                            x       y       z     vdW  Elec       q    Type
REMARK                         _______ _______ _______ _____ _____    ______ ____
ROOT
ATOM      1  C   UNL     1      -0.882   6.924  -1.550  0.00  0.00    +0.044 C 
ATOM      2  C   UNL     1      -0.105   5.714  -2.002  0.00  0.00    -0.050 A 
ATOM      3  C   UNL     1       0.506   5.706  -3.242  0.00  0.00    +0.008 A 
ATOM      4  C   UNL     1       1.218   4.601  -3.661  0.00  0.00    -0.029 A 
ATOM      5  C   UNL     1       1.327   3.484  -2.836  0.00  0.00    +0.039 A 
ATOM      6  C   UNL     1       0.709   3.504  -1.590  0.00  0.00    -0.027 A 
ATOM      7  C   UNL     1      -0.002   4.609  -1.176  0.00  0.00    +0.008 A 
ATOM      8  C   UNL     1       1.011   2.174  -0.958  0.00  0.00    +0.053 C 
ATOM      9  C   UNL     1      -0.275   1.406  -0.632  0.00  0.00    +0.089 C 
ATOM     10  C   UNL     1       0.036   0.666   0.698  0.00  0.00    +0.074 C 
ATOM     11  C   UNL     1       1.484   1.057   1.048  0.00  0.00    -0.054 C 
ATOM     12  C   UNL     1       1.071   3.375   1.139  0.00  0.00    -0.076 C 
ATOM     13  C   UNL     1       1.313   2.948   2.601  0.00  0.00    -0.020 C 
ATOM     14  C   UNL     1       1.569   1.404   2.546  0.00  0.00    -0.016 C 
ATOM     15  C   UNL     1      -0.910   1.297   1.695  0.00  0.00    +0.228 C 
ATOM     16  O   UNL     1      -0.985   1.007   2.869  0.00  0.00    -0.275 OA
ATOM     17  N   UNL     1      -1.654   2.227   1.055  0.00  0.00    -0.210 N 
ATOM     18  C   UNL     1      -1.376   2.368  -0.246  0.00  0.00    +0.229 C 
ATOM     19  O   UNL     1      -1.923   3.145  -0.999  0.00  0.00    -0.275 OA
ATOM     20  C   UNL     1       1.844   1.441  -1.974  0.00  0.00    +0.212 C 
ATOM     21  O   UNL     1       2.304   0.324  -1.864  0.00  0.00    -0.277 OA
ATOM     22  N   UNL     1       1.982   2.265  -3.030  0.00  0.00    -0.286 N 
ATOM     23  C   UNL     1       1.879   4.602  -5.015  0.00  0.00    +0.045 C 
ATOM     24  H   UNL     1       2.478   2.039  -3.833  0.00  0.00    +0.155 HD
ATOM     25  N   UNL     1       1.687   2.298   0.336  0.00  0.00    +0.395 N 
ATOM     26  H   UNL     1       2.687   2.483   0.200  0.00  0.00    -0.079 HD
ENDROOT
BRANCH  17  27
ATOM     27  C   UNL     1      -2.634   2.988   1.708  0.00  0.00    +0.047 A 
ATOM     28  C   UNL     1      -2.309   4.228   2.242  0.00  0.00    +0.026 A 
ATOM     29  C   UNL     1      -3.276   4.976   2.885  0.00  0.00    +0.034 A 
ATOM     30  C   UNL     1      -4.566   4.492   2.996  0.00  0.00    +0.127 A 
ATOM     31  C   UNL     1      -4.893   3.258   2.464  0.00  0.00    +0.038 A 
ATOM     32  C   UNL     1      -3.931   2.507   1.816  0.00  0.00    -0.026 A 
ATOM     33  C   UNL     1      -4.289   1.165   1.232  0.00  0.00    +0.046 C 
BRANCH  30  34
ATOM     34  N   UNL     1      -5.601   5.296   3.684  0.00  0.00    +0.056 N 
ATOM     35  O   UNL     1      -5.314   6.384   4.152  0.00  0.00    -0.126 OA
ATOM     36  O   UNL     1      -6.738   4.871   3.783  0.00  0.00    -0.126 OA
ENDBRANCH  30  34
ENDBRANCH  17  27
TORSDOF 2
