REMARK  Name = ZINC10527705
REMARK  5 active torsions:
REMARK  status: ('A' for Active; 'I' for Inactive)
REMARK    1  A    between atoms: N_10  and  C_11
REMARK    2  A    between atoms: C_11  and  C_12
REMARK    3  A    between atoms: C_17  and  C_19
REMARK    4  A    between atoms: C_22  and  S_25
REMARK    5  A    between atoms: S_25  and  N_28
REMARK                            x       y       z     vdW  Elec       q    Type
REMARK                         _______ _______ _______ _____ _____    ______ ____
ROOT
ATOM      1  C   UNL     1       7.257  -8.716  -1.079  0.00  0.00    +0.004 A 
ATOM      2  C   UNL     1       6.918  -8.338  -2.370  0.00  0.00    +0.040 A 
ATOM      3  C   UNL     1       5.879  -7.475  -2.614  0.00  0.00    +0.150 A 
ATOM      4  C   UNL     1       5.116  -6.943  -1.547  0.00  0.00    +0.115 A 
ATOM      5  C   UNL     1       5.491  -7.351  -0.247  0.00  0.00    +0.044 A 
ATOM      6  C   UNL     1       6.533  -8.214  -0.013  0.00  0.00    +0.017 A 
ATOM      7  S   UNL     1       4.328  -6.479   0.774  0.00  0.00    -0.052 S 
ATOM      8  C   UNL     1       3.439  -5.663  -0.545  0.00  0.00    +0.169 A 
ATOM      9  N   UNL     1       4.070  -6.090  -1.613  0.00  0.00    -0.221 NA
ATOM     10  N   UNL     1       2.362  -4.797  -0.460  0.00  0.00    -0.239 N 
ATOM     11  C   UNL     1       1.828  -4.274  -1.582  0.00  0.00    +0.253 C 
ATOM     12  O   UNL     1       2.218  -4.646  -2.671  0.00  0.00    -0.270 OA
ATOM     13  F   UNL     1       5.580  -7.132  -3.886  0.00  0.00    -0.203 F 
ENDROOT
BRANCH  11  14
ATOM     14  C   UNL     1       0.768  -3.249  -1.487  0.00  0.00    +0.037 A 
ATOM     15  C   UNL     1      -0.351  -3.470  -0.682  0.00  0.00    +0.015 A 
ATOM     16  C   UNL     1      -1.337  -2.508  -0.598  0.00  0.00    +0.029 A 
ATOM     17  C   UNL     1      -1.218  -1.327  -1.309  0.00  0.00    +0.106 A 
ATOM     18  C   UNL     1      -0.114  -1.104  -2.112  0.00  0.00    +0.029 A 
ATOM     19  C   UNL     1       0.881  -2.055  -2.202  0.00  0.00    +0.015 A 
BRANCH  17  20
ATOM     20  S   UNL     1      -2.482  -0.104  -1.195  0.00  0.00    +0.061 S 
ATOM     21  O   UNL     1      -3.670  -0.783  -0.813  0.00  0.00    -0.153 OA
ATOM     22  O   UNL     1      -2.398   0.677  -2.379  0.00  0.00    -0.153 OA
BRANCH  20  23
ATOM     23  N   UNL     1      -2.083   0.897   0.062  0.00  0.00    -0.177 NA
ATOM     24  C   UNL     1      -1.276   2.062  -0.162  0.00  0.00    +0.109 C 
ATOM     25  C   UNL     1       0.256   1.856  -0.073  0.00  0.00    +0.017 C 
ATOM     26  C   UNL     1       0.601   0.928   1.118  0.00  0.00    +0.001 C 
ATOM     27  C   UNL     1      -0.280   1.224   2.297  0.00  0.00    +0.001 C 
ATOM     28  C   UNL     1      -1.396   0.187   2.239  0.00  0.00    +0.017 C 
ATOM     29  C   UNL     1      -2.559   0.600   1.455  0.00  0.00    +0.109 C 
ENDBRANCH  20  23
ENDBRANCH  17  20
ENDBRANCH  11  14
BRANCH  10  30
ATOM     30  C   UNL     1       1.803  -4.448   0.848  0.00  0.00    +0.190 C 
BRANCH  30  31
ATOM     31  C   UNL     1       0.987  -5.603   1.370  0.00  0.00    +0.123 A 
ATOM     32  C   UNL     1       1.466  -6.664   2.043  0.00  0.00    +0.046 A 
ATOM     33  C   UNL     1       0.361  -7.496   2.337  0.00  0.00    +0.041 A 
ATOM     34  C   UNL     1      -0.728  -6.893   1.825  0.00  0.00    +0.195 A 
ATOM     35  O   UNL     1      -0.343  -5.744   1.246  0.00  0.00    -0.466 OA
ENDBRANCH  30  31
ENDBRANCH  10  30
TORSDOF 5
