REMARK  Name = ZINC18479293
REMARK  16 active torsions:
REMARK  status: ('A' for Active; 'I' for Inactive)
REMARK    1  A    between atoms: C_1  and  C_2
REMARK    2  A    between atoms: C_2  and  C_3
REMARK    3  A    between atoms: C_3  and  C_4
REMARK    4  A    between atoms: C_4  and  C_5
REMARK    5  A    between atoms: C_5  and  C_6
REMARK    6  A    between atoms: C_6  and  C_8
REMARK    7  A    between atoms: C_6  and  N_9
REMARK    8  A    between atoms: C_10  and  C_12
REMARK    9  A    between atoms: C_12  and  S_13
REMARK   10  A    between atoms: S_13  and  C_14
REMARK   11  A    between atoms: N_24  and  C_25
REMARK   12  A    between atoms: C_25  and  C_26
REMARK   13  A    between atoms: C_26  and  C_27
REMARK   14  A    between atoms: C_27  and  O_28
REMARK   15  A    between atoms: O_28  and  C_29
REMARK   16  A    between atoms: C_29  and  C_30
REMARK                            x       y       z     vdW  Elec       q    Type
REMARK                         _______ _______ _______ _____ _____    ______ ____
ROOT
ATOM      1  C   UNL     1      -1.119  -2.036   0.002  0.00  0.00    +0.173 A 
ATOM      2  N   UNL     1      -1.136  -0.726   0.009  0.00  0.00    -0.223 NA
ATOM      3  C   UNL     1       0.002  -0.004   0.002  0.00  0.00    +0.079 A 
ATOM      4  C   UNL     1      -0.017   1.394   0.010  0.00  0.00    +0.028 A 
ATOM      5  C   UNL     1       1.161   2.086   0.002  0.00  0.00    +0.002 A 
ATOM      6  C   UNL     1       2.381   1.422  -0.013  0.00  0.00    +0.001 A 
ATOM      7  C   UNL     1       2.432   0.055  -0.021  0.00  0.00    +0.015 A 
ATOM      8  C   UNL     1       1.245  -0.677  -0.013  0.00  0.00    +0.065 A 
ATOM      9  C   UNL     1       1.239  -2.146  -0.021  0.00  0.00    +0.262 A 
ATOM     10  O   UNL     1       2.277  -2.782  -0.034  0.00  0.00    -0.267 OA
ATOM     11  N   UNL     1       0.036  -2.766  -0.012  0.00  0.00    -0.287 N 
ENDROOT
BRANCH   1  12
ATOM     12  S   UNL     1      -2.656  -2.897   0.012  0.00  0.00    -0.078 S 
BRANCH  12  13
ATOM     13  C   UNL     1      -3.801  -1.496   0.030  0.00  0.00    +0.173 C 
BRANCH  13  15
ATOM     14  N   UNL     1      -6.248  -1.135   0.055  0.00  0.00    -0.312 N 
ATOM     15  C   UNL     1      -5.219  -2.005   0.041  0.00  0.00    +0.224 C 
ATOM     16  O   UNL     1      -5.434  -3.199   0.037  0.00  0.00    -0.275 OA
ATOM     17  H   UNL     1      -6.076  -0.180   0.058  0.00  0.00    +0.149 HD
BRANCH  14  18
ATOM     18  C   UNL     1      -7.627  -1.631   0.065  0.00  0.00    +0.070 C 
ATOM     19  C   UNL     1      -8.050  -1.929   1.505  0.00  0.00    +0.028 C 
BRANCH  18  20
ATOM     20  C   UNL     1      -8.554  -0.570  -0.530  0.00  0.00    +0.022 C 
BRANCH  20  21
ATOM     21  C   UNL     1      -8.210  -0.362  -2.007  0.00  0.00    +0.002 C 
BRANCH  21  22
ATOM     22  C   UNL     1      -9.138   0.699  -2.602  0.00  0.00    -0.000 C 
BRANCH  22  24
ATOM     23  C   UNL     1      -9.722   1.967  -4.674  0.00  0.00    +0.004 C 
ATOM     24  C   UNL     1      -8.794   0.906  -4.079  0.00  0.00    -0.003 C 
ENDBRANCH  22  24
ENDBRANCH  21  22
ENDBRANCH  20  21
ENDBRANCH  18  20
ENDBRANCH  14  18
ENDBRANCH  13  15
ENDBRANCH  12  13
ENDBRANCH   1  12
BRANCH  11  25
ATOM     25  C   UNL     1      -0.028  -4.229  -0.019  0.00  0.00    +0.129 C 
BRANCH  25  26
ATOM     26  C   UNL     1      -0.037  -4.746   1.421  0.00  0.00    +0.050 C 
BRANCH  26  27
ATOM     27  C   UNL     1      -0.104  -6.275   1.414  0.00  0.00    +0.161 C 
BRANCH  27  28
ATOM     28  O   UNL     1      -0.112  -6.757   2.759  0.00  0.00    -0.380 OA
BRANCH  28  29
ATOM     29  C   UNL     1      -0.173  -8.181   2.865  0.00  0.00    +0.156 C 
ATOM     30  C   UNL     1      -0.176  -8.583   4.342  0.00  0.00    +0.034 C 
ENDBRANCH  28  29
ENDBRANCH  27  28
ENDBRANCH  26  27
ENDBRANCH  25  26
ENDBRANCH  11  25
TORSDOF 13
