REMARK  Name = ZINC01098319
REMARK  6 active torsions:
REMARK  status: ('A' for Active; 'I' for Inactive)
REMARK    1  A    between atoms: C_1  and  N_2
REMARK    2  A    between atoms: N_4  and  C_20
REMARK    3  A    between atoms: C_8  and  C_9
REMARK    4  A    between atoms: C_13  and  O_16
REMARK    5  A    between atoms: C_14  and  O_15
REMARK    6  A    between atoms: O_16  and  C_17
REMARK                            x       y       z     vdW  Elec       q    Type
REMARK                         _______ _______ _______ _____ _____    ______ ____
ROOT
ATOM      1  C   UNL     1      -3.810   3.680   3.876  0.00  0.00    +0.022 A 
ATOM      2  C   UNL     1      -3.438   3.115   5.102  0.00  0.00    +0.026 A 
ATOM      3  C   UNL     1      -3.935   3.634   6.278  0.00  0.00    +0.018 A 
ATOM      4  C   UNL     1      -4.802   4.715   6.254  0.00  0.00    +0.063 A 
ATOM      5  C   UNL     1      -5.179   5.285   5.049  0.00  0.00    +0.163 A 
ATOM      6  C   UNL     1      -4.683   4.778   3.854  0.00  0.00    +0.166 A 
ATOM      7  I   UNL     1      -3.376   2.786   8.110  0.00  0.00    -0.044 I 
ENDROOT
BRANCH   1  15
ATOM      8  C   UNL     1       1.966  -0.469   2.627  0.00  0.00    +0.173 C 
ATOM      9  N   UNL     1       1.110   0.282   3.548  0.00  0.00    -0.266 NA
ATOM     10  C   UNL     1       0.047   0.893   3.101  0.00  0.00    +0.163 C 
ATOM     11  N   UNL     1      -0.502   0.844   1.835  0.00  0.00    -0.249 N 
ATOM     12  C   UNL     1      -1.591   1.536   1.547  0.00  0.00    +0.259 C 
ATOM     13  O   UNL     1      -2.086   1.510   0.436  0.00  0.00    -0.269 OA
ATOM     14  C   UNL     1      -2.181   2.339   2.635  0.00  0.00    +0.078 C 
ATOM     15  C   UNL     1      -3.283   3.130   2.620  0.00  0.00    +0.032 C 
ATOM     16  S   UNL     1      -1.052   1.994   3.976  0.00  0.00    -0.049 S 
ATOM     17  C   UNL     1       0.132   0.022   0.800  0.00  0.00    +0.140 C 
ENDBRANCH   1  15
BRANCH   6  18
ATOM     18  O   UNL     1      -5.045   5.338   2.671  0.00  0.00    -0.503 OA
ATOM     19  H   UNL     1      -5.840   4.951   2.280  0.00  0.00    +0.292 HD
ENDBRANCH   6  18
BRANCH   5  20
ATOM     20  O   UNL     1      -6.030   6.346   5.035  0.00  0.00    -0.491 OA
ATOM     21  C   UNL     1      -6.497   6.820   6.301  0.00  0.00    +0.277 C 
ENDBRANCH   5  20
TORSDOF 3
