REMARK  Name = ZINC43851189
REMARK  2 active torsions:
REMARK  status: ('A' for Active; 'I' for Inactive)
REMARK    1  A    between atoms: C_1  and  C_2
REMARK    2  A    between atoms: N_15  and  C_16
REMARK                            x       y       z     vdW  Elec       q    Type
REMARK                         _______ _______ _______ _____ _____    ______ ____
ROOT
ATOM      1  C   UNL     1       1.255   1.028  -0.283  0.00  0.00    +0.066 C 
ATOM      2  C   UNL     1       0.718  -0.381  -0.263  0.00  0.00    +0.047 A 
ATOM      3  C   UNL     1       0.095  -0.916  -1.340  0.00  0.00    +0.071 A 
ATOM      4  S   UNL     1      -0.296  -2.545  -0.724  0.00  0.00    -0.060 S 
ATOM      5  C   UNL     1       0.364  -2.377   0.815  0.00  0.00    +0.161 A 
ATOM      6  N   UNL     1       0.840  -1.150   0.804  0.00  0.00    -0.230 NA
ATOM      7  N   UNL     1       0.403  -3.307   1.842  0.00  0.00    -0.307 N 
ATOM      8  C   UNL     1       1.023  -2.972   3.132  0.00  0.00    +0.126 C 
ATOM      9  C   UNL     1      -0.001  -3.217   4.247  0.00  0.00    +0.128 C 
ATOM     10  N   UNL     1      -0.581  -4.556   4.066  0.00  0.00    -0.282 N 
ATOM     11  C   UNL     1      -1.201  -4.891   2.776  0.00  0.00    +0.128 C 
ATOM     12  C   UNL     1      -0.182  -4.644   1.663  0.00  0.00    +0.126 C 
ATOM     13  C   UNL     1      -0.544  -5.460   5.065  0.00  0.00    +0.307 C 
ATOM     14  O   UNL     1       0.057  -5.208   6.091  0.00  0.00    -0.252 OA
ATOM     15  N   UNL     1      -1.173  -6.644   4.926  0.00  0.00    -0.269 N 
ATOM     16  H   UNL     1      -1.565  -6.887   4.072  0.00  0.00    +0.156 HD
ENDROOT
BRANCH  15  17
ATOM     17  C   UNL     1      -1.261  -7.522   6.014  0.00  0.00    +0.038 A 
ATOM     18  C   UNL     1      -1.378  -7.021   7.303  0.00  0.00    +0.027 A 
ATOM     19  C   UNL     1      -1.466  -7.886   8.377  0.00  0.00    +0.051 A 
ATOM     20  C   UNL     1      -1.437  -9.255   8.171  0.00  0.00    +0.173 A 
ATOM     21  C   UNL     1      -1.320  -9.761   6.878  0.00  0.00    +0.174 A 
ATOM     22  C   UNL     1      -1.238  -8.893   5.802  0.00  0.00    +0.073 A 
ATOM     23  O   UNL     1      -1.315 -11.125   6.943  0.00  0.00    -0.395 OA
ATOM     24  C   UNL     1      -1.019 -11.445   8.315  0.00  0.00    +0.589 C 
ATOM     25  O   UNL     1      -1.506 -10.303   9.045  0.00  0.00    -0.395 OA
ATOM     26  F   UNL     1      -1.697 -12.604   8.707  0.00  0.00    -0.125 F 
ATOM     27  F   UNL     1       0.360 -11.594   8.498  0.00  0.00    -0.125 F 
ENDBRANCH  15  17
TORSDOF 1
