REMARK  Name = ZINC12165637
REMARK  10 active torsions:
REMARK  status: ('A' for Active; 'I' for Inactive)
REMARK    1  A    between atoms: C_1  and  C_2
REMARK    2  A    between atoms: C_3  and  C_10
REMARK    3  A    between atoms: C_4  and  C_8
REMARK    4  A    between atoms: C_4  and  C_9
REMARK    5  A    between atoms: C_10  and  C_11
REMARK    6  A    between atoms: C_11  and  N_73
REMARK    7  A    between atoms: C_17  and  C_21
REMARK    8  A    between atoms: C_21  and  C_23
REMARK    9  A    between atoms: C_21  and  N_24
REMARK   10  A    between atoms: C_25  and  C_27
REMARK                            x       y       z     vdW  Elec       q    Type
REMARK                         _______ _______ _______ _____ _____    ______ ____
ROOT
ATOM      1  C   UNL     1      -4.845  -5.683  -3.707  0.00  0.00    -0.071 C 
ATOM      2  C   UNL     1      -4.477  -6.421  -2.417  0.00  0.00    +0.058 C 
ATOM      3  C   UNL     1      -3.681  -5.494  -1.536  0.00  0.00    +0.132 A 
ATOM      4  N   UNL     1      -2.586  -5.758  -0.886  0.00  0.00    -0.134 NA
ATOM      5  N   UNL     1      -2.217  -4.718  -0.222  0.00  0.00    -0.132 NA
ATOM      6  C   UNL     1      -3.068  -3.745  -0.418  0.00  0.00    +0.154 A 
ATOM      7  N   UNL     1      -4.010  -4.206  -1.269  0.00  0.00    -0.315 N 
ATOM      8  C   UNL     1      -5.152  -3.477  -1.819  0.00  0.00    +0.106 C 
ATOM      9  C   UNL     1      -6.270  -4.471  -2.150  0.00  0.00    -0.057 C 
ATOM     10  N   UNL     1      -6.138  -4.985  -3.534  0.00  0.00    +0.381 N 
ATOM     11  H   UNL     1      -6.899  -5.650  -3.713  0.00  0.00    -0.082 HD
ENDROOT
BRANCH   6  12
ATOM     12  C   UNL     1      -3.005  -2.366   0.185  0.00  0.00    +0.138 C 
ATOM     13  C   UNL     1      -3.433  -2.432   1.653  0.00  0.00    +0.036 C 
BRANCH  12  14
ATOM     14  N   UNL     1      -1.634  -1.857   0.099  0.00  0.00    -0.305 N 
ATOM     15  C   UNL     1      -1.408  -0.528   0.091  0.00  0.00    +0.217 C 
ATOM     16  O   UNL     1      -2.340   0.246   0.155  0.00  0.00    -0.275 OA
ATOM     17  H   UNL     1      -0.889  -2.476   0.048  0.00  0.00    +0.149 HD
BRANCH  15  18
ATOM     18  C   UNL     1       0.002  -0.004   0.002  0.00  0.00    +0.079 C 
ATOM     19  C   UNL     1      -0.019   1.528   0.010  0.00  0.00    +0.041 C 
ATOM     20  C   UNL     1       1.420   2.050  -0.001  0.00  0.00    +0.160 C 
ATOM     21  O   UNL     1       2.124   1.527   1.128  0.00  0.00    -0.380 OA
ATOM     22  C   UNL     1       2.216   0.101   1.149  0.00  0.00    +0.160 C 
ATOM     23  C   UNL     1       0.809  -0.499   1.206  0.00  0.00    +0.041 C 
ENDBRANCH  15  18
ENDBRANCH  12  14
ENDBRANCH   6  12
BRANCH  10  24
ATOM     24  C   UNL     1      -6.239  -3.872  -4.494  0.00  0.00    -0.074 C 
BRANCH  24  25
ATOM     25  C   UNL     1      -6.355  -4.454  -5.904  0.00  0.00    +0.013 C 
BRANCH  25  28
ATOM     26  C   UNL     1      -4.109  -3.566  -7.128  0.00  0.00    +0.039 C 
ATOM     27  C   UNL     1      -5.416  -2.905  -7.483  0.00  0.00    -0.073 C 
ATOM     28  C   UNL     1      -6.490  -3.332  -6.902  0.00  0.00    -0.067 C 
ATOM     29  C   UNL     1      -7.861  -2.777  -7.155  0.00  0.00    -0.014 C 
ATOM     30  C   UNL     1      -7.759  -1.412  -7.839  0.00  0.00    +0.011 C 
ATOM     31  C   UNL     1      -6.800  -1.537  -9.030  0.00  0.00    +0.005 C 
ATOM     32  C   UNL     1      -5.391  -1.794  -8.492  0.00  0.00    +0.030 C 
ATOM     33  C   UNL     1      -8.640  -3.738  -8.055  0.00  0.00    +0.015 C 
ATOM     34  C   UNL     1      -8.598  -2.619  -5.823  0.00  0.00    +0.015 C 
ENDBRANCH  25  28
ENDBRANCH  24  25
ENDBRANCH  10  24
TORSDOF 6
