REMARK  Name = ZINC55060545
REMARK  7 active torsions:
REMARK  status: ('A' for Active; 'I' for Inactive)
REMARK    1  A    between atoms: C_1  and  C_2
REMARK    2  A    between atoms: C_5  and  C_8
REMARK    3  A    between atoms: C_8  and  N_9
REMARK    4  A    between atoms: C_11  and  S_34
REMARK    5  A    between atoms: C_14  and  C_16
REMARK    6  A    between atoms: N_21  and  C_24
REMARK    7  A    between atoms: S_34  and  C_35
REMARK                            x       y       z     vdW  Elec       q    Type
REMARK                         _______ _______ _______ _____ _____    ______ ____
ROOT
ATOM      1  N   UNL     1       1.451  -4.747  -0.032  0.00  0.00    +0.391 N 
ATOM      2  C   UNL     1       2.098  -4.361  -1.304  0.00  0.00    -0.063 C 
ATOM      3  C   UNL     1       3.038  -5.544  -1.645  0.00  0.00    +0.037 C 
ATOM      4  C   UNL     1       2.197  -6.759  -1.172  0.00  0.00    +0.006 C 
ATOM      5  C   UNL     1       1.477  -6.217   0.081  0.00  0.00    +0.021 C 
ATOM      6  H   UNL     1       1.954  -4.338   0.741  0.00  0.00    -0.080 HD
ENDROOT
BRANCH   5   7
ATOM      7  C   UNL     1       2.231  -6.622   1.321  0.00  0.00    +0.202 C 
ATOM      8  O   UNL     1       2.705  -5.774   2.047  0.00  0.00    -0.277 OA
ATOM      9  N   UNL     1       2.379  -7.928   1.623  0.00  0.00    -0.300 N 
ATOM     10  C   UNL     1       1.818  -8.972   0.753  0.00  0.00    +0.123 C 
ATOM     11  C   UNL     1       2.923  -9.986   0.435  0.00  0.00    +0.103 C 
ATOM     12  N   UNL     1       3.512 -10.473   1.689  0.00  0.00    -0.296 NA
ATOM     13  C   UNL     1       4.160  -9.383   2.432  0.00  0.00    +0.103 C 
ATOM     14  C   UNL     1       3.112  -8.345   2.829  0.00  0.00    +0.123 C 
BRANCH  12  15
ATOM     15  C   UNL     1       4.455 -11.571   1.437  0.00  0.00    +0.063 C 
ATOM     16  C   UNL     1       3.719 -12.728   0.759  0.00  0.00    +0.007 C 
ATOM     17  C   UNL     1       2.594 -13.222   1.671  0.00  0.00    +0.008 C 
ATOM     18  C   UNL     1       3.186 -13.701   2.997  0.00  0.00    -0.010 C 
ATOM     19  C   UNL     1       4.168 -14.845   2.734  0.00  0.00    +0.007 C 
ATOM     20  C   UNL     1       5.293 -14.351   1.822  0.00  0.00    -0.010 C 
ATOM     21  C   UNL     1       4.701 -13.872   0.495  0.00  0.00    +0.008 C 
ATOM     22  C   UNL     1       6.028 -13.194   2.500  0.00  0.00    +0.008 C 
ATOM     23  C   UNL     1       5.047 -12.050   2.764  0.00  0.00    +0.007 C 
ATOM     24  C   UNL     1       3.922 -12.543   3.675  0.00  0.00    +0.008 C 
ENDBRANCH  12  15
ENDBRANCH   5   7
BRANCH   1  25
ATOM     25  C   UNL     1       0.059  -4.275  -0.021  0.00  0.00    -0.042 C 
BRANCH  25  30
ATOM     26  C   UNL     1      -0.018   1.503   0.010  0.00  0.00    +0.044 C 
ATOM     27  C   UNL     1       0.002  -0.004   0.002  0.00  0.00    -0.050 A 
ATOM     28  C   UNL     1       0.006  -0.689  -1.199  0.00  0.00    +0.003 A 
ATOM     29  C   UNL     1       0.025  -2.071  -1.206  0.00  0.00    +0.002 A 
ATOM     30  C   UNL     1       0.040  -2.768  -0.013  0.00  0.00    -0.064 A 
ATOM     31  C   UNL     1       0.037  -2.084   1.188  0.00  0.00    +0.002 A 
ATOM     32  C   UNL     1       0.023  -0.702   1.195  0.00  0.00    +0.003 A 
ENDBRANCH  25  30
ENDBRANCH   1  25
BRANCH   3  33
ATOM     33  S   UNL     1       3.356  -5.628  -3.428  0.00  0.00    -0.085 S 
BRANCH  33  34
ATOM     34  C   UNL     1       4.542  -6.921  -3.589  0.00  0.00    +0.188 A 
ATOM     35  N   UNL     1       4.958  -7.557  -2.503  0.00  0.00    -0.230 NA
ATOM     36  C   UNL     1       5.847  -8.532  -2.589  0.00  0.00    +0.115 A 
ATOM     37  C   UNL     1       6.343  -8.887  -3.834  0.00  0.00    +0.039 A 
ATOM     38  C   UNL     1       5.886  -8.202  -4.949  0.00  0.00    +0.115 A 
ATOM     39  N   UNL     1       4.993  -7.240  -4.795  0.00  0.00    -0.230 NA
ENDBRANCH  33  34
ENDBRANCH   3  33
TORSDOF 6
