REMARK  Name = ZINC08603991
REMARK  6 active torsions:
REMARK  status: ('A' for Active; 'I' for Inactive)
REMARK    1  A    between atoms: C_1  and  C_2
REMARK    2  A    between atoms: C_4  and  C_35
REMARK    3  A    between atoms: N_5  and  C_28
REMARK    4  A    between atoms: N_19  and  C_20
REMARK    5  A    between atoms: C_25  and  O_26
REMARK    6  A    between atoms: O_26  and  C_27
REMARK                            x       y       z     vdW  Elec       q    Type
REMARK                         _______ _______ _______ _____ _____    ______ ____
ROOT
ATOM      1  C   UNL     1       0.490   1.275   0.192  0.00  0.00    +0.068 C 
ATOM      2  C   UNL     1       0.393  -0.227   0.255  0.00  0.00    +0.072 A 
ATOM      3  C   UNL     1      -0.216  -0.945  -0.797  0.00  0.00    +0.049 A 
ATOM      4  C   UNL     1      -0.814  -0.645  -2.001  0.00  0.00    +0.051 A 
ATOM      5  N   UNL     1      -1.208  -1.800  -2.565  0.00  0.00    -0.236 N 
ATOM      6  N   UNL     1      -0.870  -2.876  -1.734  0.00  0.00    -0.163 NA
ATOM      7  C   UNL     1      -0.273  -2.414  -0.660  0.00  0.00    +0.137 A 
ATOM      8  C   UNL     1       0.311  -2.976   0.557  0.00  0.00    +0.172 A 
ATOM      9  N   UNL     1       0.839  -2.144   1.435  0.00  0.00    -0.132 NA
ATOM     10  N   UNL     1       0.876  -0.876   1.284  0.00  0.00    -0.152 NA
ATOM     11  N   UNL     1       0.309  -4.343   0.784  0.00  0.00    -0.309 N 
ATOM     12  C   UNL     1      -0.277  -5.264  -0.201  0.00  0.00    +0.125 C 
ATOM     13  C   UNL     1       0.781  -6.305  -0.588  0.00  0.00    +0.128 C 
ATOM     14  N   UNL     1       1.364  -6.861   0.641  0.00  0.00    -0.282 N 
ATOM     15  C   UNL     1       1.950  -5.941   1.626  0.00  0.00    +0.128 C 
ATOM     16  C   UNL     1       0.897  -4.900   2.010  0.00  0.00    +0.125 C 
ATOM     17  C   UNL     1       1.362  -8.190   0.861  0.00  0.00    +0.307 C 
ATOM     18  O   UNL     1       0.798  -8.934   0.082  0.00  0.00    -0.252 OA
ATOM     19  N   UNL     1       1.986  -8.695   1.944  0.00  0.00    -0.266 N 
ATOM     20  C   UNL     1      -0.996   0.734  -2.582  0.00  0.00    +0.066 C 
ATOM     21  H   UNL     1       2.381  -8.098   2.598  0.00  0.00    +0.156 HD
ENDROOT
BRANCH   5  22
ATOM     22  C   UNL     1      -1.860  -1.911  -3.801  0.00  0.00    +0.066 A 
ATOM     23  C   UNL     1      -1.414  -1.175  -4.891  0.00  0.00    +0.029 A 
ATOM     24  C   UNL     1      -2.058  -1.286  -6.107  0.00  0.00    +0.022 A 
ATOM     25  C   UNL     1      -3.147  -2.130  -6.240  0.00  0.00    +0.041 A 
ATOM     26  C   UNL     1      -3.593  -2.865  -5.156  0.00  0.00    +0.022 A 
ATOM     27  C   UNL     1      -2.948  -2.762  -3.939  0.00  0.00    +0.029 A 
ATOM     28 CL   UNL     1      -3.955  -2.267  -7.771  0.00  0.00    -0.084 Cl
ENDBRANCH   5  22
BRANCH  19  29
ATOM     29  C   UNL     1       2.062 -10.083   2.125  0.00  0.00    +0.077 A 
ATOM     30  C   UNL     1       1.859 -10.937   1.050  0.00  0.00    +0.027 A 
ATOM     31  C   UNL     1       1.935 -12.305   1.231  0.00  0.00    +0.002 A 
ATOM     32  C   UNL     1       2.213 -12.826   2.482  0.00  0.00    +0.004 A 
ATOM     33  C   UNL     1       2.417 -11.981   3.557  0.00  0.00    +0.047 A 
ATOM     34  C   UNL     1       2.348 -10.608   3.383  0.00  0.00    +0.141 A 
BRANCH  34  35
ATOM     35  O   UNL     1       2.554  -9.776   4.438  0.00  0.00    -0.493 OA
ATOM     36  C   UNL     1       2.842 -10.385   5.698  0.00  0.00    +0.277 C 
ENDBRANCH  34  35
ENDBRANCH  19  29
TORSDOF 3
