REMARK  Name = ZINC02290202
REMARK  9 active torsions:
REMARK  status: ('A' for Active; 'I' for Inactive)
REMARK    1  A    between atoms: C_1  and  C_2
REMARK    2  A    between atoms: C_2  and  C_3
REMARK    3  A    between atoms: C_6  and  C_9
REMARK    4  A    between atoms: N_13  and  C_17
REMARK    5  A    between atoms: C_17  and  C_18
REMARK    6  A    between atoms: C_18  and  C_19
REMARK    7  A    between atoms: C_19  and  C_20
REMARK    8  A    between atoms: C_26  and  C_28
REMARK    9  A    between atoms: C_28  and  C_29
REMARK                            x       y       z     vdW  Elec       q    Type
REMARK                         _______ _______ _______ _____ _____    ______ ____
ROOT
ATOM      1  C   UNL     1       7.212  -1.081  -2.161  0.00  0.00    +0.028 C 
ATOM      2  C   UNL     1       6.722  -0.241  -1.216  0.00  0.00    +0.077 C 
ATOM      3  C   UNL     1       5.665   0.787  -1.324  0.00  0.00    +0.258 C 
ATOM      4  O   UNL     1       5.079   0.994  -2.370  0.00  0.00    -0.269 OA
ATOM      5  N   UNL     1       5.388   1.469  -0.226  0.00  0.00    -0.255 N 
ATOM      6  C   UNL     1       6.042   1.239   0.931  0.00  0.00    +0.121 C 
ATOM      7  S   UNL     1       5.833   2.014   2.443  0.00  0.00    -0.027 S 
ATOM      8  S   UNL     1       7.178  -0.072   0.505  0.00  0.00    -0.061 S 
ENDROOT
BRANCH   1  12
ATOM      9  C   UNL     1      10.603  -3.481  -1.314  0.00  0.00    -0.048 A 
ATOM     10  C   UNL     1       9.894  -3.681  -2.486  0.00  0.00    +0.004 A 
ATOM     11  C   UNL     1       8.790  -2.905  -2.768  0.00  0.00    +0.008 A 
ATOM     12  C   UNL     1       8.387  -1.913  -1.867  0.00  0.00    -0.024 A 
ATOM     13  C   UNL     1       9.113  -1.714  -0.688  0.00  0.00    +0.008 A 
ATOM     14  C   UNL     1      10.211  -2.502  -0.417  0.00  0.00    +0.004 A 
BRANCH   9  16
ATOM     15  C   UNL     1      13.061  -3.667  -1.586  0.00  0.00    +0.009 C 
ATOM     16  C   UNL     1      11.809  -4.333  -1.013  0.00  0.00    +0.032 C 
ENDBRANCH   9  16
ENDBRANCH   1  12
BRANCH   5  17
ATOM     17  C   UNL     1       4.350   2.502  -0.267  0.00  0.00    +0.115 C 
BRANCH  17  18
ATOM     18  C   UNL     1       2.996   1.879   0.078  0.00  0.00    +0.029 C 
BRANCH  18  19
ATOM     19  C   UNL     1       1.912   2.958   0.035  0.00  0.00    +0.098 C 
BRANCH  19  20
ATOM     20  C   UNL     1       0.578   2.345   0.375  0.00  0.00    +0.219 C 
ATOM     21  O   UNL     1       0.502   1.161   0.627  0.00  0.00    -0.275 OA
ATOM     22  N   UNL     1      -0.530   3.111   0.393  0.00  0.00    -0.263 N 
ATOM     23  C   UNL     1      -1.762   2.543   0.701  0.00  0.00    +0.188 A 
ATOM     24  N   UNL     1      -2.062   1.290   0.996  0.00  0.00    -0.126 NA
ATOM     25  N   UNL     1      -3.244   0.931   1.259  0.00  0.00    -0.145 NA
ATOM     26  C   UNL     1      -4.232   1.804   1.237  0.00  0.00    +0.103 A 
ATOM     27  S   UNL     1      -3.332   3.286   0.796  0.00  0.00    -0.035 S 
ATOM     28  H   UNL     1      -0.469   4.057   0.191  0.00  0.00    +0.157 HD
BRANCH  26  29
ATOM     29  C   UNL     1      -5.701   1.608   1.507  0.00  0.00    +0.061 C 
ATOM     30  C   UNL     1      -5.980   1.825   2.995  0.00  0.00    +0.011 C 
ENDBRANCH  26  29
ENDBRANCH  19  20
ENDBRANCH  18  19
ENDBRANCH  17  18
ENDBRANCH   5  17
TORSDOF 7
