REMARK  Name = ZINC65251061
REMARK  5 active torsions:
REMARK  status: ('A' for Active; 'I' for Inactive)
REMARK    1  A    between atoms: C_1  and  C_2
REMARK    2  A    between atoms: C_4  and  C_7
REMARK    3  A    between atoms: C_15  and  C_18
REMARK    4  A    between atoms: N_20  and  C_21
REMARK    5  A    between atoms: C_21  and  C_22
REMARK                            x       y       z     vdW  Elec       q    Type
REMARK                         _______ _______ _______ _____ _____    ______ ____
ROOT
ATOM      1  C   UNL     1       0.038  -3.191  -1.673  0.00  0.00    +0.058 A 
ATOM      2  C   UNL     1       0.053  -4.503  -1.178  0.00  0.00    +0.018 A 
ATOM      3  C   UNL     1       0.063  -5.545  -2.084  0.00  0.00    +0.047 A 
ATOM      4  C   UNL     1       0.058  -5.262  -3.446  0.00  0.00    +0.139 A 
ATOM      5  N   UNL     1       0.044  -4.012  -3.881  0.00  0.00    -0.237 NA
ATOM      6  C   UNL     1       0.028  -2.989  -3.053  0.00  0.00    +0.126 A 
ATOM      7  N   UNL     1       0.069  -6.311  -4.367  0.00  0.00    -0.290 N 
ATOM      8  C   UNL     1       0.167  -6.194  -5.721  0.00  0.00    +0.127 A 
ATOM      9  C   UNL     1       0.139  -7.460  -6.228  0.00  0.00    +0.143 A 
ATOM     10  N   UNL     1       0.025  -8.320  -5.183  0.00  0.00    -0.231 NA
ATOM     11  C   UNL     1      -0.012  -7.640  -4.075  0.00  0.00    +0.206 A 
ENDROOT
BRANCH   1  15
ATOM     12  C   UNL     1      -0.018   1.503   0.010  0.00  0.00    +0.091 C 
ATOM     13  C   UNL     1       0.002  -0.004   0.002  0.00  0.00    +0.169 A 
ATOM     14  N   UNL     1       0.007  -0.772  -1.090  0.00  0.00    -0.192 NA
ATOM     15  C   UNL     1       0.027  -2.041  -0.746  0.00  0.00    +0.260 A 
ATOM     16  O   UNL     1       0.034  -2.107   0.597  0.00  0.00    -0.333 OA
ATOM     17  N   UNL     1       0.023  -0.765   1.059  0.00  0.00    -0.061 NA
ENDBRANCH   1  15
BRANCH   9  18
ATOM     18  C   UNL     1       0.217  -7.827  -7.652  0.00  0.00    +0.264 C 
ATOM     19  O   UNL     1       0.318  -6.961  -8.500  0.00  0.00    -0.268 OA
ATOM     20  N   UNL     1       0.178  -9.124  -8.017  0.00  0.00    -0.306 N 
ATOM     21  H   UNL     1       0.098  -9.816  -7.341  0.00  0.00    +0.149 HD
BRANCH  20  22
ATOM     22  C   UNL     1       0.257  -9.490  -9.433  0.00  0.00    +0.140 C 
BRANCH  22  23
ATOM     23  C   UNL     1       0.192 -10.990  -9.569  0.00  0.00    -0.029 A 
ATOM     24  C   UNL     1       1.355 -11.737  -9.545  0.00  0.00    +0.005 A 
ATOM     25  C   UNL     1       1.296 -13.112  -9.669  0.00  0.00    +0.001 A 
ATOM     26  C   UNL     1       0.075 -13.741  -9.819  0.00  0.00    +0.015 A 
ATOM     27  C   UNL     1      -1.089 -12.994  -9.843  0.00  0.00    +0.018 A 
ATOM     28  C   UNL     1      -1.030 -11.618  -9.713  0.00  0.00    +0.020 A 
ATOM     29 BR   UNL     1      -2.761 -13.854 -10.048  0.00  0.00    -0.050 Br
ENDBRANCH  22  23
ENDBRANCH  20  22
ENDBRANCH   9  18
TORSDOF 4
