REMARK  Name = ZINC03438914
REMARK  11 active torsions:
REMARK  status: ('A' for Active; 'I' for Inactive)
REMARK    1  A    between atoms: C_1  and  C_2
REMARK    2  A    between atoms: C_5  and  O_30
REMARK    3  A    between atoms: C_6  and  N_8
REMARK    4  A    between atoms: C_9  and  C_11
REMARK    5  A    between atoms: C_11  and  C_13
REMARK    6  A    between atoms: C_11  and  N_55
REMARK    7  A    between atoms: C_19  and  C_20
REMARK    8  A    between atoms: C_19  and  N_55
REMARK    9  A    between atoms: C_23  and  S_26
REMARK   10  A    between atoms: S_26  and  N_29
REMARK   11  A    between atoms: O_30  and  C_31
REMARK                            x       y       z     vdW  Elec       q    Type
REMARK                         _______ _______ _______ _____ _____    ______ ____
ROOT
ATOM      1  C   UNL     1      -1.429   3.425  -0.097  0.00  0.00    +0.048 C 
ENDROOT
BRANCH   1   2
ATOM      2  C   UNL     1      -0.730   4.104   1.053  0.00  0.00    -0.053 A 
ATOM      3  C   UNL     1      -1.340   4.168   2.292  0.00  0.00    +0.002 A 
ATOM      4  C   UNL     1      -0.697   4.786   3.348  0.00  0.00    +0.000 A 
ATOM      5  C   UNL     1       0.552   5.349   3.163  0.00  0.00    +0.000 A 
ATOM      6  C   UNL     1       1.160   5.289   1.923  0.00  0.00    +0.000 A 
ATOM      7  C   UNL     1       0.519   4.667   0.868  0.00  0.00    +0.002 A 
ENDBRANCH   1   2
BRANCH   1   9
ATOM      8  N   UNL     1      -0.017   1.397   0.010  0.00  0.00    -0.284 N 
ATOM      9  C   UNL     1      -1.254   1.933   0.018  0.00  0.00    +0.208 C 
ATOM     10  O   UNL     1      -2.225   1.214   0.119  0.00  0.00    -0.277 OA
ATOM     11  H   UNL     1       0.762   1.975  -0.010  0.00  0.00    +0.155 HD
BRANCH   8  17
ATOM     12  C   UNL     1      -1.568  -3.028   1.489  0.00  0.00    +0.044 C 
ATOM     13  C   UNL     1      -0.593  -2.164   0.732  0.00  0.00    -0.048 A 
ATOM     14  C   UNL     1       0.459  -2.747   0.050  0.00  0.00    +0.007 A 
ATOM     15  C   UNL     1       1.357  -1.959  -0.647  0.00  0.00    +0.048 A 
ATOM     16  C   UNL     1       1.204  -0.583  -0.663  0.00  0.00    +0.141 A 
ATOM     17  C   UNL     1       0.143   0.005   0.023  0.00  0.00    +0.076 A 
ATOM     18  C   UNL     1      -0.750  -0.791   0.725  0.00  0.00    +0.030 A 
BRANCH  16  19
ATOM     19  O   UNL     1       2.086   0.193  -1.348  0.00  0.00    -0.493 OA
ATOM     20  C   UNL     1       3.148  -0.478  -2.028  0.00  0.00    +0.277 C 
ENDBRANCH  16  19
ENDBRANCH   8  17
ENDBRANCH   1   9
BRANCH   1  21
ATOM     21  N   UNL     1      -2.867   3.748  -0.059  0.00  0.00    +0.392 N 
ATOM     22  H   UNL     1      -3.173   3.817   0.919  0.00  0.00    -0.084 HD
ATOM     23  H   UNL     1      -3.394   3.004  -0.531  0.00  0.00    -0.084 HD
BRANCH  21  24
ATOM     24  C   UNL     1      -3.122   5.032  -0.739  0.00  0.00    -0.045 C 
BRANCH  24  25
ATOM     25  C   UNL     1      -4.597   5.336  -0.684  0.00  0.00    -0.064 A 
ATOM     26  C   UNL     1      -5.431   4.899  -1.697  0.00  0.00    +0.003 A 
ATOM     27  C   UNL     1      -6.785   5.174  -1.644  0.00  0.00    +0.029 A 
ATOM     28  C   UNL     1      -7.303   5.893  -0.584  0.00  0.00    +0.105 A 
ATOM     29  C   UNL     1      -6.469   6.334   0.426  0.00  0.00    +0.029 A 
ATOM     30  C   UNL     1      -5.116   6.055   0.376  0.00  0.00    +0.003 A 
BRANCH  28  31
ATOM     31  S   UNL     1      -9.028   6.247  -0.519  0.00  0.00    +0.056 S 
ATOM     32  O   UNL     1      -9.676   5.256  -1.305  0.00  0.00    -0.153 OA
ATOM     33  O   UNL     1      -9.348   6.462   0.849  0.00  0.00    -0.153 OA
BRANCH  31  34
ATOM     34  N   UNL     1      -9.261   7.692  -1.292  0.00  0.00    -0.204 NA
ATOM     35  H   UNL     1      -8.505   8.166  -1.673  0.00  0.00    +0.144 HD
ATOM     36  H   UNL     1     -10.153   8.066  -1.365  0.00  0.00    +0.144 HD
ENDBRANCH  31  34
ENDBRANCH  28  31
ENDBRANCH  24  25
ENDBRANCH  21  24
ENDBRANCH   1  21
TORSDOF 9
