REMARK  Name = ZINC63746595
REMARK  7 active torsions:
REMARK  status: ('A' for Active; 'I' for Inactive)
REMARK    1  A    between atoms: C_1  and  C_2
REMARK    2  A    between atoms: C_5  and  C_37
REMARK    3  A    between atoms: C_6  and  N_8
REMARK    4  A    between atoms: N_11  and  C_12
REMARK    5  A    between atoms: C_14  and  C_36
REMARK    6  A    between atoms: C_17  and  C_30
REMARK    7  A    between atoms: C_18  and  C_22
REMARK                            x       y       z     vdW  Elec       q    Type
REMARK                         _______ _______ _______ _____ _____    ______ ____
ROOT
ATOM      1  C   UNL     1       0.528  -2.743   5.511  0.00  0.00    +0.059 A 
ATOM      2  C   UNL     1       0.532  -1.409   5.250  0.00  0.00    +0.028 A 
ATOM      3  C   UNL     1       0.413  -0.458   6.269  0.00  0.00    -0.048 A 
ATOM      4  C   UNL     1       0.289  -0.802   7.571  0.00  0.00    +0.013 A 
ATOM      5  C   UNL     1       0.274  -2.166   7.953  0.00  0.00    +0.006 A 
ATOM      6  C   UNL     1       0.162  -2.795   9.180  0.00  0.00    -0.000 C 
ATOM      7  C   UNL     1       0.216  -4.278   8.887  0.00  0.00    +0.198 C 
ATOM      8  N   UNL     1       0.364  -4.397   7.433  0.00  0.00    -0.368 N 
ATOM      9  C   UNL     1       0.390  -3.198   6.904  0.00  0.00    +0.065 A 
ATOM     10  C   UNL     1       0.426   1.004   5.902  0.00  0.00    +0.044 C 
ATOM     11  H   UNL     1       0.427  -5.231   6.941  0.00  0.00    +0.161 HD
ENDROOT
BRANCH   7  12
ATOM     12  C   UNL     1      -1.059  -4.944   9.338  0.00  0.00    +0.243 C 
ATOM     13  O   UNL     1      -1.986  -5.062   8.565  0.00  0.00    -0.273 OA
ATOM     14  N   UNL     1      -1.168  -5.406  10.598  0.00  0.00    -0.295 N 
ATOM     15  C   UNL     1      -0.107  -5.164  11.589  0.00  0.00    +0.136 C 
ATOM     16  C   UNL     1      -0.751  -4.591  12.857  0.00  0.00    +0.179 C 
ATOM     17  O   UNL     1      -1.821  -5.444  13.268  0.00  0.00    -0.377 OA
ATOM     18  C   UNL     1      -2.887  -5.546  12.320  0.00  0.00    +0.179 C 
ATOM     19  C   UNL     1      -2.355  -6.164  11.027  0.00  0.00    +0.136 C 
ENDBRANCH   7  12
BRANCH   1  23
ATOM     20  N   UNL     1       0.134  -4.338   2.294  0.00  0.00    -0.269 N 
ATOM     21  C   UNL     1       0.100  -3.407   3.268  0.00  0.00    +0.308 C 
ATOM     22  O   UNL     1      -0.425  -2.330   3.061  0.00  0.00    -0.252 OA
ATOM     23  N   UNL     1       0.647  -3.670   4.471  0.00  0.00    -0.267 N 
ATOM     24  H   UNL     1       0.482  -5.223   2.482  0.00  0.00    +0.156 HD
ATOM     25  H   UNL     1       1.124  -4.502   4.615  0.00  0.00    +0.156 HD
BRANCH  20  31
ATOM     26  C   UNL     1      -0.857  -0.969  -1.147  0.00  0.00    +0.044 C 
ATOM     27  C   UNL     1      -0.824  -2.402  -0.681  0.00  0.00    -0.049 A 
ATOM     28  C   UNL     1      -1.257  -3.411  -1.522  0.00  0.00    +0.004 A 
ATOM     29  C   UNL     1      -1.229  -4.727  -1.099  0.00  0.00    +0.005 A 
ATOM     30  C   UNL     1      -0.768  -5.037   0.166  0.00  0.00    -0.029 A 
ATOM     31  C   UNL     1      -0.333  -4.026   1.012  0.00  0.00    +0.038 A 
ATOM     32  C   UNL     1      -0.358  -2.706   0.582  0.00  0.00    +0.027 A 
ATOM     33  C   UNL     1      -0.738  -6.472   0.626  0.00  0.00    +0.045 C 
ENDBRANCH  20  31
ENDBRANCH   1  23
BRANCH   6  34
ATOM     34  C   UNL     1       0.020  -2.157  10.491  0.00  0.00    -0.019 A 
ATOM     35  C   UNL     1       1.063  -2.226  11.426  0.00  0.00    +0.008 A 
ATOM     36  C   UNL     1       0.921  -1.623  12.656  0.00  0.00    +0.001 A 
ATOM     37  C   UNL     1      -0.247  -0.949  12.971  0.00  0.00    +0.000 A 
ATOM     38  C   UNL     1      -1.283  -0.875  12.055  0.00  0.00    +0.001 A 
ATOM     39  C   UNL     1      -1.157  -1.468  10.817  0.00  0.00    +0.008 A 
ENDBRANCH   6  34
TORSDOF 4
