REMARK  Name = ZINC58364148
REMARK  3 active torsions:
REMARK  status: ('A' for Active; 'I' for Inactive)
REMARK    1  A    between atoms: C_1  and  C_2
REMARK    2  A    between atoms: C_2  and  C_12
REMARK    3  A    between atoms: C_3  and  C_4
REMARK                            x       y       z     vdW  Elec       q    Type
REMARK                         _______ _______ _______ _____ _____    ______ ____
ROOT
ATOM      1  C   UNL     1      -2.352  -0.690  -1.739  0.00  0.00    +0.040 C 
ATOM      2  C   UNL     1      -1.837   0.684  -2.084  0.00  0.00    -0.062 C 
ATOM      3  C   UNL     1      -0.638   1.071  -1.655  0.00  0.00    +0.067 C 
ENDROOT
BRANCH   2   4
ATOM      4  C   UNL     1      -2.678   1.618  -2.915  0.00  0.00    -0.007 C 
ATOM      5  C   UNL     1      -2.185   3.054  -2.724  0.00  0.00    +0.014 C 
ATOM      6  C   UNL     1      -3.039   4.002  -3.568  0.00  0.00    -0.010 C 
ATOM      7  C   UNL     1      -2.925   3.615  -5.044  0.00  0.00    +0.007 C 
ATOM      8  C   UNL     1      -3.418   2.180  -5.234  0.00  0.00    -0.010 C 
ATOM      9  C   UNL     1      -2.564   1.231  -4.391  0.00  0.00    +0.014 C 
ATOM     10  C   UNL     1      -4.880   2.079  -4.792  0.00  0.00    +0.007 C 
ATOM     11  C   UNL     1      -4.994   2.466  -3.316  0.00  0.00    -0.010 C 
ATOM     12  C   UNL     1      -4.501   3.902  -3.126  0.00  0.00    +0.007 C 
ATOM     13  C   UNL     1      -4.139   1.518  -2.473  0.00  0.00    +0.014 C 
ENDBRANCH   2   4
BRANCH   3  14
ATOM     14  C   UNL     1       0.196   1.944  -2.495  0.00  0.00    +0.243 C 
ATOM     15  O   UNL     1      -0.037   2.048  -3.684  0.00  0.00    -0.270 OA
ATOM     16  N   UNL     1       1.219   2.628  -1.946  0.00  0.00    -0.260 N 
ATOM     17  C   UNL     1       2.008   3.453  -2.740  0.00  0.00    +0.188 A 
ATOM     18  N   UNL     1       1.931   3.716  -4.037  0.00  0.00    -0.126 NA
ATOM     19  N   UNL     1       2.739   4.501  -4.606  0.00  0.00    -0.148 NA
ATOM     20  C   UNL     1       3.708   5.107  -3.949  0.00  0.00    +0.183 A 
ATOM     21  S   UNL     1       3.414   4.471  -2.301  0.00  0.00    -0.039 S 
ATOM     22  H   UNL     1       1.405   2.545  -0.998  0.00  0.00    +0.157 HD
ENDBRANCH   3  14
TORSDOF 2
