REMARK  Name = ZINC49596371
REMARK  6 active torsions:
REMARK  status: ('A' for Active; 'I' for Inactive)
REMARK    1  A    between atoms: C_6  and  O_7
REMARK    2  A    between atoms: O_7  and  C_8
REMARK    3  A    between atoms: C_8  and  C_9
REMARK    4  A    between atoms: C_9  and  O_10
REMARK    5  A    between atoms: O_10  and  C_11
REMARK    6  A    between atoms: C_14  and  C_18
REMARK                            x       y       z     vdW  Elec       q    Type
REMARK                         _______ _______ _______ _____ _____    ______ ____
ROOT
ATOM      1  C   UNL     1      -4.417  -2.853  -1.352  0.00  0.00    +0.139 A 
ATOM      2  C   UNL     1      -5.001  -3.615  -0.348  0.00  0.00    +0.048 A 
ATOM      3  C   UNL     1      -6.287  -4.087  -0.497  0.00  0.00    +0.015 A 
ATOM      4  C   UNL     1      -7.005  -3.796  -1.660  0.00  0.00    +0.014 A 
ATOM      5  C   UNL     1      -6.415  -3.029  -2.667  0.00  0.00    +0.035 A 
ATOM      6  C   UNL     1      -5.130  -2.557  -2.508  0.00  0.00    +0.083 A 
ATOM      7 CL   UNL     1      -4.398  -1.598  -3.757  0.00  0.00    -0.080 Cl
ENDROOT
BRANCH   4   8
ATOM      8  C   UNL     1      -8.384  -4.300  -1.823  0.00  0.00    +0.094 C 
ATOM      9  N   UNL     1      -9.067  -4.022  -2.933  0.00  0.00    -0.387 N 
ATOM     10  N   UNL     1      -8.944  -5.033  -0.862  0.00  0.00    -0.345 N 
ATOM     11  H   UNL     1      -8.659  -3.489  -3.633  0.00  0.00    +0.157 HD
ATOM     12  H   UNL     1      -8.447  -5.235  -0.054  0.00  0.00    +0.144 HD
ATOM     13  H   UNL     1      -9.850  -5.364  -0.969  0.00  0.00    +0.144 HD
ATOM     14  H   UNL     1      -9.973  -4.353  -3.041  0.00  0.00    +0.157 HD
ENDBRANCH   4   8
BRANCH   1  15
ATOM     15  O   UNL     1      -3.150  -2.390  -1.201  0.00  0.00    -0.487 OA
BRANCH  15  16
ATOM     16  C   UNL     1      -2.475  -2.731   0.012  0.00  0.00    +0.270 C 
BRANCH  16  17
ATOM     17  C   UNL     1      -1.070  -2.126   0.001  0.00  0.00    +0.270 C 
BRANCH  17  18
ATOM     18  O   UNL     1      -1.165  -0.701   0.010  0.00  0.00    -0.489 OA
BRANCH  18  24
ATOM     19  C   UNL     1      -0.017   1.383   0.010  0.00  0.00    +0.047 A 
ATOM     20  C   UNL     1       1.171   2.089   0.002  0.00  0.00    +0.019 A 
ATOM     21  C   UNL     1       2.378   1.414  -0.013  0.00  0.00    +0.018 A 
ATOM     22  C   UNL     1       2.399   0.030  -0.022  0.00  0.00    +0.019 A 
ATOM     23  C   UNL     1       1.214  -0.679  -0.014  0.00  0.00    +0.047 A 
ATOM     24  C   UNL     1       0.002  -0.004   0.002  0.00  0.00    +0.121 A 
ATOM     25 BR   UNL     1       4.002   2.383  -0.024  0.00  0.00    -0.050 Br
ENDBRANCH  18  24
ENDBRANCH  17  18
ENDBRANCH  16  17
ENDBRANCH  15  16
ENDBRANCH   1  15
TORSDOF 6
