REMARK  Name = ZINC04608153
REMARK  22 active torsions:
REMARK  status: ('A' for Active; 'I' for Inactive)
REMARK    1  A    between atoms: C_1  and  C_2
REMARK    2  A    between atoms: C_2  and  C_3
REMARK    3  A    between atoms: C_3  and  C_4
REMARK    4  A    between atoms: C_4  and  C_5
REMARK    5  A    between atoms: C_5  and  C_7
REMARK    6  A    between atoms: C_5  and  C_9
REMARK    7  A    between atoms: C_7  and  C_8
REMARK    8  A    between atoms: N_11  and  C_12
REMARK    9  A    between atoms: N_11  and  C_18
REMARK   10  A    between atoms: C_12  and  C_13
REMARK   11  A    between atoms: C_13  and  C_14
REMARK   12  A    between atoms: C_14  and  O_15
REMARK   13  A    between atoms: O_15  and  C_16
REMARK   14  A    between atoms: C_16  and  C_17
REMARK   15  A    between atoms: C_18  and  C_19
REMARK   16  A    between atoms: C_21  and  C_24
REMARK   17  A    between atoms: N_26  and  C_27
REMARK   18  A    between atoms: C_27  and  C_28
REMARK   19  A    between atoms: C_28  and  C_29
REMARK   20  A    between atoms: C_29  and  O_30
REMARK   21  A    between atoms: O_30  and  C_31
REMARK   22  A    between atoms: C_31  and  C_32
REMARK                            x       y       z     vdW  Elec       q    Type
REMARK                         _______ _______ _______ _____ _____    ______ ____
ROOT
ATOM      1  C   UNL     1       4.542   1.908   1.807  0.00  0.00    +0.219 C 
ATOM      2  O   UNL     1       4.365   2.983   1.274  0.00  0.00    -0.275 OA
ATOM      3  N   UNL     1       4.112   0.780   1.209  0.00  0.00    -0.292 N 
ENDROOT
BRANCH   3   4
ATOM      4  C   UNL     1       3.529   0.839  -0.134  0.00  0.00    +0.203 C 
BRANCH   4   5
ATOM      5  C   UNL     1       2.041   1.049  -0.027  0.00  0.00    +0.213 A 
ATOM      6  N   UNL     1       1.445   2.204   0.008  0.00  0.00    -0.207 NA
ATOM      7  C   UNL     1       0.104   1.994   0.106  0.00  0.00    +0.164 A 
ATOM      8  C   UNL     1      -0.089   0.647   0.129  0.00  0.00    +0.230 A 
ATOM      9  O   UNL     1       1.123   0.075   0.045  0.00  0.00    -0.445 OA
BRANCH   7  10
ATOM     10  C   UNL     1      -0.942   3.030   0.170  0.00  0.00    +0.266 C 
ATOM     11  O   UNL     1      -2.112   2.708   0.252  0.00  0.00    -0.268 OA
ATOM     12  N   UNL     1      -0.602   4.334   0.137  0.00  0.00    -0.310 N 
ATOM     13  H   UNL     1       0.331   4.590   0.072  0.00  0.00    +0.149 HD
BRANCH  12  14
ATOM     14  C   UNL     1      -1.642   5.364   0.200  0.00  0.00    +0.107 C 
BRANCH  14  15
ATOM     15  C   UNL     1      -0.993   6.748   0.145  0.00  0.00    +0.047 C 
BRANCH  15  16
ATOM     16  C   UNL     1      -2.079   7.824   0.211  0.00  0.00    +0.161 C 
BRANCH  16  17
ATOM     17  O   UNL     1      -1.472   9.117   0.160  0.00  0.00    -0.380 OA
BRANCH  17  18
ATOM     18  C   UNL     1      -2.405  10.198   0.216  0.00  0.00    +0.156 C 
ATOM     19  C   UNL     1      -1.648  11.527   0.154  0.00  0.00    +0.034 C 
ENDBRANCH  17  18
ENDBRANCH  16  17
ENDBRANCH  15  16
ENDBRANCH  14  15
ENDBRANCH  12  14
ENDBRANCH   7  10
ENDBRANCH   4   5
ENDBRANCH   3   4
BRANCH   3  20
ATOM     20  C   UNL     1       4.227  -0.506   1.901  0.00  0.00    +0.110 C 
BRANCH  20  21
ATOM     21  C   UNL     1       5.615  -1.099   1.649  0.00  0.00    +0.047 C 
BRANCH  21  22
ATOM     22  C   UNL     1       5.735  -2.442   2.372  0.00  0.00    +0.161 C 
BRANCH  22  23
ATOM     23  O   UNL     1       7.031  -2.995   2.136  0.00  0.00    -0.380 OA
BRANCH  23  24
ATOM     24  C   UNL     1       7.249  -4.257   2.771  0.00  0.00    +0.156 C 
ATOM     25  C   UNL     1       8.661  -4.752   2.451  0.00  0.00    +0.034 C 
ENDBRANCH  23  24
ENDBRANCH  22  23
ENDBRANCH  21  22
ENDBRANCH  20  21
ENDBRANCH   3  20
BRANCH   1  26
ATOM     26  C   UNL     1       5.243   1.835   3.139  0.00  0.00    +0.075 C 
BRANCH  26  27
ATOM     27  C   UNL     1       4.397   2.542   4.200  0.00  0.00    +0.009 C 
ATOM     28  C   UNL     1       3.078   1.789   4.385  0.00  0.00    +0.004 C 
ENDBRANCH  26  27
BRANCH  26  29
ATOM     29  C   UNL     1       6.607   2.519   3.035  0.00  0.00    +0.013 C 
BRANCH  29  30
ATOM     30  C   UNL     1       7.371   2.337   4.349  0.00  0.00    +0.000 C 
BRANCH  30  32
ATOM     31  C   UNL     1       9.498   2.839   5.559  0.00  0.00    +0.004 C 
ATOM     32  C   UNL     1       8.735   3.021   4.246  0.00  0.00    -0.003 C 
ENDBRANCH  30  32
ENDBRANCH  29  30
ENDBRANCH  26  29
ENDBRANCH   1  26
TORSDOF 18
