REMARK  Name = ZINC00068360
REMARK  4 active torsions:
REMARK  status: ('A' for Active; 'I' for Inactive)
REMARK    1  A    between atoms: C_1  and  C_2
REMARK    2  A    between atoms: C_9  and  C_12
REMARK    3  A    between atoms: C_17  and  C_21
REMARK    4  A    between atoms: C_18  and  C_20
REMARK                            x       y       z     vdW  Elec       q    Type
REMARK                         _______ _______ _______ _____ _____    ______ ____
ROOT
ATOM      1  C   UNL     1       7.777  -8.140  -0.121  0.00  0.00    +0.044 C 
ATOM      2  C   UNL     1       7.325  -6.703  -0.108  0.00  0.00    -0.049 A 
ATOM      3  C   UNL     1       8.260  -5.675  -0.110  0.00  0.00    +0.004 A 
ATOM      4  C   UNL     1       7.884  -4.370  -0.099  0.00  0.00    +0.011 A 
ATOM      5  C   UNL     1       6.511  -4.011  -0.084  0.00  0.00    +0.008 A 
ATOM      6  C   UNL     1       5.582  -5.077  -0.082  0.00  0.00    +0.022 A 
ATOM      7  C   UNL     1       5.979  -6.397  -0.094  0.00  0.00    +0.019 A 
ATOM      8  S   UNL     1       4.009  -4.255  -0.062  0.00  0.00    -0.082 S 
ATOM      9  C   UNL     1       4.596  -2.571  -0.057  0.00  0.00    +0.094 A 
ATOM     10  C   UNL     1       5.949  -2.720  -0.076  0.00  0.00    +0.068 A 
ATOM     11 CL   UNL     1       6.979  -1.323  -0.085  0.00  0.00    -0.082 Cl
ENDROOT
BRANCH   9  12
ATOM     12  C   UNL     1       3.814  -1.329  -0.042  0.00  0.00    +0.258 C 
ATOM     13  O   UNL     1       4.381  -0.252  -0.041  0.00  0.00    -0.269 OA
ATOM     14  N   UNL     1       2.467  -1.381  -0.030  0.00  0.00    -0.260 N 
ATOM     15  C   UNL     1       1.727  -0.207  -0.015  0.00  0.00    +0.165 A 
ATOM     16  N   UNL     1       2.153   1.042  -0.013  0.00  0.00    -0.230 NA
ATOM     17  C   UNL     1       1.306   2.053   0.001  0.00  0.00    +0.050 A 
ATOM     18  C   UNL     1      -0.022   1.783   0.012  0.00  0.00    +0.011 A 
ATOM     19  S   UNL     1       0.002  -0.004   0.002  0.00  0.00    -0.057 S 
ATOM     20  C   UNL     1      -1.196   2.728   0.023  0.00  0.00    +0.053 C 
ATOM     21  C   UNL     1       1.804   3.475   0.003  0.00  0.00    +0.066 C 
ATOM     22  H   UNL     1       2.015  -2.240  -0.030  0.00  0.00    +0.157 HD
ENDBRANCH   9  12
TORSDOF 1
