REMARK  Name = ZINC12436943
REMARK  2 active torsions:
REMARK  status: ('A' for Active; 'I' for Inactive)
REMARK    1  A    between atoms: C_13  and  O_23
REMARK    2  A    between atoms: C_20  and  O_22
REMARK                            x       y       z     vdW  Elec       q    Type
REMARK                         _______ _______ _______ _____ _____    ______ ____
ROOT
ATOM      1  C   UNL     1      -2.188   1.064  -1.220  0.00  0.00    +0.000 C 
ATOM      2  C   UNL     1      -0.752   1.592  -1.232  0.00  0.00    +0.003 C 
ATOM      3  C   UNL     1      -0.013   1.086   0.008  0.00  0.00    +0.035 C 
ATOM      4  C   UNL     1      -0.728   1.579   1.267  0.00  0.00    +0.078 C 
ATOM      5  C   UNL     1      -2.165   1.054   1.278  0.00  0.00    +0.035 C 
ATOM      6  C   UNL     1      -2.904   1.561   0.038  0.00  0.00    +0.003 C 
ATOM      7  C   UNL     1       0.010   1.071   2.506  0.00  0.00    +0.053 C 
ATOM      8  C   UNL     1       0.091  -0.456   2.483  0.00  0.00    +0.009 C 
ATOM      9  C   UNL     1       0.822  -0.941   3.737  0.00  0.00    +0.001 C 
ATOM     10  C   UNL     1       2.233  -0.350   3.772  0.00  0.00    +0.003 C 
ATOM     11  C   UNL     1       2.153   1.178   3.780  0.00  0.00    +0.035 C 
ATOM     12  C   UNL     1       1.430   1.649   2.518  0.00  0.00    +0.079 C 
ATOM     13  C   UNL     1       1.337   3.175   2.500  0.00  0.00    +0.080 C 
ATOM     14  C   UNL     1       2.738   3.785   2.453  0.00  0.00    +0.011 C 
ATOM     15  C   UNL     1       2.624   5.311   2.434  0.00  0.00    +0.001 C 
ATOM     16  C   UNL     1       1.830   5.753   1.204  0.00  0.00    +0.005 C 
ATOM     17  C   UNL     1       0.432   5.132   1.243  0.00  0.00    +0.065 C 
ATOM     18  C   UNL     1       0.552   3.608   1.258  0.00  0.00    +0.173 C 
ATOM     19  O   UNL     1      -0.744   3.009   1.277  0.00  0.00    -0.342 OA
ENDROOT
BRANCH  18  20
ATOM     20  O   UNL     1       1.247   3.180   0.085  0.00  0.00    -0.364 OA
ATOM     21  H   UNL     1       0.807   3.420  -0.742  0.00  0.00    +0.213 HD
ENDBRANCH  18  20
BRANCH  12  22
ATOM     22  O   UNL     1       2.139   1.197   1.363  0.00  0.00    -0.388 OA
ATOM     23  H   UNL     1       3.047   1.525   1.306  0.00  0.00    +0.210 HD
ENDBRANCH  12  22
TORSDOF 2
