REMARK  Name = ZINC12994275
REMARK  5 active torsions:
REMARK  status: ('A' for Active; 'I' for Inactive)
REMARK    1  A    between atoms: C_1  and  C_2
REMARK    2  A    between atoms: C_2  and  C_4
REMARK    3  A    between atoms: C_2  and  N_14
REMARK    4  A    between atoms: N_20  and  S_23
REMARK    5  A    between atoms: S_23  and  C_26
REMARK                            x       y       z     vdW  Elec       q    Type
REMARK                         _______ _______ _______ _____ _____    ______ ____
ROOT
ATOM      1  N   UNL     1      -4.660  -0.136  -0.857  0.00  0.00    -0.293 N 
ATOM      2  C   UNL     1      -5.660  -0.844  -1.419  0.00  0.00    +0.303 C 
ATOM      3  O   UNL     1      -5.709  -2.050  -1.272  0.00  0.00    -0.253 OA
ATOM      4  N   UNL     1      -6.605  -0.214  -2.144  0.00  0.00    -0.283 N 
ATOM      5  C   UNL     1      -6.501   1.226  -2.421  0.00  0.00    +0.126 C 
ATOM      6  C   UNL     1      -6.568   1.434  -3.943  0.00  0.00    +0.128 C 
ATOM      7  N   UNL     1      -7.725   0.694  -4.466  0.00  0.00    -0.174 NA
ATOM      8  C   UNL     1      -7.832  -0.745  -4.185  0.00  0.00    +0.128 C 
ATOM      9  C   UNL     1      -7.762  -0.954  -2.668  0.00  0.00    +0.126 C 
ATOM     10  H   UNL     1      -4.579   0.814  -1.033  0.00  0.00    +0.151 HD
ENDROOT
BRANCH   7  11
ATOM     11  S   UNL     1      -8.887   1.468  -5.357  0.00  0.00    +0.064 S 
ATOM     12  O   UNL     1      -8.271   2.619  -5.917  0.00  0.00    -0.153 OA
ATOM     13  O   UNL     1      -9.515   0.474  -6.155  0.00  0.00    -0.153 OA
BRANCH  11  14
ATOM     14  C   UNL     1     -10.107   2.050  -4.226  0.00  0.00    +0.140 A 
ATOM     15  C   UNL     1     -10.303   3.408  -4.060  0.00  0.00    +0.031 A 
ATOM     16  C   UNL     1     -11.264   3.866  -3.178  0.00  0.00    +0.002 A 
ATOM     17  C   UNL     1     -12.022   2.966  -2.452  0.00  0.00    +0.003 A 
ATOM     18  C   UNL     1     -11.824   1.607  -2.612  0.00  0.00    +0.040 A 
ATOM     19  C   UNL     1     -10.866   1.148  -3.500  0.00  0.00    +0.150 A 
ATOM     20  F   UNL     1     -10.671  -0.179  -3.658  0.00  0.00    -0.203 F 
ENDBRANCH  11  14
ENDBRANCH   7  11
BRANCH   1  22
ATOM     21  C   UNL     1      -4.255  -0.863   1.443  0.00  0.00    +0.033 C 
ATOM     22  C   UNL     1      -3.695  -0.803   0.021  0.00  0.00    +0.102 C 
BRANCH  22  23
ATOM     23  C   UNL     1      -2.401  -0.030   0.023  0.00  0.00    -0.024 A 
ATOM     24  C   UNL     1      -2.422   1.352   0.036  0.00  0.00    +0.009 A 
ATOM     25  C   UNL     1      -1.238   2.064   0.034  0.00  0.00    +0.050 A 
ATOM     26  C   UNL     1      -0.024   1.393   0.025  0.00  0.00    +0.162 A 
ATOM     27  C   UNL     1      -0.002   0.003   0.014  0.00  0.00    +0.162 A 
ATOM     28  C   UNL     1      -1.194  -0.705   0.012  0.00  0.00    +0.055 A 
ATOM     29  O   UNL     1       1.178  -0.675   0.005  0.00  0.00    -0.485 OA
ATOM     30  C   UNL     1       2.344   0.067  -0.371  0.00  0.00    +0.270 C 
ATOM     31  C   UNL     1       2.327   1.403   0.384  0.00  0.00    +0.270 C 
ATOM     32  O   UNL     1       1.135   2.108   0.022  0.00  0.00    -0.485 OA
ENDBRANCH  22  23
ENDBRANCH   1  22
TORSDOF 4
