REMARK  Name = ZINC39785753
REMARK  4 active torsions:
REMARK  status: ('A' for Active; 'I' for Inactive)
REMARK    1  A    between atoms: C_1  and  C_2
REMARK    2  A    between atoms: C_12  and  S_14
REMARK    3  A    between atoms: S_14  and  C_15
REMARK    4  A    between atoms: C_18  and  C_20
REMARK                            x       y       z     vdW  Elec       q    Type
REMARK                         _______ _______ _______ _____ _____    ______ ____
ROOT
ATOM      1  C   UNL     1      -0.018   1.503   0.010  0.00  0.00    +0.041 C 
ATOM      2  C   UNL     1       0.002  -0.004   0.002  0.00  0.00    -0.042 C 
ATOM      3  C   UNL     1       0.006  -0.707  -1.166  0.00  0.00    -0.003 A 
ATOM      4  C   UNL     1      -0.008  -0.018  -2.457  0.00  0.00    +0.010 A 
ATOM      5  C   UNL     1      -0.003  -0.760  -3.595  0.00  0.00    +0.001 A 
ATOM      6  C   UNL     1       0.015  -2.154  -3.553  0.00  0.00    +0.002 A 
ATOM      7  C   UNL     1       0.029  -2.853  -2.388  0.00  0.00    +0.024 A 
ATOM      8  C   UNL     1       0.026  -2.180  -1.152  0.00  0.00    +0.041 A 
ATOM      9  N   UNL     1       0.041  -2.876  -0.015  0.00  0.00    -0.284 N 
ATOM     10  C   UNL     1       0.038  -2.308   1.179  0.00  0.00    +0.235 C 
ATOM     11  O   UNL     1       0.051  -2.995   2.182  0.00  0.00    -0.274 OA
ATOM     12  C   UNL     1       0.025  -0.800   1.292  0.00  0.00    +0.168 C 
ATOM     13  H   UNL     1       0.053  -3.844  -0.066  0.00  0.00    +0.155 HD
ENDROOT
BRANCH  12  14
ATOM     14  S   UNL     1       1.492  -0.294   2.232  0.00  0.00    -0.048 S 
BRANCH  14  15
ATOM     15  C   UNL     1       1.340  -1.161   3.759  0.00  0.00    +0.279 A 
ATOM     16  N   UNL     1       0.371  -1.982   4.093  0.00  0.00    -0.101 NA
ATOM     17  N   UNL     1       0.583  -2.433   5.279  0.00  0.00    -0.106 NA
ATOM     18  C   UNL     1       1.693  -1.919   5.749  0.00  0.00    +0.250 A 
ATOM     19  O   UNL     1       2.199  -1.107   4.794  0.00  0.00    -0.411 OA
BRANCH  18  20
ATOM     20  C   UNL     1       2.286  -2.184   7.076  0.00  0.00    +0.052 A 
ATOM     21  C   UNL     1       3.477  -1.559   7.450  0.00  0.00    +0.014 A 
ATOM     22  C   UNL     1       4.025  -1.810   8.690  0.00  0.00    +0.001 A 
ATOM     23  C   UNL     1       3.398  -2.680   9.565  0.00  0.00    +0.001 A 
ATOM     24  C   UNL     1       2.217  -3.303   9.202  0.00  0.00    +0.016 A 
ATOM     25  C   UNL     1       1.654  -3.056   7.966  0.00  0.00    +0.030 A 
ATOM     26 BR   UNL     1       0.036  -3.903   7.475  0.00  0.00    -0.050 Br
ENDBRANCH  18  20
ENDBRANCH  14  15
ENDBRANCH  12  14
TORSDOF 3
