REMARK  Name = ZINC33288410
REMARK  7 active torsions:
REMARK  status: ('A' for Active; 'I' for Inactive)
REMARK    1  A    between atoms: C_1  and  C_2
REMARK    2  A    between atoms: C_6  and  C_25
REMARK    3  A    between atoms: C_7  and  O_8
REMARK    4  A    between atoms: O_8  and  C_9
REMARK    5  A    between atoms: C_9  and  C_10
REMARK    6  A    between atoms: N_12  and  N_13
REMARK    7  A    between atoms: C_14  and  C_15
REMARK                            x       y       z     vdW  Elec       q    Type
REMARK                         _______ _______ _______ _____ _____    ______ ____
ROOT
ATOM      1  C   UNL     1      -4.770   1.120  -0.248  0.00  0.00    +0.270 C 
ATOM      2  O   UNL     1      -5.825   1.713  -0.327  0.00  0.00    -0.270 OA
ATOM      3  N   UNL     1      -3.626   1.804  -0.052  0.00  0.00    -0.204 N 
ATOM      4  H   UNL     1      -2.680   1.263   0.102  0.00  0.00    +0.177 HD
ENDROOT
BRANCH   3   5
ATOM      5  N   UNL     1      -3.639   3.205  -0.045  0.00  0.00    -0.188 NA
ATOM      6  C   UNL     1      -2.523   3.865   0.015  0.00  0.00    +0.139 C 
BRANCH   6   7
ATOM      7  C   UNL     1      -1.263   3.220  -0.394  0.00  0.00    +0.012 A 
ATOM      8  C   UNL     1      -1.282   2.151  -1.295  0.00  0.00    +0.060 A 
ATOM      9  C   UNL     1      -0.099   1.549  -1.676  0.00  0.00    +0.167 A 
ATOM     10  C   UNL     1       1.114   2.007  -1.161  0.00  0.00    +0.167 A 
ATOM     11  C   UNL     1       1.134   3.068  -0.267  0.00  0.00    +0.065 A 
ATOM     12  C   UNL     1      -0.044   3.670   0.122  0.00  0.00    +0.030 A 
ATOM     13 BR   UNL     1      -0.011   5.110   1.347  0.00  0.00    -0.050 Br
ATOM     14  O   UNL     1       2.123   1.253  -1.688  0.00  0.00    -0.453 OA
ATOM     15  C   UNL     1       1.555   0.601  -2.839  0.00  0.00    +0.466 C 
ATOM     16  O   UNL     1       0.153   0.509  -2.524  0.00  0.00    -0.453 OA
ENDBRANCH   6   7
ENDBRANCH   3   5
BRANCH   1  17
ATOM     17  C   UNL     1      -4.739  -0.382  -0.368  0.00  0.00    +0.326 C 
BRANCH  17  18
ATOM     18  O   UNL     1      -6.066  -0.871  -0.570  0.00  0.00    -0.482 OA
BRANCH  18  25
ATOM     19  C   UNL     1      -5.920  -1.952  -3.175  0.00  0.00    +0.047 C 
ATOM     20  C   UNL     1      -6.153  -2.804  -1.954  0.00  0.00    -0.007 A 
ATOM     21  C   UNL     1      -6.299  -4.172  -2.083  0.00  0.00    +0.022 A 
ATOM     22  C   UNL     1      -6.519  -4.953  -0.963  0.00  0.00    +0.019 A 
ATOM     23  C   UNL     1      -6.587  -4.368   0.289  0.00  0.00    +0.022 A 
ATOM     24  C   UNL     1      -6.436  -3.002   0.423  0.00  0.00    -0.007 A 
ATOM     25  C   UNL     1      -6.215  -2.216  -0.699  0.00  0.00    +0.127 A 
ATOM     26  C   UNL     1      -6.510  -2.365   1.786  0.00  0.00    +0.047 C 
ATOM     27 BR   UNL     1      -6.726  -6.824  -1.143  0.00  0.00    -0.050 Br
ENDBRANCH  18  25
ENDBRANCH  17  18
ENDBRANCH   1  17
TORSDOF 5
