REMARK  Name = ZINC03840667
REMARK  8 active torsions:
REMARK  status: ('A' for Active; 'I' for Inactive)
REMARK    1  A    between atoms: C_1  and  C_2
REMARK    2  A    between atoms: C_7  and  C_9
REMARK    3  A    between atoms: C_15  and  C_36
REMARK    4  A    between atoms: C_18  and  O_35
REMARK    5  A    between atoms: C_20  and  C_24
REMARK    6  A    between atoms: C_24  and  C_26
REMARK    7  A    between atoms: C_24  and  C_27
REMARK    8  A    between atoms: C_34  and  N_67
REMARK                            x       y       z     vdW  Elec       q    Type
REMARK                         _______ _______ _______ _____ _____    ______ ____
ROOT
ATOM      1  C   UNL     1       1.701   8.022   1.395  0.00  0.00    +0.014 C 
ATOM      2  C   UNL     1       2.714   7.676   0.301  0.00  0.00    +0.042 C 
ATOM      3  C   UNL     1       2.557   6.213  -0.092  0.00  0.00    +0.055 A 
ATOM      4  C   UNL     1       3.662   5.453  -0.322  0.00  0.00    +0.014 A 
ATOM      5  S   UNL     1       2.971   3.872  -0.737  0.00  0.00    -0.072 S 
ATOM      6  C   UNL     1       1.254   4.351  -0.577  0.00  0.00    +0.109 A 
ATOM      7  N   UNL     1       1.375   5.621  -0.229  0.00  0.00    -0.243 NA
ATOM      8  C   UNL     1       5.088   5.867  -0.234  0.00  0.00    +0.051 C 
ATOM      9  C   UNL     1       5.165   7.405  -0.183  0.00  0.00    -0.022 C 
ATOM     10  C   UNL     1       4.135   7.920   0.825  0.00  0.00    +0.033 C 
ATOM     11  C   UNL     1       4.299   9.431   1.022  0.00  0.00    +0.123 C 
ATOM     12  C   UNL     1       5.713   9.754   1.498  0.00  0.00    +0.029 C 
ATOM     13  C   UNL     1       6.711   9.286   0.434  0.00  0.00    +0.007 C 
ATOM     14  C   UNL     1       6.580   7.773   0.272  0.00  0.00    +0.008 C 
ATOM     15  C   UNL     1       4.888   8.002  -1.565  0.00  0.00    +0.012 C 
ENDROOT
BRANCH   6  16
ATOM     16  C   UNL     1       0.033   3.543  -0.775  0.00  0.00    +0.014 A 
ATOM     17  C   UNL     1       0.115   2.203  -1.147  0.00  0.00    +0.018 A 
ATOM     18  C   UNL     1      -1.025   1.498  -1.318  0.00  0.00    +0.046 A 
ATOM     19  S   UNL     1      -2.281   2.715  -0.965  0.00  0.00    -0.104 S 
ATOM     20  C   UNL     1      -1.209   4.094  -0.597  0.00  0.00    +0.055 A 
ENDBRANCH   6  16
BRANCH  12  21
ATOM     21  C   UNL     1       5.853  11.264   1.704  0.00  0.00    +0.078 C 
ATOM     22  C   UNL     1       5.712  11.976   0.357  0.00  0.00    +0.017 C 
BRANCH  21  23
ATOM     23  C   UNL     1       7.206  11.567   2.293  0.00  0.00    +0.219 C 
ATOM     24  O   UNL     1       8.132  11.860   1.567  0.00  0.00    -0.275 OA
ATOM     25  N   UNL     1       7.388  11.513   3.628  0.00  0.00    -0.305 N 
ATOM     26  C   UNL     1       6.309  11.060   4.518  0.00  0.00    +0.089 C 
ATOM     27  C   UNL     1       6.872   9.966   5.439  0.00  0.00    -0.060 C 
ATOM     28  C   UNL     1       9.136  10.790   5.165  0.00  0.00    -0.060 C 
ATOM     29  C   UNL     1       8.668  11.912   4.232  0.00  0.00    +0.089 C 
ATOM     30  C   UNL     1       8.536   9.528   7.142  0.00  0.00    -0.096 C 
ATOM     31  N   UNL     1       8.060  10.502   6.138  0.00  0.00    +0.380 N 
ATOM     32  H   UNL     1       7.801  11.373   6.615  0.00  0.00    -0.082 HD
ENDBRANCH  21  23
ENDBRANCH  12  21
BRANCH  11  33
ATOM     33  O   UNL     1       3.357   9.885   1.995  0.00  0.00    -0.391 OA
ATOM     34  H   UNL     1       3.344  10.845   2.111  0.00  0.00    +0.210 HD
ENDBRANCH  11  33
TORSDOF 4
