REMARK  Name = ZINC39412462
REMARK  4 active torsions:
REMARK  status: ('A' for Active; 'I' for Inactive)
REMARK    1  A    between atoms: C_1  and  C_2
REMARK    2  A    between atoms: C_10  and  N_14
REMARK    3  A    between atoms: N_14  and  N_15
REMARK    4  A    between atoms: C_16  and  C_17
REMARK                            x       y       z     vdW  Elec       q    Type
REMARK                         _______ _______ _______ _____ _____    ______ ____
ROOT
ATOM      1  C   UNL     1       0.121   1.160  -0.259  0.00  0.00    +0.046 C 
ATOM      2  C   UNL     1       0.093  -0.346  -0.192  0.00  0.00    -0.026 A 
ATOM      3  C   UNL     1       0.069  -1.078  -1.333  0.00  0.00    +0.005 A 
ATOM      4  C   UNL     1       0.044  -2.478  -1.316  0.00  0.00    +0.001 A 
ATOM      5  C   UNL     1       0.042  -3.173  -0.151  0.00  0.00    +0.012 A 
ATOM      6  C   UNL     1       0.066  -2.476   1.075  0.00  0.00    +0.029 A 
ATOM      7  C   UNL     1       0.071  -2.858   2.414  0.00  0.00    +0.137 C 
ATOM      8  C   UNL     1       0.102  -1.586   3.188  0.00  0.00    +0.159 C 
ATOM      9  N   UNL     1       0.113  -1.640   4.495  0.00  0.00    -0.218 NA
ATOM     10  C   UNL     1       0.094  -2.968   5.125  0.00  0.00    +0.349 C 
ATOM     11  N   UNL     1       0.065  -4.157   4.267  0.00  0.00    -0.138 NA
ATOM     12  N   UNL     1       0.056  -4.050   3.037  0.00  0.00    -0.147 NA
ATOM     13  N   UNL     1       0.113  -0.556   2.310  0.00  0.00    -0.338 N 
ATOM     14  C   UNL     1       0.098  -0.999   1.061  0.00  0.00    +0.053 A 
ATOM     15  H   UNL     1       0.132   0.381   2.561  0.00  0.00    +0.167 HD
ENDROOT
BRANCH  10  16
ATOM     16  N   UNL     1       1.281  -3.070   5.978  0.00  0.00    -0.225 N 
ATOM     17  H   UNL     1       2.089  -2.586   5.745  0.00  0.00    +0.172 HD
BRANCH  16  18
ATOM     18  N   UNL     1       1.249  -3.865   7.131  0.00  0.00    -0.188 NA
ATOM     19  C   UNL     1       2.325  -4.019   7.845  0.00  0.00    +0.176 C 
BRANCH  19  20
ATOM     20  C   UNL     1       3.526  -3.234   7.540  0.00  0.00    +0.150 A 
ATOM     21  C   UNL     1       4.748  -3.379   8.128  0.00  0.00    +0.067 A 
ATOM     22  C   UNL     1       5.599  -2.427   7.534  0.00  0.00    +0.071 A 
ATOM     23  C   UNL     1       4.866  -1.754   6.622  0.00  0.00    +0.185 A 
ATOM     24  O   UNL     1       3.616  -2.248   6.625  0.00  0.00    -0.446 OA
ATOM     25 BR   UNL     1       5.495  -0.354   5.518  0.00  0.00    -0.007 Br
ATOM     26 BR   UNL     1       7.425  -2.144   7.938  0.00  0.00    -0.046 Br
ENDBRANCH  19  20
ENDBRANCH  16  18
ENDBRANCH  10  16
TORSDOF 3
