REMARK  Name = ZINC54463293
REMARK  9 active torsions:
REMARK  status: ('A' for Active; 'I' for Inactive)
REMARK    1  A    between atoms: C_1  and  C_2
REMARK    2  A    between atoms: C_3  and  C_14
REMARK    3  A    between atoms: C_4  and  C_13
REMARK    4  A    between atoms: N_5  and  C_7
REMARK    5  A    between atoms: C_14  and  N_15
REMARK    6  A    between atoms: N_15  and  C_16
REMARK    7  A    between atoms: C_16  and  C_17
REMARK    8  A    between atoms: N_23  and  C_24
REMARK    9  A    between atoms: N_23  and  C_25
REMARK                            x       y       z     vdW  Elec       q    Type
REMARK                         _______ _______ _______ _____ _____    ______ ____
ROOT
ATOM      1  C   UNL     1      -0.010  -0.348  -2.563  0.00  0.00    -0.043 C 
ENDROOT
BRANCH   1   4
ATOM      2  C   UNL     1      -0.193   1.467   0.028  0.00  0.00    +0.068 C 
ATOM      3  C   UNL     1      -0.116  -0.038   0.006  0.00  0.00    +0.062 A 
ATOM      4  C   UNL     1      -0.035  -0.838  -1.139  0.00  0.00    -0.021 A 
ATOM      5  C   UNL     1       0.016  -2.131  -0.741  0.00  0.00    +0.043 A 
ATOM      6  N   UNL     1      -0.031  -2.147   0.611  0.00  0.00    -0.237 N 
ATOM      7  N   UNL     1      -0.109  -0.821   1.055  0.00  0.00    -0.171 NA
ATOM      8  C   UNL     1       0.109  -3.335  -1.641  0.00  0.00    +0.066 C 
BRANCH   6   9
ATOM      9  C   UNL     1      -0.003  -3.289   1.423  0.00  0.00    +0.066 A 
ATOM     10  C   UNL     1       0.872  -4.327   1.134  0.00  0.00    +0.028 A 
ATOM     11  C   UNL     1       0.897  -5.451   1.936  0.00  0.00    +0.002 A 
ATOM     12  C   UNL     1       0.052  -5.543   3.027  0.00  0.00    +0.000 A 
ATOM     13  C   UNL     1      -0.821  -4.510   3.318  0.00  0.00    +0.002 A 
ATOM     14  C   UNL     1      -0.846  -3.381   2.523  0.00  0.00    +0.028 A 
ENDBRANCH   6   9
ENDBRANCH   1   4
BRANCH   1  15
ATOM     15  N   UNL     1       1.381  -0.118  -2.978  0.00  0.00    +0.384 N 
ATOM     16  H   UNL     1       1.801   0.574  -2.376  0.00  0.00    -0.085 HD
ATOM     17  H   UNL     1       1.899  -0.982  -2.910  0.00  0.00    -0.085 HD
BRANCH  15  18
ATOM     18  C   UNL     1       1.406   0.360  -4.366  0.00  0.00    -0.045 C 
BRANCH  18  19
ATOM     19  C   UNL     1       2.832   0.595  -4.791  0.00  0.00    -0.048 A 
ATOM     20  C   UNL     1       3.427   1.835  -4.596  0.00  0.00    +0.006 A 
ATOM     21  C   UNL     1       4.738   2.009  -5.000  0.00  0.00    +0.042 A 
ATOM     22  C   UNL     1       5.413   0.943  -5.586  0.00  0.00    +0.098 A 
ATOM     23  N   UNL     1       4.811  -0.224  -5.755  0.00  0.00    -0.349 N 
ATOM     24  C   UNL     1       3.563  -0.421  -5.374  0.00  0.00    +0.085 A 
ATOM     25  N   UNL     1       6.731   1.104  -5.997  0.00  0.00    -0.323 N 
ATOM     26  C   UNL     1       7.440   2.354  -5.711  0.00  0.00    +0.130 C 
ATOM     27  C   UNL     1       7.411   0.024  -6.717  0.00  0.00    +0.130 C 
ATOM     28  H   UNL     1       5.301  -0.954  -6.166  0.00  0.00    +0.167 HD
ENDBRANCH  18  19
ENDBRANCH  15  18
ENDBRANCH   1  15
TORSDOF 5
