REMARK  Name = ZINC09332699
REMARK  6 active torsions:
REMARK  status: ('A' for Active; 'I' for Inactive)
REMARK    1  A    between atoms: C_1  and  C_2
REMARK    2  A    between atoms: C_7  and  C_8
REMARK    3  A    between atoms: N_24  and  C_27
REMARK    4  A    between atoms: C_29  and  N_35
REMARK    5  A    between atoms: C_32  and  O_33
REMARK    6  A    between atoms: O_33  and  C_34
REMARK                            x       y       z     vdW  Elec       q    Type
REMARK                         _______ _______ _______ _____ _____    ______ ____
ROOT
ATOM      1  C   UNL     1       5.727  -0.424  -0.037  0.00  0.00    +0.044 C 
ATOM      2  C   UNL     1       4.220  -0.403  -0.026  0.00  0.00    -0.046 A 
ATOM      3  C   UNL     1       3.515  -1.593  -0.023  0.00  0.00    +0.004 A 
ATOM      4  C   UNL     1       2.132  -1.575  -0.014  0.00  0.00    +0.005 A 
ATOM      5  C   UNL     1       1.459  -0.373  -0.008  0.00  0.00    -0.027 A 
ATOM      6  C   UNL     1       2.157   0.831  -0.011  0.00  0.00    +0.039 A 
ATOM      7  C   UNL     1       3.550   0.802  -0.020  0.00  0.00    -0.026 A 
ATOM      8  C   UNL     1       4.327   2.094  -0.024  0.00  0.00    +0.046 C 
ATOM      9  N   UNL     1       1.266   1.906   0.000  0.00  0.00    -0.286 N 
ATOM     10  C   UNL     1      -0.018   1.501   0.010  0.00  0.00    +0.212 C 
ATOM     11  O   UNL     1      -1.001   2.211   0.019  0.00  0.00    -0.277 OA
ATOM     12  C   UNL     1       0.002  -0.004   0.002  0.00  0.00    +0.053 C 
ATOM     13  C   UNL     1      -0.726  -0.564  -1.225  0.00  0.00    +0.089 C 
ATOM     14  C   UNL     1      -2.138  -0.921  -0.710  0.00  0.00    +0.074 C 
ATOM     15  C   UNL     1      -2.130  -0.579   0.791  0.00  0.00    -0.054 C 
ATOM     16  C   UNL     1      -0.324  -1.985   1.350  0.00  0.00    -0.076 C 
ATOM     17  C   UNL     1      -1.564  -2.645   1.985  0.00  0.00    -0.020 C 
ATOM     18  C   UNL     1      -2.746  -1.733   1.602  0.00  0.00    -0.016 C 
ATOM     19  C   UNL     1      -3.057   0.034  -1.438  0.00  0.00    +0.229 C 
ATOM     20  O   UNL     1      -4.263   0.070  -1.323  0.00  0.00    -0.275 OA
ATOM     21  N   UNL     1      -2.331   0.835  -2.227  0.00  0.00    -0.206 N 
ATOM     22  C   UNL     1      -1.013   0.608  -2.186  0.00  0.00    +0.230 C 
ATOM     23  O   UNL     1      -0.177   1.216  -2.820  0.00  0.00    -0.275 OA
ATOM     24  H   UNL     1       1.540   2.836   0.000  0.00  0.00    +0.155 HD
ATOM     25  N   UNL     1      -0.727  -0.584   1.140  0.00  0.00    +0.395 N 
ATOM     26  H   UNL     1      -0.558  -0.034   1.990  0.00  0.00    -0.079 HD
ENDROOT
BRANCH  21  27
ATOM     27  C   UNL     1      -2.905   1.831  -3.031  0.00  0.00    +0.088 A 
ATOM     28  C   UNL     1      -3.082   3.112  -2.531  0.00  0.00    +0.060 A 
ATOM     29  C   UNL     1      -3.647   4.092  -3.325  0.00  0.00    +0.128 A 
ATOM     30  C   UNL     1      -4.038   3.798  -4.618  0.00  0.00    +0.036 A 
ATOM     31  C   UNL     1      -3.865   2.523  -5.124  0.00  0.00    +0.050 A 
ATOM     32  C   UNL     1      -3.294   1.537  -4.336  0.00  0.00    +0.142 A 
BRANCH  29  33
ATOM     33  N   UNL     1      -3.836   5.459  -2.789  0.00  0.00    +0.056 N 
ATOM     34  O   UNL     1      -3.493   5.719  -1.650  0.00  0.00    -0.126 OA
ATOM     35  O   UNL     1      -4.334   6.323  -3.487  0.00  0.00    -0.126 OA
ENDBRANCH  29  33
BRANCH  32  36
ATOM     36  O   UNL     1      -3.118   0.284  -4.833  0.00  0.00    -0.493 OA
ATOM     37  C   UNL     1      -3.540   0.055  -6.179  0.00  0.00    +0.277 C 
ENDBRANCH  32  36
ENDBRANCH  21  27
TORSDOF 3
