REMARK  Name = ZINC10514501
REMARK  6 active torsions:
REMARK  status: ('A' for Active; 'I' for Inactive)
REMARK    1  A    between atoms: C_1  and  C_2
REMARK    2  A    between atoms: C_5  and  C_25
REMARK    3  A    between atoms: C_6  and  S_8
REMARK    4  A    between atoms: S_8  and  N_11
REMARK    5  A    between atoms: C_19  and  S_21
REMARK    6  A    between atoms: S_21  and  N_24
REMARK                            x       y       z     vdW  Elec       q    Type
REMARK                         _______ _______ _______ _____ _____    ______ ____
ROOT
ATOM      1  N   UNL     1      -1.651  -4.112   2.351  0.00  0.00    -0.203 N 
ATOM      2  C   UNL     1      -2.887  -3.495   2.850  0.00  0.00    +0.132 C 
ATOM      3  C   UNL     1      -3.670  -4.569   3.618  0.00  0.00    +0.025 C 
ATOM      4  C   UNL     1      -4.060  -5.684   2.648  0.00  0.00    +0.039 C 
ATOM      5  C   UNL     1      -2.855  -6.161   1.881  0.00  0.00    -0.023 A 
ATOM      6  C   UNL     1      -1.718  -5.375   1.753  0.00  0.00    +0.055 A 
ATOM      7  C   UNL     1      -0.626  -5.841   1.030  0.00  0.00    +0.027 A 
ATOM      8  C   UNL     1      -0.672  -7.087   0.435  0.00  0.00    +0.030 A 
ATOM      9  C   UNL     1      -1.804  -7.869   0.559  0.00  0.00    +0.105 A 
ATOM     10  C   UNL     1      -2.890  -7.412   1.288  0.00  0.00    +0.034 A 
ENDROOT
BRANCH   1  11
ATOM     11  S   UNL     1      -0.202  -3.322   2.488  0.00  0.00    +0.075 S 
ATOM     12  O   UNL     1       0.792  -4.324   2.659  0.00  0.00    -0.150 OA
ATOM     13  O   UNL     1      -0.398  -2.275   3.428  0.00  0.00    -0.150 OA
BRANCH  11  19
ATOM     14  C   UNL     1       2.660  -2.765  -1.850  0.00  0.00    +0.044 C 
ATOM     15  C   UNL     1       1.468  -2.339  -1.032  0.00  0.00    -0.049 A 
ATOM     16  C   UNL     1       0.628  -1.345  -1.499  0.00  0.00    +0.004 A 
ATOM     17  C   UNL     1      -0.465  -0.955  -0.748  0.00  0.00    +0.005 A 
ATOM     18  C   UNL     1      -0.718  -1.559   0.469  0.00  0.00    -0.024 A 
ATOM     19  C   UNL     1       0.121  -2.553   0.936  0.00  0.00    +0.112 A 
ATOM     20  C   UNL     1       1.212  -2.947   0.183  0.00  0.00    +0.032 A 
ATOM     21  C   UNL     1      -1.909  -1.133   1.288  0.00  0.00    +0.046 C 
ENDBRANCH  11  19
ENDBRANCH   1  11
BRANCH   9  22
ATOM     22  S   UNL     1      -1.862  -9.459  -0.198  0.00  0.00    +0.056 S 
ATOM     23  O   UNL     1      -3.236  -9.766  -0.393  0.00  0.00    -0.153 OA
ATOM     24  O   UNL     1      -0.928  -9.433  -1.268  0.00  0.00    -0.153 OA
BRANCH  22  25
ATOM     25  N   UNL     1      -1.285 -10.549   0.907  0.00  0.00    -0.204 NA
ATOM     26  H   UNL     1      -0.997 -10.246   1.782  0.00  0.00    +0.144 HD
ATOM     27  H   UNL     1      -1.236 -11.491   0.679  0.00  0.00    +0.144 HD
ENDBRANCH  22  25
ENDBRANCH   9  22
TORSDOF 4
