REMARK  Name = ZINC13656287
REMARK  6 active torsions:
REMARK  status: ('A' for Active; 'I' for Inactive)
REMARK    1  A    between atoms: C_1  and  C_2
REMARK    2  A    between atoms: C_12  and  C_13
REMARK    3  A    between atoms: C_13  and  C_14
REMARK    4  A    between atoms: C_14  and  C_15
REMARK    5  A    between atoms: N_17  and  C_18
REMARK    6  A    between atoms: C_28  and  C_29
REMARK                            x       y       z     vdW  Elec       q    Type
REMARK                         _______ _______ _______ _____ _____    ______ ____
ROOT
ATOM      1  C   UNL     1       0.642  -6.613  -3.510  0.00  0.00    +0.045 C 
ATOM      2  C   UNL     1       1.982  -7.064  -2.987  0.00  0.00    -0.030 A 
ATOM      3  C   UNL     1       2.272  -8.486  -2.785  0.00  0.00    +0.022 A 
ATOM      4  C   UNL     1       1.313  -9.458  -3.073  0.00  0.00    +0.024 A 
ATOM      5  C   UNL     1       1.619 -10.794  -2.870  0.00  0.00    +0.029 A 
ATOM      6  C   UNL     1       2.884 -11.173  -2.379  0.00  0.00    +0.139 A 
ATOM      7  C   UNL     1       3.833 -10.202  -2.096  0.00  0.00    +0.093 A 
ATOM      8  C   UNL     1       3.539  -8.864  -2.294  0.00  0.00    +0.143 A 
ATOM      9  O   UNL     1       4.460  -7.913  -2.019  0.00  0.00    -0.422 OA
ATOM     10  C   UNL     1       4.201  -6.610  -2.208  0.00  0.00    +0.341 A 
ATOM     11  O   UNL     1       5.065  -5.791  -1.950  0.00  0.00    -0.245 OA
ATOM     12  C   UNL     1       2.953  -6.163  -2.690  0.00  0.00    +0.041 A 
ATOM     13  O   UNL     1       2.893 -12.519  -2.285  0.00  0.00    -0.462 OA
ATOM     14  C   UNL     1       1.720 -13.042  -2.680  0.00  0.00    +0.204 A 
ATOM     15  C   UNL     1       0.876 -12.056  -3.057  0.00  0.00    +0.028 A 
ENDROOT
BRANCH  15  16
ATOM     16  C   UNL     1      -0.512 -12.210  -3.557  0.00  0.00    -0.014 A 
ATOM     17  C   UNL     1      -1.544 -11.459  -2.997  0.00  0.00    +0.010 A 
ATOM     18  C   UNL     1      -2.833 -11.602  -3.469  0.00  0.00    +0.020 A 
ATOM     19  C   UNL     1      -3.103 -12.498  -4.490  0.00  0.00    +0.041 A 
ATOM     20  C   UNL     1      -2.082 -13.250  -5.045  0.00  0.00    +0.020 A 
ATOM     21  C   UNL     1      -0.789 -13.111  -4.584  0.00  0.00    +0.010 A 
ATOM     22 CL   UNL     1      -4.728 -12.679  -5.074  0.00  0.00    -0.084 Cl
ENDBRANCH  15  16
BRANCH  12  23
ATOM     23  C   UNL     1       2.701  -4.689  -2.882  0.00  0.00    +0.052 C 
BRANCH  23  24
ATOM     24  C   UNL     1       2.119  -4.100  -1.595  0.00  0.00    +0.100 C 
BRANCH  24  25
ATOM     25  C   UNL     1       1.867  -2.627  -1.786  0.00  0.00    +0.214 C 
ATOM     26  O   UNL     1       2.127  -2.100  -2.847  0.00  0.00    -0.276 OA
ATOM     27  N   UNL     1       1.352  -1.895  -0.779  0.00  0.00    -0.311 N 
ATOM     28  H   UNL     1       1.143  -2.317   0.070  0.00  0.00    +0.149 HD
BRANCH  27  29
ATOM     29  C   UNL     1       1.107  -0.463  -0.965  0.00  0.00    +0.095 C 
ATOM     30  C   UNL     1       0.002  -0.004   0.002  0.00  0.00    +0.046 C 
ATOM     31  C   UNL     1      -0.019   1.551   0.011  0.00  0.00    +0.168 C 
ATOM     32  S   UNL     1       1.788   1.913  -0.005  0.00  0.00    -0.029 S 
ATOM     33  O   UNL     1       2.044   2.949  -0.943  0.00  0.00    -0.174 OA
ATOM     34  O   UNL     1       2.243   2.053   1.334  0.00  0.00    -0.174 OA
ATOM     35  C   UNL     1       2.411   0.322  -0.686  0.00  0.00    +0.188 C 
ENDBRANCH  27  29
ENDBRANCH  24  25
ENDBRANCH  23  24
ENDBRANCH  12  23
TORSDOF 5
