REMARK  Name = ZINC01770557
REMARK  8 active torsions:
REMARK  status: ('A' for Active; 'I' for Inactive)
REMARK    1  A    between atoms: C_1  and  C_2
REMARK    2  A    between atoms: C_2  and  C_3
REMARK    3  A    between atoms: C_9  and  S_13
REMARK    4  A    between atoms: S_13  and  C_14
REMARK    5  A    between atoms: C_14  and  C_15
REMARK    6  A    between atoms: N_17  and  C_18
REMARK    7  A    between atoms: C_30  and  C_33
REMARK    8  A    between atoms: C_30  and  C_34
REMARK                            x       y       z     vdW  Elec       q    Type
REMARK                         _______ _______ _______ _____ _____    ______ ____
ROOT
ATOM      1  C   UNL     1       0.699  -0.560  -1.213  0.00  0.00    +0.048 A 
ATOM      2  C   UNL     1      -0.030  -0.793  -2.373  0.00  0.00    +0.003 A 
ATOM      3  C   UNL     1       0.611  -1.228  -3.507  0.00  0.00    -0.026 A 
ATOM      4  C   UNL     1       2.009  -1.439  -3.475  0.00  0.00    +0.037 A 
ATOM      5  C   UNL     1       2.874  -1.904  -4.574  0.00  0.00    +0.092 A 
ATOM      6  C   UNL     1       4.235  -2.028  -4.270  0.00  0.00    +0.072 A 
ATOM      7  C   UNL     1       5.144  -2.458  -5.229  0.00  0.00    +0.115 A 
ATOM      8  N   UNL     1       4.687  -2.750  -6.447  0.00  0.00    -0.228 NA
ATOM      9  C   UNL     1       3.401  -2.627  -6.716  0.00  0.00    +0.223 A 
ATOM     10  N   UNL     1       2.517  -2.225  -5.838  0.00  0.00    -0.234 NA
ATOM     11  S   UNL     1       4.362  -1.540  -2.572  0.00  0.00    -0.064 S 
ATOM     12  C   UNL     1       2.653  -1.175  -2.253  0.00  0.00    +0.111 A 
ATOM     13  N   UNL     1       2.003  -0.751  -1.191  0.00  0.00    -0.244 NA
ATOM     14  C   UNL     1      -0.130  -1.484  -4.791  0.00  0.00    +0.070 C 
ATOM     15  C   UNL     1      -1.629  -1.598  -4.506  0.00  0.00    +0.068 C 
ATOM     16  O   UNL     1      -2.022  -0.489  -3.690  0.00  0.00    -0.369 OA
ATOM     17  C   UNL     1      -1.520  -0.563  -2.356  0.00  0.00    +0.197 C 
ATOM     18  C   UNL     1      -2.407  -1.568  -5.823  0.00  0.00    +0.041 C 
ATOM     19  C   UNL     1      -1.913  -2.907  -3.766  0.00  0.00    +0.041 C 
ENDROOT
BRANCH   1  21
ATOM     20  C   UNL     1      -0.039   1.450   0.038  0.00  0.00    +0.010 C 
ATOM     21  C   UNL     1      -0.007  -0.080   0.029  0.00  0.00    +0.052 C 
ENDBRANCH   1  21
BRANCH   7  22
ATOM     22  S   UNL     1       6.857  -2.613  -4.845  0.00  0.00    -0.095 S 
BRANCH  22  23
ATOM     23  C   UNL     1       7.603  -3.194  -6.393  0.00  0.00    +0.172 C 
BRANCH  23  24
ATOM     24  C   UNL     1       9.087  -3.370  -6.200  0.00  0.00    +0.227 C 
ATOM     25  O   UNL     1       9.592  -3.128  -5.124  0.00  0.00    -0.275 OA
ATOM     26  N   UNL     1       9.853  -3.797  -7.223  0.00  0.00    -0.284 N 
ATOM     27  H   UNL     1       9.442  -4.053  -8.064  0.00  0.00    +0.155 HD
BRANCH  26  28
ATOM     28  C   UNL     1      11.243  -3.871  -7.073  0.00  0.00    +0.052 A 
ATOM     29  C   UNL     1      11.793  -4.220  -5.847  0.00  0.00    +0.026 A 
ATOM     30  C   UNL     1      13.165  -4.293  -5.701  0.00  0.00    +0.022 A 
ATOM     31  C   UNL     1      13.992  -4.018  -6.776  0.00  0.00    +0.042 A 
ATOM     32  C   UNL     1      13.447  -3.670  -8.000  0.00  0.00    +0.041 A 
ATOM     33  C   UNL     1      12.075  -3.602  -8.153  0.00  0.00    +0.064 A 
ATOM     34 CL   UNL     1      11.393  -3.172  -9.690  0.00  0.00    -0.082 Cl
ATOM     35 CL   UNL     1      15.715  -4.109  -6.589  0.00  0.00    -0.083 Cl
ENDBRANCH  26  28
ENDBRANCH  23  24
ENDBRANCH  22  23
ENDBRANCH   7  22
TORSDOF 5
