REMARK  Name = ZINC63361990
REMARK  6 active torsions:
REMARK  status: ('A' for Active; 'I' for Inactive)
REMARK    1  A    between atoms: C_1  and  C_2
REMARK    2  A    between atoms: N_18  and  C_21
REMARK    3  A    between atoms: C_25  and  C_27
REMARK    4  A    between atoms: N_29  and  C_30
REMARK    5  A    between atoms: C_30  and  C_31
REMARK    6  A    between atoms: C_31  and  C_32
REMARK                            x       y       z     vdW  Elec       q    Type
REMARK                         _______ _______ _______ _____ _____    ______ ____
ROOT
ATOM      1  C   UNL     1      -0.027   1.515  -0.021  0.00  0.00    +0.044 C 
ATOM      2  C   UNL     1       0.005  -0.015  -0.004  0.00  0.00    +0.137 C 
ATOM      3  C   UNL     1       0.738  -0.569  -1.227  0.00  0.00    +0.139 C 
ATOM      4  C   UNL     1       1.859  -1.461  -0.715  0.00  0.00    -0.034 C 
ATOM      5  C   UNL     1       1.672  -2.653  -1.276  0.00  0.00    -0.001 A 
ATOM      6  C   UNL     1       2.458  -3.896  -1.213  0.00  0.00    +0.010 A 
ATOM      7  C   UNL     1       1.963  -4.952  -1.911  0.00  0.00    +0.001 A 
ATOM      8  C   UNL     1       0.780  -4.896  -2.655  0.00  0.00    +0.002 A 
ATOM      9  C   UNL     1      -0.003  -3.794  -2.772  0.00  0.00    +0.026 A 
ATOM     10  C   UNL     1       0.417  -2.617  -2.085  0.00  0.00    +0.043 A 
ATOM     11  N   UNL     1      -0.131  -1.421  -2.041  0.00  0.00    -0.375 N 
ATOM     12  C   UNL     1       2.892  -1.012   0.290  0.00  0.00    +0.052 C 
ATOM     13  C   UNL     1       2.123  -0.402   1.480  0.00  0.00    +0.115 C 
ATOM     14  N   UNL     1       0.690  -0.528   1.200  0.00  0.00    -0.268 N 
ATOM     15  C   UNL     1      -0.245  -1.138   1.943  0.00  0.00    +0.316 C 
ATOM     16  O   UNL     1      -0.045  -1.574   3.059  0.00  0.00    -0.252 OA
ATOM     17  N   UNL     1      -1.425  -1.211   1.312  0.00  0.00    -0.192 N 
ATOM     18  C   UNL     1      -1.387  -0.595   0.112  0.00  0.00    +0.253 C 
ATOM     19  O   UNL     1      -2.282  -0.522  -0.702  0.00  0.00    -0.272 OA
ATOM     20  H   UNL     1      -0.960  -1.147  -2.464  0.00  0.00    +0.160 HD
ENDROOT
BRANCH  17  21
ATOM     21  C   UNL     1      -2.559  -1.848   1.835  0.00  0.00    +0.046 A 
ATOM     22  C   UNL     1      -2.469  -2.560   3.025  0.00  0.00    +0.024 A 
ATOM     23  C   UNL     1      -3.584  -3.191   3.544  0.00  0.00    +0.003 A 
ATOM     24  C   UNL     1      -4.794  -3.117   2.885  0.00  0.00    +0.013 A 
ATOM     25  C   UNL     1      -4.895  -2.404   1.690  0.00  0.00    +0.038 A 
ATOM     26  C   UNL     1      -3.771  -1.763   1.169  0.00  0.00    +0.037 A 
BRANCH  25  27
ATOM     27  C   UNL     1      -6.190  -2.323   0.980  0.00  0.00    +0.244 C 
ATOM     28  O   UNL     1      -6.275  -1.702  -0.061  0.00  0.00    -0.270 OA
ATOM     29  N   UNL     1      -7.276  -2.940   1.488  0.00  0.00    -0.311 N 
ATOM     30  H   UNL     1      -7.208  -3.436   2.319  0.00  0.00    +0.149 HD
BRANCH  29  31
ATOM     31  C   UNL     1      -8.559  -2.860   0.785  0.00  0.00    +0.109 C 
BRANCH  31  32
ATOM     32  C   UNL     1      -9.618  -3.639   1.568  0.00  0.00    +0.054 C 
BRANCH  32  33
ATOM     33  C   UNL     1     -10.938  -3.557   0.845  0.00  0.00    -0.046 A 
ATOM     34  C   UNL     1     -11.815  -2.526   1.124  0.00  0.00    +0.005 A 
ATOM     35  C   UNL     1     -13.026  -2.450   0.461  0.00  0.00    +0.020 A 
ATOM     36  C   UNL     1     -13.359  -3.407  -0.481  0.00  0.00    +0.041 A 
ATOM     37  C   UNL     1     -12.481  -4.439  -0.760  0.00  0.00    +0.020 A 
ATOM     38  C   UNL     1     -11.268  -4.510  -0.101  0.00  0.00    +0.005 A 
ATOM     39 CL   UNL     1     -14.880  -3.313  -1.313  0.00  0.00    -0.084 Cl
ENDBRANCH  32  33
ENDBRANCH  31  32
ENDBRANCH  29  31
ENDBRANCH  25  27
ENDBRANCH  17  21
TORSDOF 5
