REMARK  Name = ZINC41024601
REMARK  7 active torsions:
REMARK  status: ('A' for Active; 'I' for Inactive)
REMARK    1  A    between atoms: C_1  and  C_2
REMARK    2  A    between atoms: C_3  and  C_20
REMARK    3  A    between atoms: N_9  and  C_12
REMARK    4  A    between atoms: C_12  and  C_13
REMARK    5  A    between atoms: N_22  and  C_23
REMARK    6  A    between atoms: C_28  and  O_29
REMARK    7  A    between atoms: O_29  and  C_30
REMARK                            x       y       z     vdW  Elec       q    Type
REMARK                         _______ _______ _______ _____ _____    ______ ____
ROOT
ATOM      1  C   UNL     1      -0.032   1.526   0.007  0.00  0.00    +0.087 C 
ATOM      2  C   UNL     1       0.000   0.019   0.001  0.00  0.00    +0.117 A 
ATOM      3  C   UNL     1      -1.095  -0.789   0.003  0.00  0.00    +0.092 A 
ATOM      4  C   UNL     1      -0.570  -2.165  -0.005  0.00  0.00    +0.117 A 
ATOM      5  C   UNL     1       0.819  -2.040  -0.011  0.00  0.00    +0.235 A 
ATOM      6  O   UNL     1       1.111  -0.729  -0.013  0.00  0.00    -0.441 OA
ATOM      7  N   UNL     1       1.570  -3.152  -0.019  0.00  0.00    -0.202 NA
ATOM      8  C   UNL     1       1.027  -4.338  -0.022  0.00  0.00    +0.206 A 
ATOM      9  N   UNL     1      -0.316  -4.521  -0.016  0.00  0.00    -0.294 N 
ATOM     10  C   UNL     1      -1.147  -3.453  -0.007  0.00  0.00    +0.266 A 
ATOM     11  O   UNL     1      -2.357  -3.599  -0.002  0.00  0.00    -0.267 OA
ENDROOT
BRANCH   3  12
ATOM     12  C   UNL     1      -2.508  -0.375   0.012  0.00  0.00    +0.252 C 
ATOM     13  O   UNL     1      -3.097  -0.200  -1.038  0.00  0.00    -0.270 OA
ATOM     14  N   UNL     1      -3.148  -0.190   1.184  0.00  0.00    -0.278 N 
ATOM     15  H   UNL     1      -2.704  -0.407   2.018  0.00  0.00    +0.155 HD
BRANCH  14  16
ATOM     16  C   UNL     1      -4.455   0.315   1.195  0.00  0.00    +0.077 A 
ATOM     17  C   UNL     1      -4.910   1.089   0.138  0.00  0.00    +0.047 A 
ATOM     18  C   UNL     1      -6.201   1.585   0.151  0.00  0.00    +0.043 A 
ATOM     19  C   UNL     1      -7.040   1.312   1.218  0.00  0.00    +0.024 A 
ATOM     20  C   UNL     1      -6.591   0.542   2.275  0.00  0.00    +0.049 A 
ATOM     21  C   UNL     1      -5.301   0.036   2.266  0.00  0.00    +0.141 A 
ATOM     22 CL   UNL     1      -6.770   2.554  -1.172  0.00  0.00    -0.083 Cl
BRANCH  21  23
ATOM     23  O   UNL     1      -4.861  -0.727   3.302  0.00  0.00    -0.493 OA
ATOM     24  C   UNL     1      -5.784  -0.971   4.365  0.00  0.00    +0.277 C 
ENDBRANCH  21  23
ENDBRANCH  14  16
ENDBRANCH   3  12
BRANCH   9  25
ATOM     25  C   UNL     1      -0.869  -5.878  -0.020  0.00  0.00    +0.161 C 
BRANCH  25  26
ATOM     26  C   UNL     1      -1.053  -6.349   1.400  0.00  0.00    -0.028 A 
ATOM     27  C   UNL     1      -0.026  -7.013   2.045  0.00  0.00    +0.007 A 
ATOM     28  C   UNL     1      -0.193  -7.445   3.347  0.00  0.00    +0.020 A 
ATOM     29  C   UNL     1      -1.389  -7.215   4.004  0.00  0.00    +0.041 A 
ATOM     30  C   UNL     1      -2.416  -6.551   3.358  0.00  0.00    +0.020 A 
ATOM     31  C   UNL     1      -2.245  -6.114   2.058  0.00  0.00    +0.007 A 
ATOM     32 CL   UNL     1      -1.600  -7.758   5.639  0.00  0.00    -0.084 Cl
ENDBRANCH  25  26
ENDBRANCH   9  25
TORSDOF 5
