REMARK  Name = ZINC58901778
REMARK  5 active torsions:
REMARK  status: ('A' for Active; 'I' for Inactive)
REMARK    1  A    between atoms: C_3  and  S_10
REMARK    2  A    between atoms: C_6  and  N_7
REMARK    3  A    between atoms: S_10  and  N_13
REMARK    4  A    between atoms: C_23  and  S_25
REMARK    5  A    between atoms: S_25  and  N_28
REMARK                            x       y       z     vdW  Elec       q    Type
REMARK                         _______ _______ _______ _____ _____    ______ ____
ROOT
ATOM      1  N   UNL     1       4.257   2.674   1.550  0.00  0.00    -0.223 N 
ATOM      2  C   UNL     1       3.658   3.867   2.144  0.00  0.00    +0.019 C 
ATOM      3  N   UNL     1       4.723   4.661   2.789  0.00  0.00    +0.484 NA
ATOM      4  S   UNL     1       5.592   3.880   3.980  0.00  0.00    -0.056 S 
ATOM      5  O   UNL     1       4.746   3.788   5.119  0.00  0.00    -0.191 OA
ATOM      6  O   UNL     1       6.876   4.486   4.023  0.00  0.00    -0.191 OA
ATOM      7  C   UNL     1       5.815   2.236   3.369  0.00  0.00    +0.090 A 
ATOM      8  C   UNL     1       5.115   1.823   2.241  0.00  0.00    +0.073 A 
ATOM      9  C   UNL     1       5.282   0.518   1.779  0.00  0.00    +0.048 A 
ATOM     10  C   UNL     1       6.136  -0.347   2.433  0.00  0.00    +0.069 A 
ATOM     11  C   UNL     1       6.832   0.075   3.552  0.00  0.00    +0.125 A 
ATOM     12  C   UNL     1       6.675   1.374   4.016  0.00  0.00    +0.056 A 
ATOM     13 CL   UNL     1       6.337  -1.969   1.849  0.00  0.00    -0.081 Cl
ENDROOT
BRANCH   1  14
ATOM     14  S   UNL     1       3.891   2.312  -0.024  0.00  0.00    +0.073 S 
ATOM     15  O   UNL     1       4.984   1.560  -0.532  0.00  0.00    -0.150 OA
ATOM     16  O   UNL     1       3.453   3.522  -0.627  0.00  0.00    -0.150 OA
BRANCH  14  19
ATOM     17  C   UNL     1       0.134   0.895   0.131  0.00  0.00    +0.034 A 
ATOM     18  C   UNL     1       1.224   1.745   0.113  0.00  0.00    +0.031 A 
ATOM     19  C   UNL     1       2.502   1.229  -0.000  0.00  0.00    +0.109 A 
ATOM     20  C   UNL     1       2.689  -0.137  -0.095  0.00  0.00    +0.031 A 
ATOM     21  C   UNL     1       1.599  -0.987  -0.077  0.00  0.00    +0.034 A 
ATOM     22  C   UNL     1       0.322  -0.471   0.035  0.00  0.00    +0.126 A 
BRANCH  22  23
ATOM     23  N   UNL     1      -0.846  -1.381   0.054  0.00  0.00    +0.056 N 
ATOM     24  O   UNL     1      -1.963  -0.929   0.154  0.00  0.00    -0.126 OA
ATOM     25  O   UNL     1      -0.682  -2.576  -0.029  0.00  0.00    -0.126 OA
ENDBRANCH  22  23
ENDBRANCH  14  19
ENDBRANCH   1  14
BRANCH  11  26
ATOM     26  S   UNL     1       7.926  -1.031   4.380  0.00  0.00    +0.057 S 
ATOM     27  O   UNL     1       8.751  -1.612   3.379  0.00  0.00    -0.153 OA
ATOM     28  O   UNL     1       8.460  -0.321   5.489  0.00  0.00    -0.153 OA
BRANCH  26  29
ATOM     29  N   UNL     1       7.004  -2.257   5.003  0.00  0.00    -0.203 NA
ATOM     30  H   UNL     1       7.381  -3.146   5.103  0.00  0.00    +0.144 HD
ATOM     31  H   UNL     1       6.086  -2.087   5.268  0.00  0.00    +0.144 HD
ENDBRANCH  26  29
ENDBRANCH  11  26
TORSDOF 5
