REMARK  Name = ZINC38693657
REMARK  6 active torsions:
REMARK  status: ('A' for Active; 'I' for Inactive)
REMARK    1  A    between atoms: C_6  and  C_7
REMARK    2  A    between atoms: C_7  and  S_8
REMARK    3  A    between atoms: S_8  and  N_11
REMARK    4  A    between atoms: N_11  and  C_12
REMARK    5  A    between atoms: N_18  and  S_22
REMARK    6  A    between atoms: S_22  and  C_25
REMARK                            x       y       z     vdW  Elec       q    Type
REMARK                         _______ _______ _______ _____ _____    ______ ____
ROOT
ATOM      1  C   UNL     1      -4.353  -1.127  -0.906  0.00  0.00    +0.050 A 
ATOM      2  C   UNL     1      -4.142  -0.212   0.119  0.00  0.00    +0.025 A 
ATOM      3  C   UNL     1      -5.206   0.482   0.657  0.00  0.00    +0.007 A 
ATOM      4  C   UNL     1      -6.491   0.274   0.181  0.00  0.00    -0.025 A 
ATOM      5  C   UNL     1      -6.706  -0.635  -0.844  0.00  0.00    +0.056 A 
ATOM      6  C   UNL     1      -5.636  -1.334  -1.390  0.00  0.00    +0.049 A 
ATOM      7  N   UNL     1      -7.992  -0.857  -1.348  0.00  0.00    -0.203 N 
ATOM      8  C   UNL     1      -9.148  -0.353  -0.595  0.00  0.00    +0.132 C 
ATOM      9  C   UNL     1      -8.828   1.080  -0.149  0.00  0.00    +0.025 C 
ATOM     10  C   UNL     1      -7.628   1.046   0.798  0.00  0.00    +0.038 C 
ENDROOT
BRANCH   7  11
ATOM     11  S   UNL     1      -8.208  -1.674  -2.773  0.00  0.00    +0.075 S 
ATOM     12  O   UNL     1      -9.515  -1.354  -3.230  0.00  0.00    -0.150 OA
ATOM     13  O   UNL     1      -7.047  -1.436  -3.557  0.00  0.00    -0.150 OA
BRANCH  11  14
ATOM     14  C   UNL     1      -8.214  -3.394  -2.391  0.00  0.00    +0.109 A 
ATOM     15  C   UNL     1      -7.029  -4.106  -2.393  0.00  0.00    +0.031 A 
ATOM     16  C   UNL     1      -7.033  -5.455  -2.093  0.00  0.00    +0.040 A 
ATOM     17  C   UNL     1      -8.223  -6.093  -1.791  0.00  0.00    +0.124 A 
ATOM     18  C   UNL     1      -9.410  -5.379  -1.789  0.00  0.00    +0.040 A 
ATOM     19  C   UNL     1      -9.403  -4.029  -2.084  0.00  0.00    +0.031 A 
ATOM     20  F   UNL     1      -8.228  -7.412  -1.498  0.00  0.00    -0.205 F 
ENDBRANCH  11  14
ENDBRANCH   7  11
BRANCH   1  21
ATOM     21  N   UNL     1      -3.277  -1.831  -1.450  0.00  0.00    -0.220 N 
ATOM     22  H   UNL     1      -3.147  -2.767  -1.228  0.00  0.00    +0.173 HD
BRANCH  21  23
ATOM     23  S   UNL     1      -2.222  -1.069  -2.474  0.00  0.00    +0.047 S 
ATOM     24  O   UNL     1      -1.278  -2.070  -2.833  0.00  0.00    -0.155 OA
ATOM     25  O   UNL     1      -1.811   0.095  -1.771  0.00  0.00    -0.155 OA
BRANCH  23  26
ATOM     26  C   UNL     1      -3.222  -0.608  -3.916  0.00  0.00    +0.223 C 
BRANCH  26  32
ATOM     27  C   UNL     1      -1.661  -0.437  -5.865  0.00  0.00    +0.007 A 
ATOM     28  C   UNL     1      -0.892   0.304  -6.742  0.00  0.00    +0.020 A 
ATOM     29  C   UNL     1      -0.843   1.681  -6.626  0.00  0.00    +0.041 A 
ATOM     30  C   UNL     1      -1.565   2.317  -5.632  0.00  0.00    +0.020 A 
ATOM     31  C   UNL     1      -2.334   1.576  -4.755  0.00  0.00    +0.007 A 
ATOM     32  C   UNL     1      -2.382   0.199  -4.872  0.00  0.00    -0.025 A 
ATOM     33 CL   UNL     1       0.124   2.612  -7.728  0.00  0.00    -0.084 Cl
ENDBRANCH  26  32
ENDBRANCH  23  26
ENDBRANCH  21  23
ENDBRANCH   1  21
TORSDOF 6
