REMARK  Name = ZINC20558477
REMARK  5 active torsions:
REMARK  status: ('A' for Active; 'I' for Inactive)
REMARK    1  A    between atoms: C_9  and  C_17
REMARK    2  A    between atoms: C_11  and  C_15
REMARK    3  A    between atoms: C_12  and  N_14
REMARK    4  A    between atoms: N_27  and  C_28
REMARK    5  A    between atoms: C_28  and  C_29
REMARK                            x       y       z     vdW  Elec       q    Type
REMARK                         _______ _______ _______ _____ _____    ______ ____
ROOT
ATOM      1  C   UNL     1       4.816   1.828   0.331  0.00  0.00    +0.001 A 
ATOM      2  C   UNL     1       4.940   0.497  -0.029  0.00  0.00    +0.002 A 
ATOM      3  C   UNL     1       3.820  -0.232  -0.377  0.00  0.00    +0.025 A 
ATOM      4  C   UNL     1       2.566   0.368  -0.367  0.00  0.00    +0.062 A 
ATOM      5  C   UNL     1       2.434   1.710  -0.011  0.00  0.00    +0.042 A 
ATOM      6  C   UNL     1       3.580   2.435   0.342  0.00  0.00    +0.013 A 
ATOM      7  C   UNL     1       1.134   2.422   0.004  0.00  0.00    +0.162 C 
ATOM      8  C   UNL     1      -0.022   1.765   0.012  0.00  0.00    +0.141 C 
ATOM      9  C   UNL     1      -1.342   2.485   0.022  0.00  0.00    +0.118 C 
ATOM     10  C   UNL     1      -1.157   3.917  -0.395  0.00  0.00    +0.099 C 
ATOM     11  C   UNL     1       0.077   4.479  -0.379  0.00  0.00    +0.199 C 
ATOM     12  O   UNL     1       1.155   3.782   0.012  0.00  0.00    -0.439 OA
ATOM     13  S   UNL     1       0.002  -0.004   0.002  0.00  0.00    +0.076 S 
ATOM     14  O   UNL     1       0.081  -0.426   1.357  0.00  0.00    -0.150 OA
ATOM     15  O   UNL     1      -1.030  -0.429  -0.877  0.00  0.00    -0.150 OA
ATOM     16  N   UNL     1       1.450  -0.402  -0.717  0.00  0.00    -0.198 N 
ENDROOT
BRANCH   9  17
ATOM     17  C   UNL     1      -1.921   2.445   1.413  0.00  0.00    -0.032 A 
ATOM     18  C   UNL     1      -1.223   3.000   2.469  0.00  0.00    +0.005 A 
ATOM     19  C   UNL     1      -1.756   2.968   3.744  0.00  0.00    +0.002 A 
ATOM     20  C   UNL     1      -2.983   2.372   3.965  0.00  0.00    +0.020 A 
ATOM     21  C   UNL     1      -3.680   1.812   2.909  0.00  0.00    +0.041 A 
ATOM     22  C   UNL     1      -3.149   1.849   1.633  0.00  0.00    +0.024 A 
ATOM     23 CL   UNL     1      -5.222   1.063   3.187  0.00  0.00    -0.084 Cl
ENDBRANCH   9  17
BRANCH  11  24
ATOM     24  N   UNL     1       0.226   5.787  -0.771  0.00  0.00    -0.328 N 
ATOM     25  H   UNL     1       1.222   6.253  -0.762  0.00  0.00    +0.145 HD
ATOM     26  H   UNL     1      -0.650   6.368  -1.093  0.00  0.00    +0.145 HD
ENDBRANCH  11  24
BRANCH  10  27
ATOM     27  C   UNL     1      -2.288   4.688  -0.814  0.00  0.00    +0.101 C 
ATOM     28  N   UNL     1      -3.186   5.300  -1.147  0.00  0.00    -0.191 NA
ENDBRANCH  10  27
BRANCH  16  29
ATOM     29  C   UNL     1       1.552  -1.507  -1.673  0.00  0.00    +0.166 C 
BRANCH  29  30
ATOM     30  C   UNL     1       1.426  -0.971  -3.076  0.00  0.00    -0.028 A 
ATOM     31  C   UNL     1       0.182  -0.882  -3.672  0.00  0.00    +0.008 A 
ATOM     32  C   UNL     1       0.065  -0.386  -4.957  0.00  0.00    +0.038 A 
ATOM     33  C   UNL     1       1.195   0.013  -5.650  0.00  0.00    +0.123 A 
ATOM     34  C   UNL     1       2.441  -0.082  -5.054  0.00  0.00    +0.038 A 
ATOM     35  C   UNL     1       2.555  -0.574  -3.768  0.00  0.00    +0.008 A 
ATOM     36  F   UNL     1       1.082   0.493  -6.908  0.00  0.00    -0.205 F 
ENDBRANCH  29  30
ENDBRANCH  16  29
TORSDOF 5
