REMARK  Name = ZINC36574217
REMARK  12 active torsions:
REMARK  status: ('A' for Active; 'I' for Inactive)
REMARK    1  A    between atoms: C_1  and  C_2
REMARK    2  A    between atoms: C_2  and  C_3
REMARK    3  A    between atoms: C_3  and  N_4
REMARK    4  A    between atoms: N_4  and  C_5
REMARK    5  A    between atoms: C_5  and  C_7
REMARK    6  A    between atoms: C_5  and  C_14
REMARK    7  A    between atoms: C_12  and  C_13
REMARK    8  A    between atoms: N_16  and  C_17
REMARK    9  A    between atoms: C_17  and  S_18
REMARK   10  A    between atoms: S_18  and  C_21
REMARK   11  A    between atoms: C_24  and  C_27
REMARK   12  A    between atoms: C_28  and  C_30
REMARK                            x       y       z     vdW  Elec       q    Type
REMARK                         _______ _______ _______ _____ _____    ______ ____
ROOT
ATOM      1  C   UNL     1       1.877  -2.466   0.374  0.00  0.00    +0.192 C 
ENDROOT
BRANCH   1   2
ATOM      2  C   UNL     1       1.324  -3.448  -0.626  0.00  0.00    -0.015 A 
ATOM      3  C   UNL     1       0.009  -3.863  -0.533  0.00  0.00    +0.006 A 
ATOM      4  C   UNL     1      -0.498  -4.764  -1.451  0.00  0.00    +0.000 A 
ATOM      5  C   UNL     1       0.310  -5.250  -2.461  0.00  0.00    +0.000 A 
ATOM      6  C   UNL     1       1.625  -4.835  -2.554  0.00  0.00    +0.004 A 
ATOM      7  C   UNL     1       2.131  -3.931  -1.639  0.00  0.00    -0.045 A 
ATOM      8  C   UNL     1       3.563  -3.474  -1.744  0.00  0.00    +0.044 C 
ENDBRANCH   1   2
BRANCH   1   9
ATOM      9  C   UNL     1       2.434  -3.214   1.558  0.00  0.00    +0.239 C 
ATOM     10  O   UNL     1       2.006  -2.994   2.671  0.00  0.00    -0.273 OA
ATOM     11  N   UNL     1       3.409  -4.127   1.379  0.00  0.00    -0.294 N 
ATOM     12  H   UNL     1       3.803  -4.252   0.501  0.00  0.00    +0.150 HD
BRANCH  11  13
ATOM     13  C   UNL     1       3.875  -4.933   2.511  0.00  0.00    +0.278 C 
BRANCH  13  14
ATOM     14  S   UNL     1       2.991  -6.517   2.531  0.00  0.00    +0.013 S 
ATOM     15  O   UNL     1       3.476  -7.335   3.586  0.00  0.00    -0.168 OA
ATOM     16  O   UNL     1       1.596  -6.301   2.364  0.00  0.00    -0.168 OA
BRANCH  14  17
ATOM     17  C   UNL     1       3.499  -7.336   1.056  0.00  0.00    +0.090 A 
ATOM     18  C   UNL     1       2.790  -7.152  -0.117  0.00  0.00    +0.027 A 
ATOM     19  C   UNL     1       3.188  -7.795  -1.274  0.00  0.00    +0.005 A 
ATOM     20  C   UNL     1       4.295  -8.622  -1.258  0.00  0.00    -0.050 A 
ATOM     21  C   UNL     1       5.005  -8.806  -0.086  0.00  0.00    +0.005 A 
ATOM     22  C   UNL     1       4.609  -8.159   1.070  0.00  0.00    +0.027 A 
ATOM     23  C   UNL     1       4.729  -9.324  -2.519  0.00  0.00    +0.044 C 
ENDBRANCH  14  17
ENDBRANCH  13  14
ENDBRANCH  11  13
ENDBRANCH   1   9
BRANCH   1  24
ATOM     24  N   UNL     1       0.807  -1.571   0.822  0.00  0.00    -0.285 N 
ATOM     25  C   UNL     1      -0.188  -2.045   1.598  0.00  0.00    +0.231 C 
ATOM     26  O   UNL     1      -0.141  -3.183   2.015  0.00  0.00    -0.274 OA
BRANCH  25  27
ATOM     27  C   UNL     1      -1.357  -1.161   1.948  0.00  0.00    +0.204 C 
ATOM     28 CL   UNL     1      -2.511  -2.075   2.990  0.00  0.00    -0.116 Cl
ENDBRANCH  25  27
BRANCH  24  29
ATOM     29  C   UNL     1       0.819  -0.160   0.427  0.00  0.00    +0.108 C 
BRANCH  29  31
ATOM     30  C   UNL     1       0.070   1.480  -1.303  0.00  0.00    +0.005 C 
ATOM     31  C   UNL     1       0.058   0.006  -0.890  0.00  0.00    +0.016 C 
ENDBRANCH  29  31
ENDBRANCH  24  29
ENDBRANCH   1  24
TORSDOF 9
