REMARK  Name = ZINC11992241
REMARK  9 active torsions:
REMARK  status: ('A' for Active; 'I' for Inactive)
REMARK    1  A    between atoms: C_1  and  C_2
REMARK    2  A    between atoms: C_2  and  C_3
REMARK    3  A    between atoms: C_3  and  C_4
REMARK    4  A    between atoms: C_4  and  C_5
REMARK    5  A    between atoms: C_5  and  O_6
REMARK    6  A    between atoms: O_6  and  C_7
REMARK    7  A    between atoms: C_12  and  C_13
REMARK    8  A    between atoms: N_14  and  N_15
REMARK    9  A    between atoms: C_18  and  C_21
REMARK                            x       y       z     vdW  Elec       q    Type
REMARK                         _______ _______ _______ _____ _____    ______ ____
ROOT
ATOM      1  C   UNL     1      -2.846  -6.848  -0.008  0.00  0.00    +0.142 C 
ATOM      2  N   UNL     1      -1.694  -6.249  -0.015  0.00  0.00    -0.188 NA
ENDROOT
BRANCH   2   3
ATOM      3  N   UNL     1      -0.513  -7.003  -0.031  0.00  0.00    -0.215 N 
ATOM      4  C   UNL     1       0.716  -6.365  -0.039  0.00  0.00    +0.178 A 
ATOM      5  N   UNL     1       1.929  -6.887  -0.059  0.00  0.00    -0.224 NA
ATOM      6  C   UNL     1       3.008  -6.118  -0.064  0.00  0.00    +0.080 A 
ATOM      7  C   UNL     1       2.864  -4.759  -0.049  0.00  0.00    +0.077 A 
ATOM      8  S   UNL     1       1.081  -4.615  -0.034  0.00  0.00    -0.059 S 
ATOM      9  H   UNL     1      -0.556  -7.972  -0.036  0.00  0.00    +0.176 HD
BRANCH   6  10
ATOM     10  C   UNL     1       4.361  -6.727  -0.086  0.00  0.00    +0.001 A 
ATOM     11  C   UNL     1       5.493  -5.914  -0.085  0.00  0.00    +0.011 A 
ATOM     12  C   UNL     1       6.749  -6.485  -0.105  0.00  0.00    +0.020 A 
ATOM     13  C   UNL     1       6.886  -7.863  -0.126  0.00  0.00    +0.041 A 
ATOM     14  C   UNL     1       5.764  -8.674  -0.128  0.00  0.00    +0.020 A 
ATOM     15  C   UNL     1       4.503  -8.113  -0.102  0.00  0.00    +0.011 A 
ATOM     16 CL   UNL     1       8.469  -8.575  -0.151  0.00  0.00    -0.084 Cl
ENDBRANCH   6  10
ENDBRANCH   2   3
BRANCH   1  22
ATOM     17  C   UNL     1      -4.030  -4.655   0.015  0.00  0.00    +0.129 A 
ATOM     18  C   UNL     1      -5.204  -3.919   0.025  0.00  0.00    +0.046 A 
ATOM     19  C   UNL     1      -6.426  -4.564   0.033  0.00  0.00    +0.004 A 
ATOM     20  C   UNL     1      -6.488  -5.947   0.033  0.00  0.00    +0.001 A 
ATOM     21  C   UNL     1      -5.330  -6.695   0.024  0.00  0.00    +0.013 A 
ATOM     22  C   UNL     1      -4.088  -6.055   0.009  0.00  0.00    +0.036 A 
BRANCH  17  23
ATOM     23  O   UNL     1      -2.829  -4.022   0.007  0.00  0.00    -0.491 OA
BRANCH  23  24
ATOM     24  C   UNL     1      -2.848  -2.593   0.015  0.00  0.00    +0.229 C 
BRANCH  24  25
ATOM     25  C   UNL     1      -1.413  -2.063   0.004  0.00  0.00    +0.041 C 
BRANCH  25  26
ATOM     26  C   UNL     1      -1.433  -0.534   0.013  0.00  0.00    +0.003 C 
BRANCH  26  28
ATOM     27  C   UNL     1      -0.019   1.526   0.010  0.00  0.00    +0.004 C 
ATOM     28  C   UNL     1       0.002  -0.004   0.002  0.00  0.00    -0.003 C 
ENDBRANCH  26  28
ENDBRANCH  25  26
ENDBRANCH  24  25
ENDBRANCH  23  24
ENDBRANCH  17  23
ENDBRANCH   1  22
TORSDOF 8
