REMARK  Name = ZINC16005125
REMARK  7 active torsions:
REMARK  status: ('A' for Active; 'I' for Inactive)
REMARK    1  A    between atoms: C_3  and  O_27
REMARK    2  A    between atoms: C_6  and  N_7
REMARK    3  A    between atoms: C_8  and  C_10
REMARK    4  A    between atoms: C_10  and  C_11
REMARK    5  A    between atoms: C_11  and  N_12
REMARK    6  A    between atoms: N_15  and  C_16
REMARK    7  A    between atoms: O_27  and  C_28
REMARK                            x       y       z     vdW  Elec       q    Type
REMARK                         _______ _______ _______ _____ _____    ______ ____
ROOT
ATOM      1  C   UNL     1      -6.075   2.871  -0.243  0.00  0.00    +0.115 C 
ENDROOT
BRANCH   1   2
ATOM      2  N   UNL     1      -7.347   3.590  -0.338  0.00  0.00    -0.299 N 
ATOM      3  C   UNL     1      -8.504   2.905  -0.432  0.00  0.00    +0.300 C 
ATOM      4  O   UNL     1      -8.491   1.689  -0.438  0.00  0.00    -0.253 OA
ATOM      5  N   UNL     1      -9.675   3.567  -0.520  0.00  0.00    -0.294 N 
ATOM      6  H   UNL     1      -7.357   4.560  -0.334  0.00  0.00    +0.150 HD
ATOM      7  H   UNL     1      -9.685   4.537  -0.516  0.00  0.00    +0.151 HD
BRANCH   5   8
ATOM      8  C   UNL     1     -10.932   2.822  -0.622  0.00  0.00    +0.037 C 
ATOM      9  C   UNL     1     -10.906   1.948  -1.878  0.00  0.00    +0.029 C 
ATOM     10  C   UNL     1     -12.219   1.170  -1.984  0.00  0.00    -0.008 C 
ATOM     11  C   UNL     1     -13.389   2.152  -2.071  0.00  0.00    +0.007 C 
ATOM     12  C   UNL     1     -13.414   3.026  -0.815  0.00  0.00    -0.008 C 
ATOM     13  C   UNL     1     -12.101   3.804  -0.708  0.00  0.00    +0.029 C 
ATOM     14  C   UNL     1     -13.583   2.139   0.420  0.00  0.00    +0.007 C 
ATOM     15  C   UNL     1     -12.413   1.156   0.506  0.00  0.00    -0.008 C 
ATOM     16  C   UNL     1     -12.388   0.283  -0.749  0.00  0.00    +0.007 C 
ATOM     17  C   UNL     1     -11.101   1.935   0.613  0.00  0.00    +0.029 C 
ENDBRANCH   5   8
ENDBRANCH   1   2
BRANCH   1  18
ATOM     18  C   UNL     1      -4.926   3.877  -0.148  0.00  0.00    +0.115 C 
BRANCH  18  20
ATOM     19  N   UNL     1      -2.460   3.822   0.044  0.00  0.00    -0.285 N 
ATOM     20  C   UNL     1      -3.617   3.136  -0.050  0.00  0.00    +0.219 C 
ATOM     21  O   UNL     1      -3.604   1.923  -0.055  0.00  0.00    -0.275 OA
ATOM     22  H   UNL     1      -2.475   4.788   0.126  0.00  0.00    +0.155 HD
BRANCH  19  28
ATOM     23  C   UNL     1      -0.164   3.614   0.765  0.00  0.00    +0.027 A 
ATOM     24  C   UNL     1       1.043   2.942   0.742  0.00  0.00    +0.049 A 
ATOM     25  C   UNL     1       1.180   1.788  -0.014  0.00  0.00    +0.145 A 
ATOM     26  C   UNL     1       0.106   1.309  -0.752  0.00  0.00    +0.084 A 
ATOM     27  C   UNL     1      -1.100   1.982  -0.733  0.00  0.00    +0.047 A 
ATOM     28  C   UNL     1      -1.237   3.138   0.024  0.00  0.00    +0.035 A 
ATOM     29 CL   UNL     1       0.278  -0.137  -1.697  0.00  0.00    -0.080 Cl
BRANCH  25  30
ATOM     30  O   UNL     1       2.368   1.125  -0.033  0.00  0.00    -0.433 OA
BRANCH  30  31
ATOM     31  C   UNL     1       3.430   1.675   0.750  0.00  0.00    +0.541 C 
ATOM     32  F   UNL     1       3.715   2.970   0.304  0.00  0.00    -0.166 F 
ATOM     33  F   UNL     1       3.045   1.718   2.094  0.00  0.00    -0.166 F 
ENDBRANCH  30  31
ENDBRANCH  25  30
ENDBRANCH  19  28
ENDBRANCH  18  20
ENDBRANCH   1  18
TORSDOF 7
