REMARK  Name = ZINC67027346
REMARK  2 active torsions:
REMARK  status: ('A' for Active; 'I' for Inactive)
REMARK    1  A    between atoms: C_1  and  C_2
REMARK    2  A    between atoms: C_12  and  C_14
REMARK                            x       y       z     vdW  Elec       q    Type
REMARK                         _______ _______ _______ _____ _____    ______ ____
ROOT
ATOM      1  C   UNL     1       1.750   1.757   0.338  0.00  0.00    +0.045 C 
ATOM      2  C   UNL     1       2.235   0.336   0.460  0.00  0.00    -0.029 A 
ATOM      3  C   UNL     1       3.207  -0.138  -0.399  0.00  0.00    +0.008 A 
ATOM      4  C   UNL     1       3.652  -1.442  -0.287  0.00  0.00    +0.039 A 
ATOM      5  C   UNL     1       3.123  -2.275   0.684  0.00  0.00    +0.128 A 
ATOM      6  C   UNL     1       2.146  -1.806   1.549  0.00  0.00    +0.009 A 
ATOM      7  C   UNL     1       1.707  -0.496   1.441  0.00  0.00    +0.045 A 
ATOM      8  N   UNL     1       0.732   0.009   2.311  0.00  0.00    -0.267 N 
ATOM      9  C   UNL     1      -0.034  -0.931   3.141  0.00  0.00    +0.114 C 
ATOM     10  C   UNL     1       0.954  -1.942   3.737  0.00  0.00    +0.024 C 
ATOM     11  C   UNL     1       1.587  -2.740   2.591  0.00  0.00    +0.041 C 
ATOM     12  C   UNL     1       0.499   1.334   2.384  0.00  0.00    +0.254 C 
ATOM     13  O   UNL     1       0.103   1.937   1.406  0.00  0.00    -0.270 OA
ATOM     14  F   UNL     1       3.559  -3.549   0.788  0.00  0.00    -0.205 F 
ENDROOT
BRANCH  12  15
ATOM     15  C   UNL     1       0.727   2.054   3.652  0.00  0.00    +0.081 A 
ATOM     16  C   UNL     1       0.786   1.351   4.860  0.00  0.00    +0.017 A 
ATOM     17  C   UNL     1       0.999   2.025   6.042  0.00  0.00    +0.003 A 
ATOM     18  C   UNL     1       1.155   3.402   6.046  0.00  0.00    +0.027 A 
ATOM     19  C   UNL     1       1.099   4.112   4.859  0.00  0.00    +0.076 A 
ATOM     20  C   UNL     1       0.890   3.442   3.654  0.00  0.00    +0.154 A 
ATOM     21  O   UNL     1       0.840   4.147   2.496  0.00  0.00    -0.480 OA
ATOM     22  C   UNL     1       0.302   5.470   2.571  0.00  0.00    +0.325 C 
ATOM     23  C   UNL     1       0.907   6.197   3.746  0.00  0.00    +0.255 C 
ATOM     24  O   UNL     1       1.067   7.398   3.702  0.00  0.00    -0.272 OA
ATOM     25  N   UNL     1       1.257   5.505   4.849  0.00  0.00    -0.280 N 
ATOM     26  H   UNL     1       1.624   5.965   5.620  0.00  0.00    +0.155 HD
ENDBRANCH  12  15
TORSDOF 1
