REMARK  Name = ZINC02192823
REMARK  5 active torsions:
REMARK  status: ('A' for Active; 'I' for Inactive)
REMARK    1  A    between atoms: C_4  and  C_7
REMARK    2  A    between atoms: C_7  and  C_8
REMARK    3  A    between atoms: N_10  and  C_11
REMARK    4  A    between atoms: C_11  and  C_30
REMARK    5  A    between atoms: N_17  and  C_22
REMARK                            x       y       z     vdW  Elec       q    Type
REMARK                         _______ _______ _______ _____ _____    ______ ____
ROOT
ATOM      1  C   UNL     1       6.605  -1.364   4.203  0.00  0.00    +0.240 C 
ATOM      2  C   UNL     1       7.402  -2.465   3.544  0.00  0.00    +0.097 A 
ATOM      3  C   UNL     1       8.296  -2.487   2.466  0.00  0.00    +0.262 A 
ATOM      4  N   UNL     1       8.864  -3.656   2.103  0.00  0.00    -0.274 N 
ATOM      5  C   UNL     1       8.572  -4.786   2.772  0.00  0.00    +0.335 A 
ATOM      6  O   UNL     1       9.094  -5.831   2.432  0.00  0.00    -0.246 OA
ATOM      7  N   UNL     1       7.717  -4.785   3.809  0.00  0.00    -0.249 N 
ATOM      8  C   UNL     1       7.111  -3.614   4.218  0.00  0.00    +0.125 A 
ATOM      9  N   UNL     1       6.218  -3.375   5.234  0.00  0.00    -0.269 N 
ATOM     10  C   UNL     1       5.858  -2.082   5.309  0.00  0.00    +0.256 C 
ATOM     11  O   UNL     1       5.088  -1.587   6.105  0.00  0.00    -0.272 OA
ATOM     12  O   UNL     1       8.558  -1.462   1.862  0.00  0.00    -0.267 OA
ATOM     13  H   UNL     1       5.883  -4.063   5.831  0.00  0.00    +0.156 HD
ATOM     14  H   UNL     1       9.484  -3.682   1.358  0.00  0.00    +0.173 HD
ENDROOT
BRANCH   7  15
ATOM     15  C   UNL     1       7.439  -5.983   4.482  0.00  0.00    +0.053 A 
ATOM     16  C   UNL     1       8.211  -6.366   5.570  0.00  0.00    +0.029 A 
ATOM     17  C   UNL     1       7.935  -7.547   6.231  0.00  0.00    +0.040 A 
ATOM     18  C   UNL     1       6.888  -8.349   5.809  0.00  0.00    +0.124 A 
ATOM     19  C   UNL     1       6.116  -7.969   4.724  0.00  0.00    +0.040 A 
ATOM     20  C   UNL     1       6.386  -6.786   4.064  0.00  0.00    +0.029 A 
ATOM     21  F   UNL     1       6.620  -9.503   6.457  0.00  0.00    -0.205 F 
ENDBRANCH   7  15
BRANCH   1  24
ATOM     22  C   UNL     1       4.796   0.177   3.664  0.00  0.00    +0.219 C 
ATOM     23  O   UNL     1       4.790   0.529   4.824  0.00  0.00    -0.275 OA
ATOM     24  N   UNL     1       5.667  -0.766   3.251  0.00  0.00    -0.290 N 
ATOM     25  H   UNL     1       5.672  -1.048   2.322  0.00  0.00    +0.150 HD
BRANCH  22  26
ATOM     26  C   UNL     1       3.831   0.792   2.684  0.00  0.00    +0.131 C 
BRANCH  26  30
ATOM     27  C   UNL     1       1.403   3.676   4.693  0.00  0.00    +0.000 A 
ATOM     28  C   UNL     1       2.598   4.061   4.114  0.00  0.00    +0.000 A 
ATOM     29  C   UNL     1       3.384   3.128   3.464  0.00  0.00    +0.004 A 
ATOM     30  C   UNL     1       2.975   1.809   3.393  0.00  0.00    -0.039 A 
ATOM     31  C   UNL     1       1.780   1.424   3.973  0.00  0.00    +0.004 A 
ATOM     32  C   UNL     1       0.994   2.358   4.622  0.00  0.00    +0.000 A 
ENDBRANCH  26  30
ENDBRANCH  22  26
ENDBRANCH   1  24
BRANCH   1  33
ATOM     33  C   UNL     1       7.534  -0.296   4.785  0.00  0.00    +0.424 C 
ATOM     34  F   UNL     1       6.771   0.682   5.432  0.00  0.00    -0.167 F 
ATOM     35  F   UNL     1       8.408  -0.889   5.702  0.00  0.00    -0.167 F 
ATOM     36  F   UNL     1       8.270   0.294   3.752  0.00  0.00    -0.167 F 
ENDBRANCH   1  33
TORSDOF 5
