REMARK  Name = ZINC10228756
REMARK  7 active torsions:
REMARK  status: ('A' for Active; 'I' for Inactive)
REMARK    1  A    between atoms: C_1  and  C_2
REMARK    2  A    between atoms: C_2  and  C_4
REMARK    3  A    between atoms: C_2  and  N_46
REMARK    4  A    between atoms: C_11  and  N_46
REMARK    5  A    between atoms: C_12  and  C_13
REMARK    6  A    between atoms: C_12  and  N_46
REMARK    7  A    between atoms: N_15  and  C_16
REMARK                            x       y       z     vdW  Elec       q    Type
REMARK                         _______ _______ _______ _____ _____    ______ ____
ROOT
ATOM      1  C   UNL     1       0.085  -0.000  -0.009  0.00  0.00    +0.201 C 
ATOM      2  O   UNL     1      -0.912  -0.685   0.083  0.00  0.00    -0.278 OA
ATOM      3  N   UNL     1      -0.016   1.344   0.009  0.00  0.00    -0.286 N 
ATOM      4  H   UNL     1       0.785   1.890   0.014  0.00  0.00    +0.155 HD
ENDROOT
BRANCH   3   5
ATOM      5  C   UNL     1      -1.279   1.951   0.016  0.00  0.00    +0.051 A 
ATOM      6  C   UNL     1      -2.377   1.276  -0.501  0.00  0.00    +0.073 A 
ATOM      7  C   UNL     1      -3.626   1.877  -0.495  0.00  0.00    +0.164 A 
ATOM      8  C   UNL     1      -3.778   3.155   0.031  0.00  0.00    +0.163 A 
ATOM      9  C   UNL     1      -2.679   3.827   0.545  0.00  0.00    +0.066 A 
ATOM     10  C   UNL     1      -1.434   3.226   0.543  0.00  0.00    +0.043 A 
ATOM     11 BR   UNL     1       0.059   4.143   1.254  0.00  0.00    -0.048 Br
ATOM     12  O   UNL     1      -4.998   3.760   0.050  0.00  0.00    -0.485 OA
ATOM     13  C   UNL     1      -6.001   3.211  -0.812  0.00  0.00    +0.270 C 
ATOM     14  C   UNL     1      -5.991   1.685  -0.649  0.00  0.00    +0.270 C 
ATOM     15  O   UNL     1      -4.692   1.204  -1.009  0.00  0.00    -0.485 OA
ENDBRANCH   3   5
BRANCH   1  16
ATOM     16  C   UNL     1       1.437  -0.652  -0.144  0.00  0.00    +0.019 C 
BRANCH  16  18
ATOM     17  C   UNL     1       0.792  -2.584   1.166  0.00  0.00    -0.095 C 
ATOM     18  N   UNL     1       1.260  -2.119  -0.157  0.00  0.00    +0.388 N 
ATOM     19  H   UNL     1       0.556  -2.364  -0.864  0.00  0.00    -0.081 HD
BRANCH  18  21
ATOM     20  C   UNL     1       2.960  -2.338  -1.905  0.00  0.00    -0.008 C 
ATOM     21  C   UNL     1       2.537  -2.780  -0.502  0.00  0.00    -0.041 C 
BRANCH  21  22
ATOM     22  C   UNL     1       2.336  -4.273  -0.485  0.00  0.00    -0.061 A 
ATOM     23  C   UNL     1       1.161  -4.818  -0.969  0.00  0.00    +0.005 A 
ATOM     24  C   UNL     1       0.979  -6.188  -0.959  0.00  0.00    +0.038 A 
ATOM     25  C   UNL     1       1.968  -7.014  -0.454  0.00  0.00    +0.123 A 
ATOM     26  C   UNL     1       3.143  -6.467   0.035  0.00  0.00    +0.038 A 
ATOM     27  C   UNL     1       3.325  -5.097   0.019  0.00  0.00    +0.005 A 
ATOM     28  F   UNL     1       1.788  -8.353  -0.438  0.00  0.00    -0.205 F 
ENDBRANCH  21  22
ENDBRANCH  18  21
ENDBRANCH  16  18
ENDBRANCH   1  16
TORSDOF 5
