REMARK  Name = ZINC39291647
REMARK  5 active torsions:
REMARK  status: ('A' for Active; 'I' for Inactive)
REMARK    1  A    between atoms: C_1  and  C_2
REMARK    2  A    between atoms: C_5  and  C_23
REMARK    3  A    between atoms: C_6  and  C_8
REMARK    4  A    between atoms: C_8  and  C_17
REMARK    5  A    between atoms: N_9  and  C_10
REMARK                            x       y       z     vdW  Elec       q    Type
REMARK                         _______ _______ _______ _____ _____    ______ ____
ROOT
ATOM      1  C   UNL     1       0.218  -2.826   2.490  0.00  0.00    +0.079 C 
ATOM      2  N   UNL     1       0.146  -4.134   2.543  0.00  0.00    -0.247 NA
ENDROOT
BRANCH   1   8
ATOM      3  C   UNL     1       3.702  -1.946  -0.972  0.00  0.00    +0.044 C 
ATOM      4  C   UNL     1       2.313  -1.731  -0.428  0.00  0.00    -0.050 A 
ATOM      5  C   UNL     1       1.428  -0.906  -1.101  0.00  0.00    +0.003 A 
ATOM      6  C   UNL     1       0.151  -0.704  -0.609  0.00  0.00    +0.004 A 
ATOM      7  C   UNL     1      -0.249  -1.325   0.557  0.00  0.00    -0.041 A 
ATOM      8  C   UNL     1       0.639  -2.158   1.240  0.00  0.00    +0.004 A 
ATOM      9  C   UNL     1       1.925  -2.361   0.735  0.00  0.00    +0.013 A 
ATOM     10  C   UNL     1      -1.640  -1.103   1.092  0.00  0.00    +0.044 C 
ENDBRANCH   1   8
BRANCH   2  11
ATOM     11  C   UNL     1       0.348  -4.874   1.414  0.00  0.00    +0.065 A 
ATOM     12  C   UNL     1      -0.350  -4.571   0.241  0.00  0.00    +0.029 A 
ATOM     13  C   UNL     1      -0.141  -5.323  -0.896  0.00  0.00    +0.022 A 
ATOM     14  C   UNL     1       0.758  -6.377  -0.878  0.00  0.00    +0.041 A 
ATOM     15  C   UNL     1       1.453  -6.683   0.281  0.00  0.00    +0.022 A 
ATOM     16  C   UNL     1       1.258  -5.936   1.423  0.00  0.00    +0.029 A 
ATOM     17 CL   UNL     1       1.015  -7.318  -2.313  0.00  0.00    -0.084 Cl
ENDBRANCH   2  11
BRANCH   1  18
ATOM     18  C   UNL     1      -0.124  -2.018   3.682  0.00  0.00    +0.004 A 
ATOM     19  C   UNL     1       0.100  -0.636   3.703  0.00  0.00    +0.030 A 
ATOM     20  C   UNL     1      -0.233   0.078   4.836  0.00  0.00    +0.111 A 
ATOM     21  N   UNL     1      -0.755  -0.523   5.887  0.00  0.00    -0.263 NA
ATOM     22  C   UNL     1      -0.983  -1.822   5.909  0.00  0.00    +0.111 A 
ATOM     23  C   UNL     1      -0.685  -2.613   4.818  0.00  0.00    +0.030 A 
ENDBRANCH   1  18
TORSDOF 3
