REMARK  Name = ZINC06462098
REMARK  16 active torsions:
REMARK  status: ('A' for Active; 'I' for Inactive)
REMARK    1  A    between atoms: C_1  and  C_2
REMARK    2  A    between atoms: C_2  and  C_3
REMARK    3  A    between atoms: C_3  and  C_4
REMARK    4  A    between atoms: C_3  and  C_5
REMARK    5  A    between atoms: C_3  and  N_6
REMARK    6  A    between atoms: C_7  and  C_9
REMARK    7  A    between atoms: C_9  and  C_11
REMARK    8  A    between atoms: C_9  and  N_20
REMARK    9  A    between atoms: C_14  and  O_17
REMARK   10  A    between atoms: O_17  and  C_18
REMARK   11  A    between atoms: C_18  and  C_19
REMARK   12  A    between atoms: N_20  and  C_21
REMARK   13  A    between atoms: C_21  and  C_22
REMARK   14  A    between atoms: C_27  and  C_29
REMARK   15  A    between atoms: C_30  and  N_37
REMARK   16  A    between atoms: C_31  and  C_34
REMARK                            x       y       z     vdW  Elec       q    Type
REMARK                         _______ _______ _______ _____ _____    ______ ____
ROOT
ATOM      1  N   UNL     1      -2.822   1.101   0.165  0.00  0.00    -0.277 N 
ATOM      2  C   UNL     1      -4.141   1.374   0.186  0.00  0.00    +0.258 C 
ATOM      3  O   UNL     1      -4.523   2.529   0.240  0.00  0.00    -0.269 OA
ENDROOT
BRANCH   2   4
ATOM      4  C   UNL     1      -5.116   0.282   0.144  0.00  0.00    +0.115 A 
ATOM      5  C   UNL     1      -6.508   0.334   0.240  0.00  0.00    +0.076 A 
ATOM      6  C   UNL     1      -7.096  -0.928   0.157  0.00  0.00    +0.155 A 
ATOM      7  N   UNL     1      -6.331  -1.986   0.004  0.00  0.00    -0.203 NA
ATOM      8  S   UNL     1      -4.844  -1.467  -0.052  0.00  0.00    +0.019 S 
BRANCH   6   9
ATOM      9  C   UNL     1      -8.561  -1.074   0.239  0.00  0.00    +0.262 C 
ATOM     10  O   UNL     1      -9.263  -0.091   0.381  0.00  0.00    -0.269 OA
ATOM     11  N   UNL     1      -9.122  -2.297   0.157  0.00  0.00    -0.324 N 
ATOM     12  H   UNL     1      -8.562  -3.081   0.044  0.00  0.00    +0.145 HD
ATOM     13  H   UNL     1     -10.086  -2.393   0.212  0.00  0.00    +0.145 HD
ENDBRANCH   6   9
BRANCH   5  14
ATOM     14  N   UNL     1      -7.226   1.511   0.403  0.00  0.00    -0.355 N 
ATOM     15  H   UNL     1      -6.761   2.360   0.455  0.00  0.00    +0.142 HD
ATOM     16  H   UNL     1      -8.194   1.484   0.463  0.00  0.00    +0.142 HD
ENDBRANCH   5  14
ENDBRANCH   2   4
BRANCH   1  17
ATOM     17  C   UNL     1      -1.850   2.191   0.051  0.00  0.00    +0.193 C 
BRANCH  17  18
ATOM     18  C   UNL     1      -1.950   2.812  -1.319  0.00  0.00    -0.018 A 
ATOM     19  C   UNL     1      -2.083   2.006  -2.434  0.00  0.00    +0.009 A 
ATOM     20  C   UNL     1      -2.181   2.573  -3.690  0.00  0.00    +0.046 A 
ATOM     21  C   UNL     1      -2.134   3.953  -3.833  0.00  0.00    +0.121 A 
ATOM     22  C   UNL     1      -1.994   4.759  -2.712  0.00  0.00    +0.046 A 
ATOM     23  C   UNL     1      -1.903   4.187  -1.458  0.00  0.00    +0.009 A 
BRANCH  21  24
ATOM     24  O   UNL     1      -2.223   4.513  -5.067  0.00  0.00    -0.492 OA
BRANCH  24  25
ATOM     25  C   UNL     1      -2.365   3.621  -6.176  0.00  0.00    +0.225 C 
ATOM     26  C   UNL     1      -2.450   4.429  -7.472  0.00  0.00    +0.048 C 
ENDBRANCH  24  25
ENDBRANCH  21  24
ENDBRANCH  17  18
BRANCH  17  28
ATOM     27  N   UNL     1       0.591   2.237  -0.351  0.00  0.00    -0.308 N 
ATOM     28  C   UNL     1      -0.459   1.647   0.255  0.00  0.00    +0.239 C 
ATOM     29  O   UNL     1      -0.285   0.676   0.960  0.00  0.00    -0.273 OA
ATOM     30  H   UNL     1       0.452   3.014  -0.915  0.00  0.00    +0.149 HD
BRANCH  27  31
ATOM     31  C   UNL     1       1.942   1.705  -0.157  0.00  0.00    +0.029 C 
ATOM     32  C   UNL     1       2.300   1.751   1.330  0.00  0.00    +0.031 C 
ATOM     33  C   UNL     1       1.996   0.258  -0.650  0.00  0.00    +0.031 C 
BRANCH  31  35
ATOM     34  C   UNL     1       4.353   1.996  -0.746  0.00  0.00    +0.006 C 
ATOM     35  C   UNL     1       2.942   2.551  -0.948  0.00  0.00    +0.022 C 
ENDBRANCH  31  35
ENDBRANCH  27  31
ENDBRANCH  17  28
ENDBRANCH   1  17
BRANCH   1  36
ATOM     36  C   UNL     1      -2.359  -0.286   0.256  0.00  0.00    +0.151 C 
BRANCH  36  37
ATOM     37  C   UNL     1      -2.409  -0.739   1.692  0.00  0.00    +0.007 A 
ATOM     38  C   UNL     1      -3.464  -1.202   2.405  0.00  0.00    +0.013 A 
ATOM     39  C   UNL     1      -3.274  -1.565   3.726  0.00  0.00    +0.008 A 
ATOM     40  C   UNL     1      -2.037  -1.446   4.268  0.00  0.00    +0.045 A 
ATOM     41  S   UNL     1      -1.091  -0.811   2.894  0.00  0.00    -0.100 S 
ENDBRANCH  36  37
ENDBRANCH   1  36
TORSDOF 12
