REMARK  Name = ZINC01877050
REMARK  6 active torsions:
REMARK  status: ('A' for Active; 'I' for Inactive)
REMARK    1  A    between atoms: C_16  and  S_26
REMARK    2  A    between atoms: N_17  and  C_20
REMARK    3  A    between atoms: C_20  and  C_21
REMARK    4  A    between atoms: S_26  and  C_27
REMARK    5  A    between atoms: C_27  and  C_28
REMARK    6  A    between atoms: N_30  and  C_31
REMARK                            x       y       z     vdW  Elec       q    Type
REMARK                         _______ _______ _______ _____ _____    ______ ____
ROOT
ATOM      1  C   UNL     1      -0.010   1.393  -0.047  0.00  0.00    +0.000 A 
ATOM      2  C   UNL     1       1.176   2.107  -0.046  0.00  0.00    +0.001 A 
ATOM      3  C   UNL     1       2.384   1.440  -0.063  0.00  0.00    +0.010 A 
ATOM      4  C   UNL     1       2.405   0.048  -0.087  0.00  0.00    +0.004 A 
ATOM      5  C   UNL     1       1.208  -0.668  -0.063  0.00  0.00    -0.037 A 
ATOM      6  C   UNL     1       0.006   0.010  -0.053  0.00  0.00    +0.004 A 
ATOM      7  C   UNL     1       1.230  -2.173  -0.017  0.00  0.00    +0.047 C 
ATOM      8  C   UNL     1       2.397  -2.719  -0.831  0.00  0.00    +0.007 C 
ATOM      9  C   UNL     1       2.120  -2.531  -2.331  0.00  0.00    +0.012 C 
ATOM     10  C   UNL     1       2.098  -3.943  -2.954  0.00  0.00    +0.001 C 
ATOM     11  C   UNL     1       1.753  -4.877  -1.767  0.00  0.00    +0.001 C 
ATOM     12  C   UNL     1       2.531  -4.236  -0.590  0.00  0.00    +0.012 C 
ATOM     13  C   UNL     1       3.682  -2.036  -0.461  0.00  0.00    +0.050 A 
ATOM     14  C   UNL     1       3.687  -0.692  -0.118  0.00  0.00    +0.083 A 
ATOM     15  N   UNL     1       4.840  -0.085   0.181  0.00  0.00    -0.223 NA
ATOM     16  C   UNL     1       5.978  -0.751   0.180  0.00  0.00    +0.173 A 
ATOM     17  N   UNL     1       6.024  -2.077  -0.127  0.00  0.00    -0.280 N 
ATOM     18  C   UNL     1       4.894  -2.739  -0.457  0.00  0.00    +0.259 A 
ATOM     19  O   UNL     1       4.927  -3.924  -0.744  0.00  0.00    -0.267 OA
ENDROOT
BRANCH  17  20
ATOM     20  C   UNL     1       7.305  -2.788  -0.100  0.00  0.00    +0.201 C 
BRANCH  20  21
ATOM     21  C   UNL     1       7.535  -3.356   1.277  0.00  0.00    +0.125 A 
ATOM     22  C   UNL     1       7.155  -4.575   1.699  0.00  0.00    +0.046 A 
ATOM     23  C   UNL     1       7.570  -4.690   3.046  0.00  0.00    +0.041 A 
ATOM     24  C   UNL     1       8.179  -3.534   3.366  0.00  0.00    +0.195 A 
ATOM     25  O   UNL     1       8.160  -2.732   2.289  0.00  0.00    -0.466 OA
ENDBRANCH  20  21
ENDBRANCH  17  20
BRANCH  16  26
ATOM     26  S   UNL     1       7.471   0.093   0.584  0.00  0.00    -0.078 S 
BRANCH  26  27
ATOM     27  C   UNL     1       6.937   1.795   0.913  0.00  0.00    +0.173 C 
BRANCH  27  28
ATOM     28  C   UNL     1       8.135   2.635   1.276  0.00  0.00    +0.227 C 
ATOM     29  O   UNL     1       9.239   2.135   1.309  0.00  0.00    -0.275 OA
ATOM     30  N   UNL     1       7.978   3.943   1.563  0.00  0.00    -0.285 N 
ATOM     31  H   UNL     1       7.107   4.359   1.472  0.00  0.00    +0.155 HD
BRANCH  30  32
ATOM     32  C   UNL     1       9.073   4.701   1.994  0.00  0.00    +0.033 A 
ATOM     33  C   UNL     1       8.897   5.706   2.936  0.00  0.00    +0.024 A 
ATOM     34  C   UNL     1       9.979   6.452   3.359  0.00  0.00    +0.017 A 
ATOM     35  C   UNL     1      11.239   6.198   2.846  0.00  0.00    +0.018 A 
ATOM     36  C   UNL     1      11.418   5.197   1.908  0.00  0.00    +0.017 A 
ATOM     37  C   UNL     1      10.340   4.445   1.485  0.00  0.00    +0.024 A 
ATOM     38 BR   UNL     1      12.719   7.222   3.428  0.00  0.00    -0.050 Br
ENDBRANCH  30  32
ENDBRANCH  27  28
ENDBRANCH  26  27
ENDBRANCH  16  26
TORSDOF 6
