REMARK  Name = ZINC12376543
REMARK  11 active torsions:
REMARK  status: ('A' for Active; 'I' for Inactive)
REMARK    1  A    between atoms: C_4  and  C_7
REMARK    2  A    between atoms: C_7  and  O_8
REMARK    3  A    between atoms: O_8  and  C_9
REMARK    4  A    between atoms: C_14  and  C_15
REMARK    5  A    between atoms: C_16  and  C_17
REMARK    6  A    between atoms: C_16  and  C_19
REMARK    7  A    between atoms: C_20  and  C_28
REMARK    8  A    between atoms: C_21  and  N_27
REMARK    9  A    between atoms: N_22  and  C_24
REMARK   10  A    between atoms: C_24  and  C_25
REMARK   11  A    between atoms: C_25  and  O_26
REMARK                            x       y       z     vdW  Elec       q    Type
REMARK                         _______ _______ _______ _____ _____    ______ ____
ROOT
ATOM      1  C   UNL     1       4.960  -1.407  -4.046  0.00  0.00    +0.032 C 
ATOM      2  C   UNL     1       5.089  -2.051  -5.239  0.00  0.00    +0.081 C 
ENDROOT
BRANCH   1   8
ATOM      3  C   UNL     1       5.255  -1.728  -1.595  0.00  0.00    +0.128 A 
ATOM      4  C   UNL     1       6.035  -2.117  -0.518  0.00  0.00    +0.047 A 
ATOM      5  C   UNL     1       7.312  -2.603  -0.725  0.00  0.00    +0.019 A 
ATOM      6  C   UNL     1       7.828  -2.696  -2.008  0.00  0.00    +0.019 A 
ATOM      7  C   UNL     1       7.071  -2.309  -3.093  0.00  0.00    +0.026 A 
ATOM      8  C   UNL     1       5.773  -1.820  -2.898  0.00  0.00    +0.019 A 
ATOM      9 BR   UNL     1       9.580  -3.357  -2.272  0.00  0.00    -0.050 Br
BRANCH   3  10
ATOM     10  O   UNL     1       3.999  -1.256  -1.392  0.00  0.00    -0.487 OA
BRANCH  10  11
ATOM     11  C   UNL     1       3.541  -1.191  -0.040  0.00  0.00    +0.264 C 
BRANCH  11  15
ATOM     12  C   UNL     1      -0.441   0.353   0.041  0.00  0.00    +0.000 A 
ATOM     13  C   UNL     1       0.636   1.215   0.122  0.00  0.00    +0.000 A 
ATOM     14  C   UNL     1       1.925   0.716   0.096  0.00  0.00    +0.007 A 
ATOM     15  C   UNL     1       2.136  -0.646  -0.012  0.00  0.00    -0.010 A 
ATOM     16  C   UNL     1       1.058  -1.508  -0.092  0.00  0.00    +0.007 A 
ATOM     17  C   UNL     1      -0.230  -1.009  -0.066  0.00  0.00    +0.000 A 
ENDBRANCH  11  15
ENDBRANCH  10  11
ENDBRANCH   3  10
ENDBRANCH   1   8
BRANCH   2  18
ATOM     18  C   UNL     1       4.382  -1.542  -6.435  0.00  0.00    +0.122 A 
ATOM     19  C   UNL     1       4.425  -2.118  -7.785  0.00  0.00    +0.119 A 
ATOM     20  C   UNL     1       3.612  -1.313  -8.577  0.00  0.00    +0.133 A 
ATOM     21  N   UNL     1       3.123  -0.331  -7.794  0.00  0.00    -0.247 N 
ATOM     22  N   UNL     1       3.602  -0.485  -6.491  0.00  0.00    -0.167 NA
BRANCH  20  23
ATOM     23  N   UNL     1       3.357  -1.486  -9.924  0.00  0.00    -0.342 N 
ATOM     24  H   UNL     1       2.776  -0.866 -10.391  0.00  0.00    +0.144 HD
ATOM     25  H   UNL     1       3.759  -2.228 -10.402  0.00  0.00    +0.144 HD
ENDBRANCH  20  23
BRANCH  19  26
ATOM     26  C   UNL     1       5.155  -3.277  -8.202  0.00  0.00    +0.105 C 
ATOM     27  N   UNL     1       5.734  -4.197  -8.533  0.00  0.00    -0.191 NA
ENDBRANCH  19  26
BRANCH  21  28
ATOM     28  C   UNL     1       2.224   0.736  -8.241  0.00  0.00    +0.173 C 
BRANCH  28  29
ATOM     29  C   UNL     1       3.051   1.932  -8.719  0.00  0.00    +0.179 C 
BRANCH  29  30
ATOM     30  O   UNL     1       2.175   2.973  -9.156  0.00  0.00    -0.393 OA
ATOM     31  H   UNL     1       2.631   3.764  -9.473  0.00  0.00    +0.209 HD
ENDBRANCH  29  30
ENDBRANCH  28  29
ENDBRANCH  21  28
ENDBRANCH   2  18
BRANCH   2  32
ATOM     32  C   UNL     1       5.908  -3.221  -5.336  0.00  0.00    +0.101 C 
ATOM     33  N   UNL     1       6.559  -4.149  -5.413  0.00  0.00    -0.191 NA
ENDBRANCH   2  32
TORSDOF 11
