REMARK  Name = ZINC44216227
REMARK  11 active torsions:
REMARK  status: ('A' for Active; 'I' for Inactive)
REMARK    1  A    between atoms: C_1  and  C_2
REMARK    2  A    between atoms: C_4  and  C_20
REMARK    3  A    between atoms: C_6  and  C_7
REMARK    4  A    between atoms: C_8  and  C_19
REMARK    5  A    between atoms: C_10  and  C_12
REMARK    6  A    between atoms: C_12  and  C_14
REMARK    7  A    between atoms: C_12  and  N_18
REMARK    8  A    between atoms: C_14  and  C_15
REMARK    9  A    between atoms: C_20  and  C_22
REMARK   10  A    between atoms: C_20  and  N_26
REMARK   11  A    between atoms: C_22  and  C_23
REMARK                            x       y       z     vdW  Elec       q    Type
REMARK                         _______ _______ _______ _____ _____    ______ ____
ROOT
ATOM      1  C   UNL     1      -0.018   1.503   0.010  0.00  0.00    +0.045 C 
ATOM      2  C   UNL     1       0.002  -0.004   0.002  0.00  0.00    -0.035 A 
ATOM      3  C   UNL     1       0.006  -0.700  -1.187  0.00  0.00    +0.013 A 
ATOM      4  C   UNL     1       0.025  -2.057  -1.159  0.00  0.00    -0.023 A 
ATOM      5  S   UNL     1       0.037  -2.397   0.593  0.00  0.00    -0.094 S 
ATOM      6  C   UNL     1       0.023  -0.710   1.178  0.00  0.00    +0.029 A 
ENDROOT
BRANCH   6   7
ATOM      7  C   UNL     1       0.029  -0.207   2.562  0.00  0.00    +0.029 A 
ATOM      8  C   UNL     1       0.055  -0.913   3.738  0.00  0.00    -0.035 A 
ATOM      9  C   UNL     1       0.056  -0.217   4.927  0.00  0.00    +0.013 A 
ATOM     10  C   UNL     1       0.030   1.140   4.899  0.00  0.00    -0.023 A 
ATOM     11  S   UNL     1       0.012   1.480   3.147  0.00  0.00    -0.094 S 
ATOM     12  C   UNL     1       0.083  -2.420   3.729  0.00  0.00    +0.045 C 
BRANCH  10  13
ATOM     13  C   UNL     1       0.025   2.111   6.052  0.00  0.00    -0.027 C 
BRANCH  13  14
ATOM     14  N   UNL     1      -0.889   3.221   5.753  0.00  0.00    +0.383 N 
ATOM     15  H   UNL     1      -0.893   3.871   6.524  0.00  0.00    -0.089 HD
ATOM     16  H   UNL     1      -0.582   3.694   4.916  0.00  0.00    -0.089 HD
ATOM     17  H   UNL     1      -1.821   2.861   5.612  0.00  0.00    -0.089 HD
ENDBRANCH  13  14
BRANCH  13  18
ATOM     18  C   UNL     1       1.438   2.657   6.265  0.00  0.00    +0.114 C 
BRANCH  18  19
ATOM     19  C   UNL     1       1.458   3.532   7.492  0.00  0.00    +0.355 C 
ATOM     20  O   UNL     1       0.437   3.703   8.136  0.00  0.00    -0.246 OA
ATOM     21  O   UNL     1       2.496   4.069   7.840  0.00  0.00    -0.246 OA
ENDBRANCH  18  19
ENDBRANCH  13  18
ENDBRANCH  10  13
ENDBRANCH   6   7
BRANCH   4  22
ATOM     22  C   UNL     1       0.032  -3.028  -2.312  0.00  0.00    -0.027 C 
BRANCH  22  23
ATOM     23  N   UNL     1      -0.841  -4.167  -1.999  0.00  0.00    +0.383 N 
ATOM     24  H   UNL     1      -0.506  -4.630  -1.167  0.00  0.00    -0.089 HD
ATOM     25  H   UNL     1      -1.782  -3.837  -1.843  0.00  0.00    -0.089 HD
ATOM     26  H   UNL     1      -0.837  -4.817  -2.770  0.00  0.00    -0.089 HD
ENDBRANCH  22  23
BRANCH  22  27
ATOM     27  C   UNL     1       1.458  -3.529  -2.548  0.00  0.00    +0.114 C 
BRANCH  27  28
ATOM     28  C   UNL     1       1.487  -4.403  -3.775  0.00  0.00    +0.355 C 
ATOM     29  O   UNL     1       0.462  -4.606  -4.403  0.00  0.00    -0.246 OA
ATOM     30  O   UNL     1       2.536  -4.907  -4.140  0.00  0.00    -0.246 OA
ENDBRANCH  27  28
ENDBRANCH  22  27
ENDBRANCH   4  22
TORSDOF 9
