REMARK  Name = ZINC13423714
REMARK  6 active torsions:
REMARK  status: ('A' for Active; 'I' for Inactive)
REMARK    1  A    between atoms: C_2  and  C_22
REMARK    2  A    between atoms: C_5  and  O_8
REMARK    3  A    between atoms: O_8  and  C_9
REMARK    4  A    between atoms: C_9  and  C_10
REMARK    5  A    between atoms: N_15  and  C_16
REMARK    6  A    between atoms: C_16  and  C_17
REMARK                            x       y       z     vdW  Elec       q    Type
REMARK                         _______ _______ _______ _____ _____    ______ ____
ROOT
ATOM      1  C   UNL     1      -0.018   1.503   0.010  0.00  0.00    +0.325 C 
ENDROOT
BRANCH   1   2
ATOM      2  C   UNL     1       0.002  -0.004   0.002  0.00  0.00    +0.258 C 
ATOM      3  O   UNL     1      -0.506  -0.622   0.913  0.00  0.00    -0.272 OA
ATOM      4  N   UNL     1       0.585  -0.664  -1.018  0.00  0.00    -0.237 N 
ATOM      5  C   UNL     1       0.603  -2.012  -1.025  0.00  0.00    +0.306 C 
ATOM      6  O   UNL     1       0.094  -2.632  -0.112  0.00  0.00    -0.252 OA
ATOM      7  N   UNL     1       1.186  -2.673  -2.045  0.00  0.00    -0.290 N 
ATOM      8  H   UNL     1       0.992  -0.170  -1.747  0.00  0.00    +0.159 HD
ATOM      9  H   UNL     1       1.593  -2.178  -2.774  0.00  0.00    +0.151 HD
BRANCH   7  10
ATOM     10  C   UNL     1       1.206  -4.137  -2.053  0.00  0.00    +0.219 C 
BRANCH  10  11
ATOM     11  C   UNL     1       1.922  -4.631  -3.312  0.00  0.00    +0.405 C 
ATOM     12  F   UNL     1       3.235  -4.147  -3.322  0.00  0.00    -0.169 F 
ATOM     13  F   UNL     1       1.941  -6.030  -3.320  0.00  0.00    -0.169 F 
ATOM     14  F   UNL     1       1.246  -4.167  -4.446  0.00  0.00    -0.169 F 
ENDBRANCH  10  11
ENDBRANCH   7  10
ENDBRANCH   1   2
BRANCH   1  15
ATOM     15  O   UNL     1      -0.687   1.964   1.186  0.00  0.00    -0.480 OA
BRANCH  15  20
ATOM     16  C   UNL     1       0.099   5.368   2.192  0.00  0.00    +0.039 A 
ATOM     17  C   UNL     1      -1.009   6.051   1.680  0.00  0.00    +0.066 A 
ATOM     18  C   UNL     1      -2.007   5.346   1.001  0.00  0.00    +0.039 A 
ATOM     19  C   UNL     1      -1.896   3.983   0.838  0.00  0.00    +0.085 A 
ATOM     20  C   UNL     1      -0.793   3.307   1.348  0.00  0.00    +0.158 A 
ATOM     21  C   UNL     1       0.200   4.004   2.029  0.00  0.00    +0.085 A 
ATOM     22 CL   UNL     1       1.572   3.154   2.669  0.00  0.00    -0.080 Cl
ATOM     23 CL   UNL     1      -3.136   3.107  -0.005  0.00  0.00    -0.080 Cl
BRANCH  17  24
ATOM     24  C   UNL     1      -1.124   7.511   1.857  0.00  0.00    +0.387 C 
ATOM     25  O   UNL     1      -2.088   8.102   1.412  0.00  0.00    -0.241 OA
ATOM     26  O   UNL     1      -0.161   8.188   2.512  0.00  0.00    -0.241 OA
ENDBRANCH  17  24
ENDBRANCH  15  20
ENDBRANCH   1  15
TORSDOF 6
