REMARK  Name = ZINC02583242
REMARK  9 active torsions:
REMARK  status: ('A' for Active; 'I' for Inactive)
REMARK    1  A    between atoms: C_13  and  C_14
REMARK    2  A    between atoms: C_14  and  O_15
REMARK    3  A    between atoms: O_15  and  C_16
REMARK    4  A    between atoms: N_18  and  C_19
REMARK    5  A    between atoms: C_19  and  C_21
REMARK    6  A    between atoms: C_19  and  C_27
REMARK    7  A    between atoms: C_21  and  S_22
REMARK    8  A    between atoms: S_22  and  C_23
REMARK    9  A    between atoms: C_23  and  C_24
REMARK                            x       y       z     vdW  Elec       q    Type
REMARK                         _______ _______ _______ _____ _____    ______ ____
ROOT
ATOM      1  O   UNK A   0       5.529  -1.622  -1.247  0.00  0.00    -0.449 OA
ENDROOT
BRANCH   1   2
ATOM      2  C   UNK A   0       6.379  -1.577  -2.289  0.00  0.00    +0.401 C 
ATOM      3  O   UNK A   0       6.162  -0.826  -3.219  0.00  0.00    -0.226 OA
ATOM      4  N   UNK A   1       7.473  -2.366  -2.301  0.00  0.00    -0.267 N 
ATOM      5  H   UNK A   1       7.646  -2.965  -1.559  0.00  0.00    +0.153 HD
BRANCH   4   6
ATOM      6  C   UNK A   1       8.398  -2.317  -3.436  0.00  0.00    +0.199 C 
BRANCH   6   7
ATOM      7  C   UNK A   1       7.904  -3.232  -4.527  0.00  0.00    +0.377 C 
ATOM      8  O   UNK A   1       6.874  -3.865  -4.371  0.00  0.00    -0.244 OA
ATOM      9  O   UNK A   1       8.534  -3.338  -5.565  0.00  0.00    -0.244 OA
ENDBRANCH   6   7
BRANCH   6  10
ATOM     10  C   UNK A   1       9.787  -2.770  -2.980  0.00  0.00    +0.103 C 
BRANCH  10  11
ATOM     11  S   UNK A   1      10.382  -1.669  -1.667  0.00  0.00    -0.147 S 
BRANCH  11  12
ATOM     12  C   UNK A   1      12.016  -2.333  -1.244  0.00  0.00    +0.194 C 
BRANCH  12  13
ATOM     13  C   UNK A   1      12.630  -1.499  -0.150  0.00  0.00    +0.366 C 
ATOM     14  O   UNK A   1      12.021  -0.544   0.303  0.00  0.00    -0.245 OA
ATOM     15  O   UNK A   1      13.735  -1.778   0.283  0.00  0.00    -0.245 OA
ENDBRANCH  12  13
ENDBRANCH  11  12
ENDBRANCH  10  11
ENDBRANCH   6  10
ENDBRANCH   4   6
ENDBRANCH   1   2
BRANCH   1  16
ATOM     16  C   UNK A   0       4.391  -0.759  -1.300  0.00  0.00    +0.246 C 
BRANCH  16  29
ATOM     17  C   UNK A   0      -0.017   1.375   0.010  0.00  0.00    +0.001 A 
ATOM     18  C   UNK A   0       1.169   2.088   0.002  0.00  0.00    +0.000 A 
ATOM     19  C   UNK A   0       2.380   1.420  -0.013  0.00  0.00    +0.005 A 
ATOM     20  C   UNK A   0       2.408   0.042  -0.021  0.00  0.00    -0.029 A 
ATOM     21  C   UNK A   0       1.221  -0.685  -0.013  0.00  0.00    -0.014 A 
ATOM     22  C   UNK A   0       0.002  -0.004   0.002  0.00  0.00    +0.009 A 
ATOM     23  C   UNK A   0       1.530  -2.136  -0.025  0.00  0.00    -0.014 A 
ATOM     24  C   UNK A   0       0.694  -3.254  -0.023  0.00  0.00    +0.009 A 
ATOM     25  C   UNK A   0       1.238  -4.521  -0.035  0.00  0.00    +0.001 A 
ATOM     26  C   UNK A   0       2.611  -4.690  -0.050  0.00  0.00    +0.000 A 
ATOM     27  C   UNK A   0       3.445  -3.587  -0.052  0.00  0.00    +0.005 A 
ATOM     28  C   UNK A   0       2.910  -2.316  -0.040  0.00  0.00    -0.029 A 
ATOM     29  C   UNK A   0       3.547  -0.948  -0.038  0.00  0.00    +0.088 C 
ENDBRANCH  16  29
ENDBRANCH   1  16
TORSDOF 9
