REMARK  Name = ZINC11905233
REMARK  6 active torsions:
REMARK  status: ('A' for Active; 'I' for Inactive)
REMARK    1  A    between atoms: C_3  and  C_6
REMARK    2  A    between atoms: C_6  and  C_8
REMARK    3  A    between atoms: C_6  and  N_47
REMARK    4  A    between atoms: C_8  and  N_9
REMARK    5  A    between atoms: C_10  and  C_12
REMARK    6  A    between atoms: C_14  and  C_17
REMARK                            x       y       z     vdW  Elec       q    Type
REMARK                         _______ _______ _______ _____ _____    ______ ____
ROOT
ATOM      1  N   UNL     1       4.426  -0.637  -0.753  0.00  0.00    -0.311 N 
ATOM      2  C   UNL     1       4.142   0.608  -1.187  0.00  0.00    +0.266 C 
ATOM      3  O   UNL     1       5.042   1.390  -1.419  0.00  0.00    -0.268 OA
ATOM      4  H   UNL     1       3.707  -1.261  -0.568  0.00  0.00    +0.149 HD
ENDROOT
BRANCH   2   5
ATOM      5  C   UNL     1       2.731   1.022  -1.381  0.00  0.00    +0.168 A 
ATOM      6  C   UNL     1       2.269   2.287  -1.829  0.00  0.00    +0.086 A 
ATOM      7  C   UNL     1       0.908   2.154  -1.836  0.00  0.00    +0.168 A 
ATOM      8  O   UNL     1       0.648   0.901  -1.421  0.00  0.00    -0.354 OA
ATOM      9  N   UNL     1       1.662   0.291  -1.174  0.00  0.00    -0.073 NA
BRANCH   7  10
ATOM     10  C   UNL     1      -0.080   3.180  -2.228  0.00  0.00    +0.020 A 
ATOM     11  C   UNL     1       0.347   4.445  -2.635  0.00  0.00    +0.013 A 
ATOM     12  C   UNL     1      -0.580   5.397  -3.006  0.00  0.00    +0.016 A 
ATOM     13  C   UNL     1      -1.932   5.104  -2.963  0.00  0.00    +0.018 A 
ATOM     14  C   UNL     1      -2.362   3.853  -2.555  0.00  0.00    +0.016 A 
ATOM     15  C   UNL     1      -1.445   2.891  -2.188  0.00  0.00    +0.013 A 
ATOM     16 BR   UNL     1      -3.196   6.418  -3.464  0.00  0.00    -0.050 Br
ENDBRANCH   7  10
ENDBRANCH   2   5
BRANCH   1  17
ATOM     17  C   UNL     1       5.819  -1.046  -0.562  0.00  0.00    +0.097 C 
BRANCH  17  18
ATOM     18  C   UNL     1       5.863  -2.493  -0.068  0.00  0.00    +0.016 C 
BRANCH  18  23
ATOM     19  C   UNL     1       5.601  -3.156  -2.396  0.00  0.00    -0.078 C 
ATOM     20  C   UNL     1       5.132  -4.445  -3.116  0.00  0.00    -0.020 C 
ATOM     21  C   UNL     1       5.339  -5.536  -2.041  0.00  0.00    -0.020 C 
ATOM     22  C   UNL     1       5.346  -4.782  -0.698  0.00  0.00    -0.078 C 
ATOM     23  N   UNL     1       5.122  -3.372  -1.022  0.00  0.00    +0.387 N 
ATOM     24  H   UNL     1       4.119  -3.159  -0.966  0.00  0.00    -0.081 HD
ENDBRANCH  18  23
BRANCH  18  27
ATOM     25  C   UNL     1       9.289  -3.573   0.756  0.00  0.00    +0.041 A 
ATOM     26  C   UNL     1       7.999  -3.143   1.143  0.00  0.00    +0.043 A 
ATOM     27  C   UNL     1       7.296  -2.954   0.012  0.00  0.00    +0.093 A 
ATOM     28  O   UNL     1       8.085  -3.249  -1.033  0.00  0.00    -0.469 OA
ATOM     29  C   UNL     1       9.297  -3.620  -0.589  0.00  0.00    +0.195 A 
ENDBRANCH  18  27
ENDBRANCH  17  18
ENDBRANCH   1  17
TORSDOF 6
