REMARK  Name = ZINC43226479
REMARK  9 active torsions:
REMARK  status: ('A' for Active; 'I' for Inactive)
REMARK    1  A    between atoms: C_1  and  C_2
REMARK    2  A    between atoms: C_2  and  C_3
REMARK    3  A    between atoms: C_3  and  C_5
REMARK    4  A    between atoms: C_3  and  N_28
REMARK    5  A    between atoms: C_7  and  C_10
REMARK    6  A    between atoms: N_12  and  C_13
REMARK    7  A    between atoms: C_16  and  C_19
REMARK    8  A    between atoms: C_19  and  C_21
REMARK    9  A    between atoms: C_24  and  N_27
REMARK                            x       y       z     vdW  Elec       q    Type
REMARK                         _______ _______ _______ _____ _____    ______ ____
ROOT
ATOM      1  C   UNL     1      -1.806  -5.985  -4.338  0.00  0.00    +0.034 A 
ATOM      2  C   UNL     1      -2.183  -7.315  -4.174  0.00  0.00    +0.024 A 
ATOM      3  C   UNL     1      -2.830  -7.979  -5.191  0.00  0.00    +0.013 A 
ATOM      4  C   UNL     1      -3.110  -7.316  -6.390  0.00  0.00    +0.022 A 
ATOM      5  C   UNL     1      -2.729  -5.980  -6.551  0.00  0.00    +0.013 A 
ATOM      6  C   UNL     1      -2.087  -5.321  -5.529  0.00  0.00    +0.024 A 
ENDROOT
BRANCH   1   9
ATOM      7  C   UNL     1      -1.364  -3.999  -3.115  0.00  0.00    +0.267 C 
ATOM      8  O   UNL     1      -2.071  -3.379  -3.887  0.00  0.00    -0.268 OA
ATOM      9  N   UNL     1      -1.151  -5.316  -3.307  0.00  0.00    -0.280 N 
ATOM     10  H   UNL     1      -0.542  -5.798  -2.726  0.00  0.00    +0.155 HD
BRANCH   7  13
ATOM     11  C   UNL     1       0.558  -3.274  -0.113  0.00  0.00    +0.065 A 
ATOM     12  N   UNL     1       0.042  -3.954  -1.100  0.00  0.00    -0.241 NA
ATOM     13  C   UNL     1      -0.742  -3.311  -1.972  0.00  0.00    +0.133 A 
ATOM     14  C   UNL     1      -0.930  -1.975  -1.740  0.00  0.00    +0.079 A 
ATOM     15  S   UNL     1      -0.026  -1.718  -0.348  0.00  0.00    -0.081 S 
BRANCH  11  16
ATOM     16  C   UNL     1       1.462  -3.772   0.986  0.00  0.00    -0.018 C 
BRANCH  16  17
ATOM     17  N   UNL     1       2.566  -2.823   1.179  0.00  0.00    +0.384 N 
ATOM     18  H   UNL     1       2.194  -1.920   1.433  0.00  0.00    -0.089 HD
ATOM     19  H   UNL     1       3.171  -3.156   1.914  0.00  0.00    -0.089 HD
ATOM     20  H   UNL     1       3.092  -2.741   0.322  0.00  0.00    -0.089 HD
ENDBRANCH  16  17
BRANCH  16  22
ATOM     21  C   UNL     1       1.547  -4.519   3.368  0.00  0.00    +0.002 C 
ATOM     22  C   UNL     1       0.664  -3.897   2.285  0.00  0.00    -0.013 C 
ENDBRANCH  16  22
ENDBRANCH  11  16
ENDBRANCH   7  13
ENDBRANCH   1   9
BRANCH   4  23
ATOM     23  C   UNL     1      -3.803  -8.024  -7.483  0.00  0.00    +0.193 C 
ATOM     24  O   UNL     1      -4.644  -8.864  -7.225  0.00  0.00    -0.287 OA
BRANCH  23  25
ATOM     25  C   UNL     1      -3.477  -7.714  -8.887  0.00  0.00    +0.022 A 
ATOM     26  C   UNL     1      -2.396  -6.877  -9.187  0.00  0.00    +0.013 A 
ATOM     27  C   UNL     1      -2.095  -6.591 -10.493  0.00  0.00    +0.023 A 
ATOM     28  C   UNL     1      -2.864  -7.132 -11.521  0.00  0.00    +0.025 A 
ATOM     29  C   UNL     1      -3.940  -7.965 -11.226  0.00  0.00    +0.023 A 
ATOM     30  C   UNL     1      -4.243  -8.260  -9.922  0.00  0.00    +0.013 A 
BRANCH  28  31
ATOM     31  N   UNL     1      -2.556  -6.840 -12.845  0.00  0.00    -0.358 N 
ATOM     32  H   UNL     1      -1.807  -6.259 -13.051  0.00  0.00    +0.142 HD
ATOM     33  H   UNL     1      -3.090  -7.216 -13.561  0.00  0.00    +0.142 HD
ENDBRANCH  28  31
ENDBRANCH  23  25
ENDBRANCH   4  23
TORSDOF 8
