REMARK  Name = ZINC63133720
REMARK  8 active torsions:
REMARK  status: ('A' for Active; 'I' for Inactive)
REMARK    1  A    between atoms: C_1  and  C_2
REMARK    2  A    between atoms: C_7  and  N_8
REMARK    3  A    between atoms: C_9  and  C_11
REMARK    4  A    between atoms: C_11  and  S_12
REMARK    5  A    between atoms: S_12  and  C_13
REMARK    6  A    between atoms: C_16  and  C_24
REMARK    7  A    between atoms: N_17  and  C_18
REMARK    8  A    between atoms: C_18  and  C_19
REMARK                            x       y       z     vdW  Elec       q    Type
REMARK                         _______ _______ _______ _____ _____    ______ ____
ROOT
ATOM      1  C   UNL     1      -0.531  -0.214   7.766  0.00  0.00    +0.193 A 
ATOM      2  N   UNL     1      -0.523   1.105   7.641  0.00  0.00    -0.122 NA
ATOM      3  N   UNL     1      -0.444   1.658   8.797  0.00  0.00    -0.129 NA
ATOM      4  C   UNL     1      -0.396   0.726   9.738  0.00  0.00    +0.164 A 
ATOM      5  N   UNL     1      -0.456  -0.498   9.095  0.00  0.00    -0.295 N 
ENDROOT
BRANCH   4   6
ATOM      6  C   UNL     1      -0.305   0.939  11.123  0.00  0.00    +0.025 C 
ATOM      7  C   UNL     1      -0.342   2.163  11.791  0.00  0.00    +0.006 A 
ATOM      8  C   UNL     1      -0.472   3.493  11.338  0.00  0.00    +0.010 A 
ATOM      9  C   UNL     1      -0.476   4.512  12.235  0.00  0.00    +0.001 A 
ATOM     10  C   UNL     1      -0.355   4.280  13.607  0.00  0.00    +0.002 A 
ATOM     11  C   UNL     1      -0.226   3.029  14.112  0.00  0.00    +0.026 A 
ATOM     12  C   UNL     1      -0.213   1.912  13.236  0.00  0.00    +0.043 A 
ATOM     13  N   UNL     1      -0.103   0.620  13.472  0.00  0.00    -0.380 N 
ATOM     14  C   UNL     1      -0.154  -0.110  12.202  0.00  0.00    +0.152 C 
ATOM     15  H   UNL     1      -0.007   0.215  14.348  0.00  0.00    +0.160 HD
ENDBRANCH   4   6
BRANCH   1  16
ATOM     16  S   UNL     1      -0.628  -1.386   6.454  0.00  0.00    -0.077 S 
BRANCH  16  17
ATOM     17  C   UNL     1      -0.701  -0.364   4.957  0.00  0.00    +0.173 C 
BRANCH  17  19
ATOM     18  N   UNL     1      -0.853  -0.711   2.513  0.00  0.00    -0.285 N 
ATOM     19  C   UNL     1      -0.788  -1.254   3.744  0.00  0.00    +0.227 C 
ATOM     20  O   UNL     1      -0.799  -2.460   3.877  0.00  0.00    -0.275 OA
ATOM     21  H   UNL     1      -0.779   0.250   2.402  0.00  0.00    +0.155 HD
BRANCH  18  28
ATOM     22  C   UNL     1      -2.345   0.309   0.316  0.00  0.00    +0.045 C 
ATOM     23  C   UNL     1      -1.748  -1.075   0.299  0.00  0.00    -0.029 A 
ATOM     24  C   UNL     1      -1.914  -1.886  -0.806  0.00  0.00    +0.006 A 
ATOM     25  C   UNL     1      -1.367  -3.155  -0.823  0.00  0.00    +0.020 A 
ATOM     26  C   UNL     1      -0.651  -3.618   0.269  0.00  0.00    +0.043 A 
ATOM     27  C   UNL     1      -0.483  -2.811   1.378  0.00  0.00    +0.043 A 
ATOM     28  C   UNL     1      -1.027  -1.533   1.394  0.00  0.00    +0.038 A 
ATOM     29 CL   UNL     1       0.034  -5.213   0.244  0.00  0.00    -0.083 Cl
ENDBRANCH  18  28
ENDBRANCH  17  19
ENDBRANCH  16  17
ENDBRANCH   1  16
BRANCH   5  30
ATOM     30  C   UNL     1      -0.439  -1.825   9.717  0.00  0.00    +0.200 C 
BRANCH  30  31
ATOM     31  C   UNL     1      -1.853  -2.276   9.977  0.00  0.00    +0.125 A 
ATOM     32  C   UNL     1      -2.591  -3.058   9.168  0.00  0.00    +0.046 A 
ATOM     33  C   UNL     1      -3.846  -3.228   9.796  0.00  0.00    +0.041 A 
ATOM     34  C   UNL     1      -3.801  -2.539  10.950  0.00  0.00    +0.195 A 
ATOM     35  O   UNL     1      -2.589  -1.969  11.057  0.00  0.00    -0.466 OA
ENDBRANCH  30  31
ENDBRANCH   5  30
TORSDOF 7
