REMARK  Name = ZINC36637881
REMARK  10 active torsions:
REMARK  status: ('A' for Active; 'I' for Inactive)
REMARK    1  A    between atoms: C_1  and  C_2
REMARK    2  A    between atoms: C_2  and  N_3
REMARK    3  A    between atoms: N_3  and  C_4
REMARK    4  A    between atoms: N_3  and  C_6
REMARK    5  A    between atoms: C_4  and  C_5
REMARK    6  A    between atoms: C_6  and  C_7
REMARK    7  A    between atoms: C_7  and  N_8
REMARK    8  A    between atoms: C_19  and  C_21
REMARK    9  A    between atoms: C_25  and  O_27
REMARK   10  A    between atoms: O_27  and  C_28
REMARK                            x       y       z     vdW  Elec       q    Type
REMARK                         _______ _______ _______ _____ _____    ______ ____
ROOT
ATOM      1  N   UNL     1      -0.783  -3.239   1.863  0.00  0.00    -0.248 N 
ATOM      2  C   UNL     1       0.024  -3.938   0.981  0.00  0.00    +0.168 A 
ATOM      3  N   UNL     1       0.840  -3.471   0.065  0.00  0.00    -0.224 NA
ATOM      4  C   UNL     1       1.573  -4.277  -0.733  0.00  0.00    +0.080 A 
ATOM      5  C   UNL     1       2.483  -3.906  -1.750  0.00  0.00    +0.030 A 
ATOM      6  C   UNL     1       3.151  -4.859  -2.474  0.00  0.00    +0.017 A 
ATOM      7  C   UNL     1       2.962  -6.214  -2.238  0.00  0.00    +0.019 A 
ATOM      8  C   UNL     1       2.080  -6.612  -1.250  0.00  0.00    +0.032 A 
ATOM      9  C   UNL     1       1.407  -5.665  -0.520  0.00  0.00    +0.042 A 
ATOM     10  S   UNL     1       0.224  -5.705   0.805  0.00  0.00    -0.052 S 
ATOM     11 BR   UNL     1       3.901  -7.501  -3.257  0.00  0.00    -0.050 Br
ATOM     12  C   UNL     1      -0.675  -3.453   3.189  0.00  0.00    +0.252 C 
ATOM     13  O   UNL     1      -1.407  -2.865   3.961  0.00  0.00    -0.270 OA
ENDROOT
BRANCH  12  14
ATOM     14  C   UNL     1       0.334  -4.402   3.705  0.00  0.00    +0.041 A 
ATOM     15  C   UNL     1       1.435  -4.749   2.920  0.00  0.00    +0.013 A 
ATOM     16  C   UNL     1       2.375  -5.635   3.405  0.00  0.00    +0.004 A 
ATOM     17  C   UNL     1       2.229  -6.182   4.667  0.00  0.00    +0.046 A 
ATOM     18  C   UNL     1       1.137  -5.844   5.454  0.00  0.00    +0.129 A 
ATOM     19  C   UNL     1       0.191  -4.951   4.979  0.00  0.00    +0.059 A 
BRANCH  18  20
ATOM     20  O   UNL     1       1.000  -6.385   6.693  0.00  0.00    -0.456 OA
BRANCH  20  21
ATOM     21  C   UNL     1      -0.141  -6.118   7.383  0.00  0.00    +0.128 A 
ATOM     22  C   UNL     1      -1.315  -6.786   7.069  0.00  0.00    +0.046 A 
ATOM     23  C   UNL     1      -2.473  -6.513   7.772  0.00  0.00    +0.004 A 
ATOM     24  C   UNL     1      -2.461  -5.574   8.787  0.00  0.00    +0.000 A 
ATOM     25  C   UNL     1      -1.292  -4.905   9.101  0.00  0.00    +0.004 A 
ATOM     26  C   UNL     1      -0.131  -5.180   8.405  0.00  0.00    +0.046 A 
ENDBRANCH  20  21
ENDBRANCH  18  20
ENDBRANCH  12  14
BRANCH   1  27
ATOM     27  C   UNL     1      -1.754  -2.267   1.354  0.00  0.00    +0.097 C 
BRANCH  27  28
ATOM     28  C   UNL     1      -3.114  -2.945   1.185  0.00  0.00    -0.059 C 
BRANCH  28  29
ATOM     29  N   UNL     1      -4.088  -1.970   0.675  0.00  0.00    +0.380 N 
ATOM     30  H   UNL     1      -4.112  -1.168   1.286  0.00  0.00    -0.082 HD
BRANCH  29  32
ATOM     31  C   UNL     1      -4.652  -0.459  -1.167  0.00  0.00    -0.017 C 
ATOM     32  C   UNL     1      -3.695  -1.546  -0.675  0.00  0.00    -0.082 C 
ENDBRANCH  29  32
BRANCH  29  33
ATOM     33  C   UNL     1      -5.420  -2.588   0.626  0.00  0.00    -0.082 C 
ATOM     34  C   UNL     1      -5.873  -2.937   2.045  0.00  0.00    -0.017 C 
ENDBRANCH  29  33
ENDBRANCH  28  29
ENDBRANCH  27  28
ENDBRANCH   1  27
TORSDOF 8
