REMARK  Name = ZINC61805233
REMARK  8 active torsions:
REMARK  status: ('A' for Active; 'I' for Inactive)
REMARK    1  A    between atoms: C_3  and  C_8
REMARK    2  A    between atoms: C_8  and  C_10
REMARK    3  A    between atoms: C_8  and  N_12
REMARK    4  A    between atoms: C_10  and  N_11
REMARK    5  A    between atoms: N_12  and  C_13
REMARK    6  A    between atoms: N_12  and  C_17
REMARK    7  A    between atoms: C_13  and  C_14
REMARK    8  A    between atoms: C_17  and  C_18
REMARK                            x       y       z     vdW  Elec       q    Type
REMARK                         _______ _______ _______ _____ _____    ______ ____
ROOT
ATOM      1  C   UNL     1       3.741   2.446   0.253  0.00  0.00    +0.070 C 
ENDROOT
BRANCH   1   4
ATOM      2  C   UNL     1       0.182   1.283   0.745  0.00  0.00    +0.001 A 
ATOM      3  C   UNL     1       1.281   2.103   0.566  0.00  0.00    +0.005 A 
ATOM      4  C   UNL     1       2.543   1.551   0.448  0.00  0.00    -0.031 A 
ATOM      5  C   UNL     1       2.707   0.180   0.509  0.00  0.00    +0.020 A 
ATOM      6  C   UNL     1       1.609  -0.640   0.688  0.00  0.00    +0.018 A 
ATOM      7  C   UNL     1       0.345  -0.088   0.806  0.00  0.00    +0.015 A 
ATOM      8 BR   UNL     1       1.832  -2.516   0.771  0.00  0.00    -0.050 Br
ENDBRANCH   1   4
BRANCH   1   9
ATOM      9  C   UNL     1       4.612   2.413   1.510  0.00  0.00    -0.063 C 
BRANCH   9  10
ATOM     10  N   UNL     1       5.823   3.214   1.287  0.00  0.00    +0.379 N 
ATOM     11  H   UNL     1       6.457   2.707   0.687  0.00  0.00    -0.090 HD
ATOM     12  H   UNL     1       5.573   4.088   0.849  0.00  0.00    -0.090 HD
ATOM     13  H   UNL     1       6.272   3.398   2.172  0.00  0.00    -0.090 HD
ENDBRANCH   9  10
ENDBRANCH   1   9
BRANCH   1  14
ATOM     14  N   UNL     1       4.522   1.973  -0.898  0.00  0.00    -0.280 NA
BRANCH  14  15
ATOM     15  C   UNL     1       3.644   1.440  -1.948  0.00  0.00    +0.181 C 
BRANCH  15  16
ATOM     16  C   UNL     1       4.459   0.622  -2.917  0.00  0.00    +0.225 C 
ATOM     17  O   UNL     1       5.633   0.412  -2.696  0.00  0.00    -0.275 OA
ATOM     18  N   UNL     1       3.883   0.126  -4.030  0.00  0.00    -0.328 N 
ATOM     19  H   UNL     1       2.944   0.294  -4.207  0.00  0.00    +0.145 HD
ATOM     20  H   UNL     1       4.407  -0.400  -4.654  0.00  0.00    +0.145 HD
ENDBRANCH  15  16
ENDBRANCH  14  15
BRANCH  14  21
ATOM     21  C   UNL     1       5.383   3.040  -1.424  0.00  0.00    +0.181 C 
BRANCH  21  22
ATOM     22  C   UNL     1       4.528   4.183  -1.907  0.00  0.00    +0.225 C 
ATOM     23  O   UNL     1       3.323   4.132  -1.786  0.00  0.00    -0.275 OA
ATOM     24  N   UNL     1       5.103   5.263  -2.473  0.00  0.00    -0.328 N 
ATOM     25  H   UNL     1       6.068   5.304  -2.569  0.00  0.00    +0.145 HD
ATOM     26  H   UNL     1       4.553   5.999  -2.783  0.00  0.00    +0.145 HD
ENDBRANCH  21  22
ENDBRANCH  14  21
ENDBRANCH   1  14
TORSDOF 8
