REMARK  Name = ZINC08758863
REMARK  5 active torsions:
REMARK  status: ('A' for Active; 'I' for Inactive)
REMARK    1  A    between atoms: C_4  and  C_7
REMARK    2  A    between atoms: C_8  and  C_9
REMARK    3  A    between atoms: C_23  and  C_24
REMARK    4  A    between atoms: C_23  and  C_30
REMARK    5  A    between atoms: C_23  and  N_70
REMARK                            x       y       z     vdW  Elec       q    Type
REMARK                         _______ _______ _______ _____ _____    ______ ____
ROOT
ATOM      1  C   UNL     1       3.855   7.432  -0.761  0.00  0.00    +0.025 C 
ATOM      2  C   UNL     1       3.956   6.034  -0.155  0.00  0.00    +0.064 C 
ATOM      3  C   UNL     1       2.618   5.350  -0.142  0.00  0.00    +0.057 A 
ATOM      4  C   UNL     1       1.423   6.077  -0.190  0.00  0.00    +0.057 A 
ATOM      5  C   UNL     1       0.205   5.385  -0.170  0.00  0.00    +0.127 A 
ATOM      6  N   UNL     1       0.229   4.066  -0.106  0.00  0.00    -0.222 NA
ATOM      7  C   UNL     1       1.382   3.409  -0.064  0.00  0.00    +0.218 A 
ATOM      8  N   UNL     1       2.553   4.032  -0.077  0.00  0.00    -0.219 NA
ATOM      9  N   UNL     1       1.361   2.032   0.000  0.00  0.00    -0.303 N 
ATOM     10  C   UNL     1      -0.019   1.526   0.010  0.00  0.00    +0.089 C 
ATOM     11  C   UNL     1       0.002  -0.004   0.002  0.00  0.00    -0.058 C 
ATOM     12  C   UNL     1       2.126   0.018   1.163  0.00  0.00    -0.058 C 
ATOM     13  C   UNL     1       2.105   1.549   1.171  0.00  0.00    +0.089 C 
ATOM     14  C   UNL     1       1.449   7.544  -0.265  0.00  0.00    +0.167 C 
ATOM     15  O   UNL     1       0.446   8.180  -0.512  0.00  0.00    -0.292 OA
ATOM     16  C   UNL     1       2.777   8.234  -0.021  0.00  0.00    +0.087 C 
ATOM     17  N   UNL     1       0.734  -0.477   1.196  0.00  0.00    +0.389 N 
ATOM     18  H   UNL     1       0.270  -0.114   2.037  0.00  0.00    -0.080 HD
ENDROOT
BRANCH   1  20
ATOM     19  C   UNL     1       5.826   8.542  -1.714  0.00  0.00    +0.004 C 
ATOM     20  C   UNL     1       5.182   8.134  -0.630  0.00  0.00    -0.022 C 
BRANCH  19  24
ATOM     21  C   UNL     1       9.566  10.521  -1.344  0.00  0.00    +0.000 A 
ATOM     22  C   UNL     1       9.023  10.304  -2.598  0.00  0.00    +0.001 A 
ATOM     23  C   UNL     1       7.808   9.662  -2.725  0.00  0.00    +0.008 A 
ATOM     24  C   UNL     1       7.128   9.230  -1.585  0.00  0.00    -0.025 A 
ATOM     25  C   UNL     1       7.678   9.457  -0.324  0.00  0.00    +0.008 A 
ATOM     26  C   UNL     1       8.896  10.095  -0.210  0.00  0.00    +0.001 A 
ENDBRANCH  19  24
ENDBRANCH   1  20
BRANCH  17  27
ATOM     27  C   UNL     1       0.724  -1.955   1.242  0.00  0.00    -0.007 C 
BRANCH  27  28
ATOM     28  C   UNL     1       1.596  -2.418   2.381  0.00  0.00    -0.057 A 
ATOM     29  C   UNL     1       1.598  -1.723   3.576  0.00  0.00    +0.002 A 
ATOM     30  C   UNL     1       2.394  -2.151   4.622  0.00  0.00    +0.000 A 
ATOM     31  C   UNL     1       3.196  -3.267   4.469  0.00  0.00    +0.000 A 
ATOM     32  C   UNL     1       3.198  -3.958   3.272  0.00  0.00    +0.000 A 
ATOM     33  C   UNL     1       2.398  -3.533   2.228  0.00  0.00    +0.002 A 
ENDBRANCH  27  28
BRANCH  27  34
ATOM     34  C   UNL     1      -0.689  -2.426   1.468  0.00  0.00    -0.057 A 
ATOM     35  C   UNL     1      -1.515  -1.741   2.340  0.00  0.00    +0.002 A 
ATOM     36  C   UNL     1      -2.813  -2.171   2.543  0.00  0.00    +0.000 A 
ATOM     37  C   UNL     1      -3.282  -3.291   1.883  0.00  0.00    +0.000 A 
ATOM     38  C   UNL     1      -2.455  -3.979   1.015  0.00  0.00    +0.000 A 
ATOM     39  C   UNL     1      -1.158  -3.546   0.808  0.00  0.00    +0.002 A 
ENDBRANCH  27  34
ENDBRANCH  17  27
TORSDOF 5
