REMARK  Name = ZINC38905243
REMARK  6 active torsions:
REMARK  status: ('A' for Active; 'I' for Inactive)
REMARK    1  A    between atoms: C_1  and  C_2
REMARK    2  A    between atoms: C_7  and  N_8
REMARK    3  A    between atoms: C_9  and  C_11
REMARK    4  A    between atoms: N_16  and  C_18
REMARK    5  A    between atoms: C_18  and  C_19
REMARK    6  A    between atoms: C_21  and  C_24
REMARK                            x       y       z     vdW  Elec       q    Type
REMARK                         _______ _______ _______ _____ _____    ______ ____
ROOT
ATOM      1  C   UNL     1      -0.169   0.054   4.882  0.00  0.00    +0.059 C 
ATOM      2  C   UNL     1      -1.435   0.916   4.871  0.00  0.00    +0.009 C 
ATOM      3  C   UNL     1      -1.580   1.609   6.228  0.00  0.00    -0.018 C 
ATOM      4  C   UNL     1      -1.608   0.553   7.335  0.00  0.00    -0.078 C 
ATOM      5  N   UNL     1      -0.360  -0.220   7.310  0.00  0.00    +0.386 N 
ATOM      6  C   UNL     1      -0.248  -0.945   6.039  0.00  0.00    -0.065 C 
ATOM      7  H   UNL     1       0.424   0.407   7.408  0.00  0.00    -0.081 HD
ENDROOT
BRANCH   1   9
ATOM      8  N   UNL     1       0.025  -0.014   2.417  0.00  0.00    -0.285 N 
ATOM      9  C   UNL     1      -0.057  -0.693   3.578  0.00  0.00    +0.219 C 
ATOM     10  O   UNL     1      -0.040  -1.906   3.574  0.00  0.00    -0.275 OA
ATOM     11  H   UNL     1       0.077   0.955   2.425  0.00  0.00    +0.155 HD
BRANCH   8  18
ATOM     12  C   UNL     1      -1.265   1.183   0.181  0.00  0.00    +0.046 C 
ATOM     13  C   UNL     1      -0.584  -0.158   0.084  0.00  0.00    -0.028 A 
ATOM     14  C   UNL     1      -0.569  -0.841  -1.116  0.00  0.00    +0.025 A 
ATOM     15  C   UNL     1       0.055  -2.072  -1.206  0.00  0.00    +0.041 A 
ATOM     16  C   UNL     1       0.667  -2.623  -0.093  0.00  0.00    +0.022 A 
ATOM     17  C   UNL     1       0.655  -1.944   1.109  0.00  0.00    +0.025 A 
ATOM     18  C   UNL     1       0.034  -0.706   1.201  0.00  0.00    +0.036 A 
ATOM     19 CL   UNL     1       0.071  -2.928  -2.716  0.00  0.00    -0.084 Cl
ENDBRANCH   8  18
ENDBRANCH   1   9
BRANCH   5  20
ATOM     20  C   UNL     1      -0.359  -1.180   8.421  0.00  0.00    +0.022 C 
BRANCH  20  21
ATOM     21  C   UNL     1      -0.340  -0.433   9.730  0.00  0.00    +0.211 A 
ATOM     22  N   UNL     1      -1.387  -0.052  10.404  0.00  0.00    -0.193 NA
ATOM     23  C   UNL     1      -1.007   0.588  11.524  0.00  0.00    +0.202 A 
ATOM     24  N   UNL     1       0.303   0.615  11.566  0.00  0.00    -0.056 NA
ATOM     25  O   UNL     1       0.756  -0.056  10.400  0.00  0.00    -0.340 OA
BRANCH  23  26
ATOM     26  C   UNL     1      -1.918   1.167  12.542  0.00  0.00    +0.023 A 
ATOM     27  C   UNL     1      -3.298   1.067  12.383  0.00  0.00    +0.013 A 
ATOM     28  C   UNL     1      -4.141   1.607  13.332  0.00  0.00    +0.016 A 
ATOM     29  C   UNL     1      -3.618   2.248  14.442  0.00  0.00    +0.018 A 
ATOM     30  C   UNL     1      -2.247   2.350  14.605  0.00  0.00    +0.016 A 
ATOM     31  C   UNL     1      -1.395   1.808  13.664  0.00  0.00    +0.013 A 
ATOM     32 BR   UNL     1      -4.779   2.987  15.739  0.00  0.00    -0.050 Br
ENDBRANCH  23  26
ENDBRANCH  20  21
ENDBRANCH   5  20
TORSDOF 5
