REMARK  Name = ZINC64143441
REMARK  4 active torsions:
REMARK  status: ('A' for Active; 'I' for Inactive)
REMARK    1  A    between atoms: C_1  and  C_2
REMARK    2  A    between atoms: C_11  and  C_13
REMARK    3  A    between atoms: N_29  and  C_30
REMARK    4  A    between atoms: C_30  and  C_31
REMARK                            x       y       z     vdW  Elec       q    Type
REMARK                         _______ _______ _______ _____ _____    ______ ____
ROOT
ATOM      1  C   UNL     1      -0.236   1.583   0.366  0.00  0.00    +0.014 C 
ATOM      2  C   UNL     1      -0.152   0.066   0.180  0.00  0.00    +0.044 C 
ATOM      3  C   UNL     1      -1.514  -0.533   0.411  0.00  0.00    +0.028 A 
ATOM      4  C   UNL     1      -2.596  -0.575  -0.484  0.00  0.00    +0.127 A 
ATOM      5  N   UNL     1      -3.739  -1.134  -0.108  0.00  0.00    -0.221 NA
ATOM      6  C   UNL     1      -3.893  -1.655   1.092  0.00  0.00    +0.224 A 
ATOM      7  N   UNL     1      -2.905  -1.647   1.967  0.00  0.00    -0.229 NA
ATOM      8  C   UNL     1      -1.734  -1.115   1.658  0.00  0.00    +0.106 A 
ATOM      9  S   UNL     1      -0.207  -0.970   2.557  0.00  0.00    -0.092 S 
ATOM     10  C   UNL     1       0.896  -0.505   1.163  0.00  0.00    +0.146 C 
ATOM     11  N   UNL     1      -2.470  -0.035  -1.755  0.00  0.00    -0.325 N 
ATOM     12  H   UNL     1      -1.633   0.373  -2.027  0.00  0.00    +0.148 HD
ENDROOT
BRANCH  10  13
ATOM     13  C   UNL     1       1.890   0.549   1.580  0.00  0.00    +0.230 C 
ATOM     14  O   UNL     1       1.720   1.170   2.608  0.00  0.00    -0.274 OA
ATOM     15  N   UNL     1       2.968   0.800   0.811  0.00  0.00    -0.298 N 
ATOM     16  C   UNL     1       3.105   0.131  -0.486  0.00  0.00    +0.112 C 
ATOM     17  C   UNL     1       3.226   1.189  -1.599  0.00  0.00    +0.052 C 
ATOM     18  C   UNL     1       4.213   2.219  -1.110  0.00  0.00    -0.036 C 
ATOM     19  C   UNL     1       5.304   2.726  -1.672  0.00  0.00    -0.001 A 
ATOM     20  C   UNL     1       5.886   2.552  -3.012  0.00  0.00    +0.010 A 
ATOM     21  C   UNL     1       7.047   3.218  -3.252  0.00  0.00    +0.001 A 
ATOM     22  C   UNL     1       7.678   4.030  -2.304  0.00  0.00    +0.002 A 
ATOM     23  C   UNL     1       7.210   4.252  -1.051  0.00  0.00    +0.026 A 
ATOM     24  C   UNL     1       5.990   3.613  -0.683  0.00  0.00    +0.043 A 
ATOM     25  N   UNL     1       5.313   3.667   0.425  0.00  0.00    -0.376 N 
ATOM     26  C   UNL     1       4.091   2.879   0.259  0.00  0.00    +0.124 C 
ATOM     27  C   UNL     1       3.991   1.748   1.280  0.00  0.00    +0.136 C 
ATOM     28  H   UNL     1       5.573   4.149   1.226  0.00  0.00    +0.160 HD
ENDBRANCH  10  13
BRANCH  11  29
ATOM     29  C   UNL     1      -3.600  -0.081  -2.686  0.00  0.00    +0.138 C 
BRANCH  29  30
ATOM     30  C   UNL     1      -3.205   0.569  -3.987  0.00  0.00    -0.027 A 
ATOM     31  C   UNL     1      -3.401   1.925  -4.169  0.00  0.00    +0.009 A 
ATOM     32  C   UNL     1      -3.041   2.525  -5.361  0.00  0.00    +0.050 A 
ATOM     33  C   UNL     1      -2.481   1.768  -6.377  0.00  0.00    +0.166 A 
ATOM     34  C   UNL     1      -2.284   0.401  -6.194  0.00  0.00    +0.167 A 
ATOM     35  C   UNL     1      -2.643  -0.192  -4.995  0.00  0.00    +0.054 A 
ATOM     36  O   UNL     1      -1.726  -0.114  -7.328  0.00  0.00    -0.453 OA
ATOM     37  C   UNL     1      -1.960   0.869  -8.353  0.00  0.00    +0.466 C 
ATOM     38  O   UNL     1      -2.047   2.108  -7.625  0.00  0.00    -0.453 OA
ENDBRANCH  29  30
ENDBRANCH  11  29
TORSDOF 3
