REMARK  Name = ZINC05868654
REMARK  18 active torsions:
REMARK  status: ('A' for Active; 'I' for Inactive)
REMARK    1  A    between atoms: C_1  and  C_2
REMARK    2  A    between atoms: C_2  and  O_3
REMARK    3  A    between atoms: O_3  and  C_4
REMARK    4  A    between atoms: C_4  and  C_6
REMARK    5  A    between atoms: C_6  and  C_7
REMARK    6  A    between atoms: C_6  and  C_28
REMARK    7  A    between atoms: C_9  and  N_21
REMARK    8  A    between atoms: C_12  and  N_13
REMARK    9  A    between atoms: N_13  and  C_14
REMARK   10  A    between atoms: C_14  and  C_16
REMARK   11  A    between atoms: C_14  and  C_17
REMARK   12  A    between atoms: C_17  and  C_18
REMARK   13  A    between atoms: C_18  and  C_19
REMARK   14  A    between atoms: C_18  and  C_20
REMARK   15  A    between atoms: N_21  and  C_22
REMARK   16  A    between atoms: C_28  and  O_30
REMARK   17  A    between atoms: O_30  and  C_31
REMARK   18  A    between atoms: C_31  and  C_32
REMARK                            x       y       z     vdW  Elec       q    Type
REMARK                         _______ _______ _______ _____ _____    ______ ____
ROOT
ATOM      1  C   UNL     1       1.359   1.527  -0.070  0.00  0.00    -0.000 A 
ATOM      2  C   UNL     1       0.163   0.851   0.065  0.00  0.00    +0.030 A 
ATOM      3  C   UNL     1      -1.033   1.555   0.092  0.00  0.00    +0.032 A 
ATOM      4  C   UNL     1      -1.026   2.941  -0.006  0.00  0.00    +0.025 A 
ATOM      5  C   UNL     1       0.171   3.617  -0.141  0.00  0.00    +0.025 A 
ATOM      6  C   UNL     1       1.367   2.912  -0.174  0.00  0.00    +0.032 A 
ENDROOT
BRANCH   6   7
ATOM      7  N   UNL     1       2.580   3.597  -0.311  0.00  0.00    -0.341 N 
ATOM      8  H   UNL     1       3.408   3.102  -0.406  0.00  0.00    +0.146 HD
BRANCH   7   9
ATOM      9  C   UNL     1       2.597   5.062  -0.312  0.00  0.00    +0.068 C 
ATOM     10  C   UNL     1       2.641   5.572   1.130  0.00  0.00    +0.028 C 
BRANCH   9  11
ATOM     11  C   UNL     1       3.833   5.556  -1.066  0.00  0.00    +0.025 C 
BRANCH  11  12
ATOM     12  C   UNL     1       3.758   5.100  -2.524  0.00  0.00    -0.015 C 
ATOM     13  C   UNL     1       2.580   5.791  -3.214  0.00  0.00    +0.007 C 
ATOM     14  C   UNL     1       5.057   5.469  -3.242  0.00  0.00    +0.007 C 
ENDBRANCH  11  12
ENDBRANCH   9  11
ENDBRANCH   7   9
ENDBRANCH   6   7
BRANCH   3  15
ATOM     15  N   UNL     1      -2.247   0.870   0.223  0.00  0.00    -0.314 N 
ATOM     16  H   UNL     1      -2.281   0.034   0.714  0.00  0.00    +0.152 HD
BRANCH  15  17
ATOM     17  C   UNL     1      -3.409   1.389  -0.352  0.00  0.00    +0.031 A 
ATOM     18  C   UNL     1      -4.646   1.139   0.229  0.00  0.00    +0.023 A 
ATOM     19  C   UNL     1      -5.792   1.659  -0.340  0.00  0.00    +0.002 A 
ATOM     20  C   UNL     1      -5.710   2.419  -1.492  0.00  0.00    +0.000 A 
ATOM     21  C   UNL     1      -4.481   2.666  -2.076  0.00  0.00    +0.002 A 
ATOM     22  C   UNL     1      -3.330   2.154  -1.510  0.00  0.00    +0.023 A 
ENDBRANCH  15  17
ENDBRANCH   3  15
BRANCH   1  23
ATOM     23  C   UNL     1       2.657   0.762  -0.105  0.00  0.00    +0.237 C 
BRANCH  23  24
ATOM     24  C   UNL     1       2.879   0.088   1.224  0.00  0.00    +0.326 C 
ATOM     25  O   UNL     1       2.979  -1.115   1.283  0.00  0.00    -0.250 OA
BRANCH  24  26
ATOM     26  O   UNL     1       2.967   0.824   2.344  0.00  0.00    -0.464 OA
BRANCH  26  28
ATOM     27  C   UNL     1       3.254   1.106   4.745  0.00  0.00    +0.048 C 
ATOM     28  C   UNL     1       3.181   0.108   3.588  0.00  0.00    +0.229 C 
ENDBRANCH  26  28
ENDBRANCH  24  26
ENDBRANCH  23  24
BRANCH  23  29
ATOM     29  C   UNL     1       2.597  -0.280  -1.192  0.00  0.00    +0.326 C 
ATOM     30  O   UNL     1       2.722  -1.449  -0.916  0.00  0.00    -0.250 OA
BRANCH  29  31
ATOM     31  O   UNL     1       2.405   0.092  -2.468  0.00  0.00    -0.464 OA
BRANCH  31  32
ATOM     32  C   UNL     1       2.358  -0.965  -3.462  0.00  0.00    +0.229 C 
ATOM     33  C   UNL     1       2.134  -0.353  -4.847  0.00  0.00    +0.048 C 
ENDBRANCH  31  32
ENDBRANCH  29  31
ENDBRANCH  23  29
ENDBRANCH   1  23
TORSDOF 13
