REMARK  Name = ZINC39519561
REMARK  10 active torsions:
REMARK  status: ('A' for Active; 'I' for Inactive)
REMARK    1  A    between atoms: C_1  and  C_2
REMARK    2  A    between atoms: C_2  and  C_3
REMARK    3  A    between atoms: C_6  and  C_9
REMARK    4  A    between atoms: C_9  and  C_11
REMARK    5  A    between atoms: C_9  and  N_16
REMARK    6  A    between atoms: N_16  and  C_17
REMARK    7  A    between atoms: C_17  and  C_18
REMARK    8  A    between atoms: N_23  and  C_24
REMARK    9  A    between atoms: C_24  and  C_25
REMARK   10  A    between atoms: C_25  and  C_26
REMARK                            x       y       z     vdW  Elec       q    Type
REMARK                         _______ _______ _______ _____ _____    ______ ____
ROOT
ATOM      1  N   UNL     1       1.983  -2.940   5.356  0.00  0.00    +0.392 N 
ATOM      2  H   UNL     1       1.135  -2.519   5.705  0.00  0.00    -0.084 HD
ATOM      3  H   UNL     1       1.750  -3.670   4.699  0.00  0.00    -0.084 HD
ENDROOT
BRANCH   1   4
ATOM      4  C   UNL     1       2.797  -1.919   4.683  0.00  0.00    -0.003 C 
BRANCH   4   8
ATOM      5  C   UNL     1       0.731  -0.503   1.223  0.00  0.00    -0.048 A 
ATOM      6  C   UNL     1       2.097  -0.710   1.176  0.00  0.00    +0.004 A 
ATOM      7  C   UNL     1       2.766  -1.167   2.296  0.00  0.00    +0.002 A 
ATOM      8  C   UNL     1       2.068  -1.419   3.463  0.00  0.00    -0.057 A 
ATOM      9  C   UNL     1       0.702  -1.212   3.510  0.00  0.00    +0.002 A 
ATOM     10  C   UNL     1       0.034  -0.750   2.391  0.00  0.00    +0.004 A 
BRANCH   5  12
ATOM     11  C   UNL     1      -0.019   1.526   0.010  0.00  0.00    +0.009 C 
ATOM     12  C   UNL     1       0.002  -0.004   0.002  0.00  0.00    +0.032 C 
ENDBRANCH   5  12
ENDBRANCH   4   8
BRANCH   4  13
ATOM     13  C   UNL     1       3.042  -0.770   5.628  0.00  0.00    -0.020 A 
ATOM     14  C   UNL     1       4.170  -0.042   5.811  0.00  0.00    +0.010 A 
ATOM     15  C   UNL     1       4.165   0.978   6.744  0.00  0.00    +0.008 A 
ATOM     16  C   UNL     1       3.032   1.220   7.448  0.00  0.00    +0.045 A 
ATOM     17  S   UNL     1       1.919  -0.012   6.791  0.00  0.00    -0.103 S 
ENDBRANCH   4  13
ENDBRANCH   1   4
BRANCH   1  18
ATOM     18  C   UNL     1       2.742  -3.513   6.475  0.00  0.00    +0.017 C 
BRANCH  18  19
ATOM     19  C   UNL     1       1.907  -4.561   7.165  0.00  0.00    +0.203 C 
ATOM     20  O   UNL     1       0.790  -4.806   6.763  0.00  0.00    -0.277 OA
ATOM     21  N   UNL     1       2.402  -5.225   8.227  0.00  0.00    -0.242 N 
ATOM     22  C   UNL     1       1.655  -6.163   8.844  0.00  0.00    +0.306 C 
ATOM     23  O   UNL     1       0.535  -6.409   8.441  0.00  0.00    -0.252 OA
ATOM     24  N   UNL     1       2.150  -6.827   9.907  0.00  0.00    -0.299 N 
ATOM     25  H   UNL     1       3.296  -5.029   8.549  0.00  0.00    +0.159 HD
ATOM     26  H   UNL     1       3.044  -6.631  10.228  0.00  0.00    +0.150 HD
BRANCH  24  27
ATOM     27  C   UNL     1       1.338  -7.846  10.577  0.00  0.00    +0.111 C 
BRANCH  27  28
ATOM     28  C   UNL     1       2.129  -8.442  11.743  0.00  0.00    +0.061 C 
BRANCH  28  29
ATOM     29  C   UNL     1       1.294  -9.490  12.433  0.00  0.00    -0.009 A 
ATOM     30  C   UNL     1       1.218 -10.820  12.184  0.00  0.00    +0.011 A 
ATOM     31  C   UNL     1       0.373 -11.599  12.953  0.00  0.00    +0.008 A 
ATOM     32  C   UNL     1      -0.354 -11.009  13.934  0.00  0.00    +0.045 A 
ATOM     33  S   UNL     1       0.154  -9.303  13.794  0.00  0.00    -0.102 S 
ENDBRANCH  28  29
ENDBRANCH  27  28
ENDBRANCH  24  27
ENDBRANCH  18  19
ENDBRANCH   1  18
TORSDOF 9
