REMARK  Name = ZINC20695921
REMARK  3 active torsions:
REMARK  status: ('A' for Active; 'I' for Inactive)
REMARK    1  A    between atoms: C_3  and  O_28
REMARK    2  A    between atoms: C_4  and  C_8
REMARK    3  A    between atoms: C_18  and  N_25
REMARK                            x       y       z     vdW  Elec       q    Type
REMARK                         _______ _______ _______ _____ _____    ______ ____
ROOT
ATOM      1  C   UNL     1       0.001   5.198  -0.059  0.00  0.00    +0.109 C 
ATOM      2  C   UNL     1      -0.027   5.694  -1.490  0.00  0.00    +0.029 C 
ATOM      3  C   UNL     1      -1.150   5.187  -2.403  0.00  0.00    +0.033 C 
ATOM      4  C   UNL     1      -0.470   5.229  -3.774  0.00  0.00    -0.030 C 
ATOM      5  C   UNL     1       0.846   5.110  -3.631  0.00  0.00    -0.023 C 
ATOM      6  C   UNL     1       1.149   4.944  -2.189  0.00  0.00    +0.051 C 
ATOM      7  C   UNL     1       2.399   5.438  -1.571  0.00  0.00    +0.014 A 
ATOM      8  C   UNL     1       3.574   5.533  -2.288  0.00  0.00    +0.132 A 
ATOM      9  C   UNL     1       4.738   5.956  -1.675  0.00  0.00    +0.036 A 
ATOM     10  C   UNL     1       4.722   6.289  -0.332  0.00  0.00    +0.042 A 
ATOM     11  C   UNL     1       3.550   6.208   0.389  0.00  0.00    +0.145 A 
ATOM     12  C   UNL     1       2.364   5.789  -0.220  0.00  0.00    +0.069 A 
ATOM     13  N   UNL     1       1.213   5.750   0.567  0.00  0.00    -0.334 N 
ATOM     14  F   UNL     1       3.548   6.538   1.699  0.00  0.00    -0.204 F 
ATOM     15  H   UNL     1       1.181   6.106   1.608  0.00  0.00    +0.147 HD
ENDROOT
BRANCH   1  19
ATOM     16  C   UNL     1       0.145   0.925   0.003  0.00  0.00    +0.019 A 
ATOM     17  C   UNL     1      -1.076   1.571  -0.035  0.00  0.00    +0.047 A 
ATOM     18  C   UNL     1      -1.126   2.958  -0.050  0.00  0.00    +0.122 A 
ATOM     19  C   UNL     1       0.051   3.692  -0.037  0.00  0.00    +0.015 A 
ATOM     20  C   UNL     1       1.270   3.042  -0.005  0.00  0.00    +0.024 A 
ATOM     21  C   UNL     1       1.317   1.659   0.015  0.00  0.00    +0.018 A 
ATOM     22 BR   UNL     1       2.986   0.772   0.058  0.00  0.00    -0.050 Br
BRANCH  18  23
ATOM     23  O   UNL     1      -2.325   3.595  -0.081  0.00  0.00    -0.506 OA
ATOM     24  H   UNL     1      -2.364   4.694  -0.093  0.00  0.00    +0.292 HD
ENDBRANCH  18  23
ENDBRANCH   1  19
BRANCH   8  25
ATOM     25  N   UNL     1       3.589   5.178  -3.724  0.00  0.00    +0.057 N 
ATOM     26  O   UNL     1       3.158   4.098  -4.089  0.00  0.00    -0.126 OA
ATOM     27  O   UNL     1       4.032   5.964  -4.542  0.00  0.00    -0.126 OA
ENDBRANCH   8  25
TORSDOF 3
