REMARK  Name = ZINC30869512
REMARK  9 active torsions:
REMARK  status: ('A' for Active; 'I' for Inactive)
REMARK    1  A    between atoms: C_1  and  C_2
REMARK    2  A    between atoms: C_5  and  N_19
REMARK    3  A    between atoms: C_7  and  S_8
REMARK    4  A    between atoms: S_8  and  N_11
REMARK    5  A    between atoms: N_11  and  C_12
REMARK    6  A    between atoms: C_20  and  C_22
REMARK    7  A    between atoms: C_22  and  C_23
REMARK    8  A    between atoms: C_23  and  C_25
REMARK    9  A    between atoms: C_23  and  N_31
REMARK                            x       y       z     vdW  Elec       q    Type
REMARK                         _______ _______ _______ _____ _____    ______ ____
ROOT
ATOM      1  C   UNL     1      -0.445   1.474   0.561  0.00  0.00    +0.046 C 
ATOM      2  C   UNL     1      -0.242  -0.017   0.471  0.00  0.00    -0.024 A 
ATOM      3  C   UNL     1      -0.340  -0.796   1.610  0.00  0.00    +0.007 A 
ATOM      4  C   UNL     1      -0.155  -2.162   1.531  0.00  0.00    +0.023 A 
ATOM      5  C   UNL     1       0.129  -2.754   0.307  0.00  0.00    +0.035 A 
ATOM      6  C   UNL     1       0.226  -1.969  -0.835  0.00  0.00    +0.052 A 
ATOM      7  C   UNL     1       0.035  -0.603  -0.750  0.00  0.00    +0.113 A 
ENDROOT
BRANCH   5   8
ATOM      8  N   UNL     1       0.316  -4.138   0.223  0.00  0.00    -0.285 N 
ATOM      9  C   UNL     1       0.918  -4.798   1.232  0.00  0.00    +0.219 C 
ATOM     10  O   UNL     1       1.222  -4.208   2.248  0.00  0.00    -0.275 OA
ATOM     11  H   UNL     1      -0.027  -4.687  -0.666  0.00  0.00    +0.155 HD
BRANCH   9  12
ATOM     12  C   UNL     1       1.215  -6.270   1.099  0.00  0.00    +0.123 C 
BRANCH  12  13
ATOM     13  C   UNL     1       1.896  -6.770   2.375  0.00  0.00    +0.113 C 
BRANCH  13  14
ATOM     14  N   UNL     1       3.202  -6.123   2.518  0.00  0.00    -0.292 N 
ATOM     15  C   UNL     1       3.785  -6.042   3.730  0.00  0.00    +0.298 C 
ATOM     16  O   UNL     1       3.271  -6.584   4.689  0.00  0.00    -0.253 OA
ATOM     17  N   UNL     1       4.937  -5.359   3.879  0.00  0.00    -0.313 N 
ATOM     18  H   UNL     1       3.707  -5.703   1.635  0.00  0.00    +0.151 HD
ATOM     19  H   UNL     1       5.413  -5.292   4.869  0.00  0.00    +0.146 HD
ATOM     20  H   UNL     1       5.402  -4.868   3.011  0.00  0.00    +0.146 HD
ENDBRANCH  13  14
BRANCH  13  21
ATOM     21  C   UNL     1       2.081  -8.264   2.292  0.00  0.00    -0.027 A 
ATOM     22  C   UNL     1       3.157  -8.789   1.601  0.00  0.00    +0.005 A 
ATOM     23  C   UNL     1       3.330 -10.159   1.529  0.00  0.00    +0.000 A 
ATOM     24  C   UNL     1       2.421 -11.003   2.140  0.00  0.00    +0.000 A 
ATOM     25  C   UNL     1       1.343 -10.478   2.827  0.00  0.00    +0.000 A 
ATOM     26  C   UNL     1       1.173  -9.108   2.902  0.00  0.00    +0.005 A 
ENDBRANCH  13  21
ENDBRANCH  12  13
ENDBRANCH   9  12
ENDBRANCH   5   8
BRANCH   7  27
ATOM     27  S   UNL     1       0.151   0.393  -2.199  0.00  0.00    +0.073 S 
ATOM     28  O   UNL     1       1.030   1.464  -1.885  0.00  0.00    -0.150 OA
ATOM     29  O   UNL     1       0.387  -0.494  -3.283  0.00  0.00    -0.150 OA
BRANCH  27  30
ATOM     30  N   UNL     1      -1.342   1.064  -2.452  0.00  0.00    -0.216 N 
ATOM     31  H   UNL     1      -1.466   2.157  -2.423  0.00  0.00    +0.174 HD
BRANCH  30  32
ATOM     32  C   UNL     1      -2.444   0.243  -2.703  0.00  0.00    +0.048 A 
ATOM     33  C   UNL     1      -2.340  -0.804  -3.610  0.00  0.00    +0.026 A 
ATOM     34  C   UNL     1      -3.429  -1.618  -3.852  0.00  0.00    +0.022 A 
ATOM     35  C   UNL     1      -4.627  -1.385  -3.199  0.00  0.00    +0.041 A 
ATOM     36  C   UNL     1      -4.735  -0.340  -2.299  0.00  0.00    +0.022 A 
ATOM     37  C   UNL     1      -3.648   0.474  -2.049  0.00  0.00    +0.026 A 
ATOM     38 CL   UNL     1      -5.996  -2.405  -3.511  0.00  0.00    -0.084 Cl
ENDBRANCH  30  32
ENDBRANCH  27  30
ENDBRANCH   7  27
TORSDOF 8
