REMARK  Name = ZINC36642670
REMARK  10 active torsions:
REMARK  status: ('A' for Active; 'I' for Inactive)
REMARK    1  A    between atoms: C_1  and  C_2
REMARK    2  A    between atoms: C_2  and  N_3
REMARK    3  A    between atoms: N_3  and  C_4
REMARK    4  A    between atoms: N_3  and  C_6
REMARK    5  A    between atoms: C_4  and  C_5
REMARK    6  A    between atoms: C_6  and  C_7
REMARK    7  A    between atoms: C_7  and  N_8
REMARK    8  A    between atoms: C_20  and  C_22
REMARK    9  A    between atoms: C_25  and  N_31
REMARK   10  A    between atoms: C_26  and  N_28
REMARK                            x       y       z     vdW  Elec       q    Type
REMARK                         _______ _______ _______ _____ _____    ______ ____
ROOT
ATOM      1  N   UNL     1       1.085  -4.224  -2.965  0.00  0.00    -0.248 N 
ATOM      2  C   UNL     1       0.275  -4.838  -3.905  0.00  0.00    +0.168 A 
ATOM      3  N   UNL     1      -0.186  -4.356  -5.035  0.00  0.00    -0.221 NA
ATOM      4  C   UNL     1      -0.975  -5.076  -5.864  0.00  0.00    +0.116 A 
ATOM      5  C   UNL     1      -1.535  -4.678  -7.102  0.00  0.00    +0.152 A 
ATOM      6  C   UNL     1      -2.321  -5.539  -7.825  0.00  0.00    +0.079 A 
ATOM      7  C   UNL     1      -2.594  -6.824  -7.373  0.00  0.00    +0.127 A 
ATOM      8  C   UNL     1      -2.061  -7.245  -6.167  0.00  0.00    +0.055 A 
ATOM      9  C   UNL     1      -1.273  -6.389  -5.437  0.00  0.00    +0.046 A 
ATOM     10  S   UNL     1      -0.401  -6.492  -3.893  0.00  0.00    -0.052 S 
ATOM     11  F   UNL     1      -3.371  -7.654  -8.103  0.00  0.00    -0.205 F 
ATOM     12  F   UNL     1      -1.294  -3.436  -7.576  0.00  0.00    -0.203 F 
ATOM     13  C   UNL     1       1.462  -4.895  -1.859  0.00  0.00    +0.252 C 
ATOM     14  O   UNL     1       1.137  -6.057  -1.712  0.00  0.00    -0.270 OA
ENDROOT
BRANCH  13  15
ATOM     15  C   UNL     1       2.268  -4.219  -0.825  0.00  0.00    +0.040 A 
ATOM     16  C   UNL     1       2.136  -2.842  -0.622  0.00  0.00    +0.015 A 
ATOM     17  C   UNL     1       2.889  -2.215   0.343  0.00  0.00    +0.026 A 
ATOM     18  C   UNL     1       3.783  -2.949   1.117  0.00  0.00    +0.060 A 
ATOM     19  C   UNL     1       3.918  -4.321   0.917  0.00  0.00    +0.148 A 
ATOM     20  C   UNL     1       3.163  -4.955  -0.043  0.00  0.00    +0.047 A 
BRANCH  18  21
ATOM     21  N   UNL     1       4.544  -2.312   2.091  0.00  0.00    -0.328 N 
ATOM     22  C   UNL     1       5.862  -1.751   1.764  0.00  0.00    +0.105 C 
ATOM     23  C   UNL     1       5.893  -0.281   2.194  0.00  0.00    +0.019 C 
ATOM     24  C   UNL     1       5.516  -0.179   3.674  0.00  0.00    +0.003 C 
ATOM     25  C   UNL     1       4.096  -0.712   3.878  0.00  0.00    +0.019 C 
ATOM     26  C   UNL     1       4.043  -2.182   3.466  0.00  0.00    +0.105 C 
ENDBRANCH  18  21
BRANCH  19  27
ATOM     27  N   UNL     1       4.870  -5.098   1.743  0.00  0.00    +0.058 N 
ATOM     28  O   UNL     1       4.987  -6.289   1.570  0.00  0.00    -0.126 OA
ATOM     29  O   UNL     1       5.530  -4.542   2.589  0.00  0.00    -0.126 OA
ENDBRANCH  19  27
ENDBRANCH  13  15
BRANCH   1  30
ATOM     30  C   UNL     1       1.533  -2.844  -3.173  0.00  0.00    +0.097 C 
BRANCH  30  31
ATOM     31  C   UNL     1       0.389  -1.882  -2.844  0.00  0.00    -0.059 C 
BRANCH  31  32
ATOM     32  N   UNL     1       0.873  -0.498  -2.933  0.00  0.00    +0.380 N 
ATOM     33  H   UNL     1       1.672  -0.381  -2.327  0.00  0.00    -0.082 HD
BRANCH  32  35
ATOM     34  C   UNL     1       1.882   1.194  -4.388  0.00  0.00    -0.017 C 
ATOM     35  C   UNL     1       1.263  -0.203  -4.318  0.00  0.00    -0.082 C 
ENDBRANCH  32  35
BRANCH  32  36
ATOM     36  C   UNL     1      -0.195   0.422  -2.518  0.00  0.00    -0.082 C 
ATOM     37  C   UNL     1      -0.481   0.231  -1.027  0.00  0.00    -0.017 C 
ENDBRANCH  32  36
ENDBRANCH  31  32
ENDBRANCH  30  31
ENDBRANCH   1  30
TORSDOF 8
