REMARK  Name = ZINC13252340
REMARK  9 active torsions:
REMARK  status: ('A' for Active; 'I' for Inactive)
REMARK    1  A    between atoms: C_1  and  C_2
REMARK    2  A    between atoms: C_5  and  N_9
REMARK    3  A    between atoms: C_7  and  C_8
REMARK    4  A    between atoms: N_9  and  S_10
REMARK    5  A    between atoms: S_10  and  C_13
REMARK    6  A    between atoms: C_16  and  N_19
REMARK    7  A    between atoms: C_20  and  C_22
REMARK    8  A    between atoms: C_22  and  C_23
REMARK    9  A    between atoms: C_23  and  C_28
REMARK                            x       y       z     vdW  Elec       q    Type
REMARK                         _______ _______ _______ _____ _____    ______ ____
ROOT
ATOM      1  C   UNL     1       6.620   3.657  -1.178  0.00  0.00    +0.109 A 
ATOM      2  C   UNL     1       5.609   4.545  -0.862  0.00  0.00    +0.030 A 
ATOM      3  C   UNL     1       4.296   4.119  -0.839  0.00  0.00    +0.025 A 
ATOM      4  C   UNL     1       3.991   2.796  -1.133  0.00  0.00    +0.033 A 
ATOM      5  C   UNL     1       5.010   1.905  -1.444  0.00  0.00    +0.025 A 
ATOM      6  C   UNL     1       6.321   2.339  -1.471  0.00  0.00    +0.030 A 
ENDROOT
BRANCH   4   7
ATOM      7  N   UNL     1       2.662   2.361  -1.109  0.00  0.00    -0.285 N 
ATOM      8  C   UNL     1       2.252   1.402  -1.963  0.00  0.00    +0.218 C 
ATOM      9  O   UNL     1       3.008   0.983  -2.814  0.00  0.00    -0.275 OA
ATOM     10  H   UNL     1       2.035   2.749  -0.479  0.00  0.00    +0.155 HD
BRANCH   8  11
ATOM     11  C   UNL     1       0.853   0.850  -1.861  0.00  0.00    +0.114 C 
BRANCH  11  12
ATOM     12  C   UNL     1       0.687  -0.305  -2.851  0.00  0.00    +0.080 C 
ATOM     13  C   UNL     1      -0.715  -0.931  -2.702  0.00  0.00    +0.019 C 
ATOM     14  C   UNL     1      -0.479  -2.447  -2.913  0.00  0.00    +0.001 C 
ATOM     15  C   UNL     1       0.880  -2.682  -2.208  0.00  0.00    +0.001 C 
ATOM     16  C   UNL     1       1.701  -1.419  -2.536  0.00  0.00    +0.019 C 
BRANCH  12  17
ATOM     17  C   UNL     1       0.885   0.191  -4.260  0.00  0.00    +0.362 C 
ATOM     18  O   UNL     1       1.695  -0.344  -4.980  0.00  0.00    -0.246 OA
ATOM     19  O   UNL     1       0.162   1.226  -4.715  0.00  0.00    -0.246 OA
ENDBRANCH  12  17
ENDBRANCH  11  12
ENDBRANCH   8  11
ENDBRANCH   4   7
BRANCH   1  20
ATOM     20  S   UNL     1       8.295   4.205  -1.208  0.00  0.00    +0.072 S 
ATOM     21  O   UNL     1       8.978   3.374  -2.135  0.00  0.00    -0.150 OA
ATOM     22  O   UNL     1       8.257   5.620  -1.337  0.00  0.00    -0.150 OA
BRANCH  20  23
ATOM     23  N   UNL     1       8.941   3.883   0.282  0.00  0.00    -0.216 N 
ATOM     24  H   UNL     1       9.254   4.610   0.843  0.00  0.00    +0.174 HD
BRANCH  23  29
ATOM     25  C   UNL     1       9.333  -1.472   2.107  0.00  0.00    +0.044 C 
ATOM     26  C   UNL     1       9.229  -0.049   1.622  0.00  0.00    -0.047 A 
ATOM     27  C   UNL     1       8.268   0.792   2.153  0.00  0.00    +0.005 A 
ATOM     28  C   UNL     1       8.174   2.099   1.715  0.00  0.00    +0.025 A 
ATOM     29  C   UNL     1       9.038   2.564   0.732  0.00  0.00    +0.048 A 
ATOM     30  C   UNL     1      10.001   1.716   0.200  0.00  0.00    +0.028 A 
ATOM     31  C   UNL     1      10.094   0.412   0.647  0.00  0.00    -0.046 A 
ATOM     32  C   UNL     1      11.139  -0.508   0.071  0.00  0.00    +0.044 C 
ENDBRANCH  23  29
ENDBRANCH  20  23
ENDBRANCH   1  20
TORSDOF 7
