REMARK  Name = ZINC61119908
REMARK  1 active torsions:
REMARK  status: ('A' for Active; 'I' for Inactive)
REMARK    1  A    between atoms: N_10  and  C_11
REMARK                            x       y       z     vdW  Elec       q    Type
REMARK                         _______ _______ _______ _____ _____    ______ ____
ROOT
ATOM      1  C   UNL     1      -0.017   1.383   0.010  0.00  0.00    +0.017 A 
ATOM      2  C   UNL     1       1.164   2.098   0.002  0.00  0.00    +0.029 A 
ATOM      3  C   UNL     1       2.377   1.427  -0.013  0.00  0.00    +0.075 A 
ATOM      4  C   UNL     1       2.402   0.023  -0.021  0.00  0.00    +0.092 A 
ATOM      5  C   UNL     1       1.199  -0.687  -0.014  0.00  0.00    +0.045 A 
ATOM      6  C   UNL     1       0.002  -0.004   0.002  0.00  0.00    +0.020 A 
ATOM      7 BR   UNL     1      -1.627  -0.965   0.013  0.00  0.00    -0.050 Br
ATOM      8  N   UNL     1       3.708  -0.354  -0.035  0.00  0.00    -0.214 NA
ATOM      9  C   UNL     1       4.474   0.708  -0.037  0.00  0.00    +0.199 A 
ATOM     10  N   UNL     1       3.702   1.837  -0.023  0.00  0.00    -0.278 N 
ATOM     11  N   UNL     1       5.853   0.691  -0.050  0.00  0.00    -0.329 N 
ATOM     12  H   UNL     1       6.327  -0.155  -0.058  0.00  0.00    +0.145 HD
ATOM     13  H   UNL     1       6.348   1.525  -0.049  0.00  0.00    +0.145 HD
ENDROOT
BRANCH  10  14
ATOM     14  C   UNL     1       4.164   3.161  -0.021  0.00  0.00    +0.090 A 
ATOM     15  C   UNL     1       4.409   3.809   1.181  0.00  0.00    +0.067 A 
ATOM     16  C   UNL     1       4.865   5.116   1.182  0.00  0.00    +0.128 A 
ATOM     17  C   UNL     1       5.076   5.778  -0.016  0.00  0.00    +0.079 A 
ATOM     18  C   UNL     1       4.832   5.134  -1.217  0.00  0.00    +0.163 A 
ATOM     19  C   UNL     1       4.381   3.824  -1.223  0.00  0.00    +0.182 A 
ATOM     20  F   UNL     1       4.149   3.194  -2.395  0.00  0.00    -0.200 F 
ATOM     21  F   UNL     1       5.038   5.782  -2.385  0.00  0.00    -0.202 F 
ATOM     22  F   UNL     1       5.104   5.746   2.353  0.00  0.00    -0.205 F 
ENDBRANCH  10  14
TORSDOF 1
