REMARK  Name = ZINC16010190
REMARK  5 active torsions:
REMARK  status: ('A' for Active; 'I' for Inactive)
REMARK    1  A    between atoms: C_1  and  C_2
REMARK    2  A    between atoms: C_4  and  N_36
REMARK    3  A    between atoms: C_5  and  O_34
REMARK    4  A    between atoms: C_7  and  N_8
REMARK    5  A    between atoms: O_34  and  C_35
REMARK                            x       y       z     vdW  Elec       q    Type
REMARK                         _______ _______ _______ _____ _____    ______ ____
ROOT
ATOM      1  N   UNL     1       2.403   1.105  -0.015  0.00  0.00    -0.210 N 
ATOM      2  C   UNL     1       3.025   0.759  -1.148  0.00  0.00    +0.228 C 
ATOM      3  O   UNL     1       2.619   0.985  -2.267  0.00  0.00    -0.275 OA
ATOM      4  C   UNL     1       4.314   0.042  -0.814  0.00  0.00    +0.074 C 
ATOM      5  C   UNL     1       4.199  -1.437  -1.227  0.00  0.00    -0.054 C 
ATOM      6  C   UNL     1       3.139  -1.576  -2.334  0.00  0.00    -0.016 C 
ATOM      7  C   UNL     1       1.812  -1.851  -1.602  0.00  0.00    -0.020 C 
ATOM      8  C   UNL     1       2.166  -1.827  -0.102  0.00  0.00    -0.076 C 
ATOM      9  N   UNL     1       3.616  -2.131  -0.039  0.00  0.00    +0.395 N 
ATOM     10  C   UNL     1       4.219  -1.449   1.119  0.00  0.00    +0.053 C 
ATOM     11  C   UNL     1       4.327   0.032   0.739  0.00  0.00    +0.089 C 
ATOM     12  C   UNL     1       3.048   0.752   1.103  0.00  0.00    +0.229 C 
ATOM     13  O   UNL     1       2.666   0.972   2.232  0.00  0.00    -0.275 OA
ATOM     14  C   UNL     1       5.562  -2.029   1.463  0.00  0.00    -0.024 A 
ATOM     15  C   UNL     1       6.742  -2.163   0.766  0.00  0.00    +0.043 A 
ATOM     16  C   UNL     1       7.839  -2.759   1.369  0.00  0.00    +0.124 A 
ATOM     17  C   UNL     1       7.743  -3.218   2.672  0.00  0.00    +0.040 A 
ATOM     18  C   UNL     1       6.562  -3.083   3.372  0.00  0.00    +0.026 A 
ATOM     19  C   UNL     1       5.456  -2.487   2.773  0.00  0.00    +0.036 A 
ATOM     20  N   UNL     1       4.172  -2.241   3.267  0.00  0.00    -0.286 N 
ATOM     21  C   UNL     1       3.385  -1.635   2.358  0.00  0.00    +0.212 C 
ATOM     22  O   UNL     1       2.228  -1.303   2.508  0.00  0.00    -0.277 OA
ATOM     23  F   UNL     1       8.998  -2.891   0.687  0.00  0.00    -0.205 F 
ATOM     24  H   UNL     1       3.911  -2.540   4.293  0.00  0.00    +0.155 HD
ATOM     25  H   UNL     1       3.785  -3.216   0.021  0.00  0.00    -0.079 HD
ENDROOT
BRANCH   1  32
ATOM     26  C   UNL     1       2.450   3.949  -0.000  0.00  0.00    +0.046 C 
ATOM     27  C   UNL     1       1.157   3.175   0.008  0.00  0.00    -0.026 A 
ATOM     28  C   UNL     1      -0.050   3.848   0.024  0.00  0.00    +0.041 A 
ATOM     29  C   UNL     1      -1.238   3.142   0.032  0.00  0.00    +0.168 A 
ATOM     30  C   UNL     1      -1.221   1.754   0.017  0.00  0.00    +0.152 A 
ATOM     31  C   UNL     1      -0.013   1.076   0.008  0.00  0.00    +0.072 A 
ATOM     32  C   UNL     1       1.179   1.787   0.000  0.00  0.00    +0.050 A 
BRANCH  29  33
ATOM     33  N   UNL     1      -2.529   3.866   0.049  0.00  0.00    +0.060 N 
ATOM     34  O   UNL     1      -2.544   5.083   0.056  0.00  0.00    -0.126 OA
ATOM     35  O   UNL     1      -3.576   3.244   0.056  0.00  0.00    -0.126 OA
ENDBRANCH  29  33
BRANCH  30  36
ATOM     36  O   UNL     1      -2.390   1.060   0.019  0.00  0.00    -0.493 OA
ATOM     37  C   UNL     1      -2.298  -0.366   0.011  0.00  0.00    +0.277 C 
ENDBRANCH  30  36
ENDBRANCH   1  32
TORSDOF 3
