REMARK  Name = ZINC09789004
REMARK  4 active torsions:
REMARK  status: ('A' for Active; 'I' for Inactive)
REMARK    1  A    between atoms: C_1  and  C_2
REMARK    2  A    between atoms: C_9  and  C_11
REMARK    3  A    between atoms: N_16  and  C_19
REMARK    4  A    between atoms: N_22  and  C_27
REMARK                            x       y       z     vdW  Elec       q    Type
REMARK                         _______ _______ _______ _____ _____    ______ ____
ROOT
ATOM      1  C   UNL     1      -1.478  -1.642   0.169  0.00  0.00    +0.253 C 
ATOM      2  O   UNL     1      -1.566  -2.837   0.385  0.00  0.00    -0.269 OA
ATOM      3  N   UNL     1      -2.579  -0.866   0.213  0.00  0.00    -0.294 N 
ATOM      4  C   UNL     1      -2.525   0.545  -0.197  0.00  0.00    +0.127 C 
ATOM      5  C   UNL     1      -3.651   0.796  -1.212  0.00  0.00    +0.124 C 
ATOM      6  N   UNL     1      -4.931   0.367  -0.632  0.00  0.00    -0.324 N 
ATOM      7  C   UNL     1      -4.938  -1.077  -0.366  0.00  0.00    +0.124 C 
ATOM      8  C   UNL     1      -3.865  -1.407   0.678  0.00  0.00    +0.127 C 
ENDROOT
BRANCH   1  16
ATOM      9  C   UNL     1       5.793  -0.899  -1.823  0.00  0.00    +0.008 C 
ATOM     10  C   UNL     1       4.358  -0.392  -1.667  0.00  0.00    -0.009 C 
ATOM     11  C   UNL     1       4.360   0.887  -0.824  0.00  0.00    +0.009 C 
ATOM     12  C   UNL     1       2.968   1.531  -0.901  0.00  0.00    +0.043 C 
ATOM     13  C   UNL     1       1.942   0.469  -0.650  0.00  0.00    -0.006 A 
ATOM     14  C   UNL     1       2.134  -0.883  -0.673  0.00  0.00    -0.036 A 
ATOM     15  C   UNL     1       1.029  -1.675  -0.407  0.00  0.00    +0.024 A 
ATOM     16  C   UNL     1      -0.174  -1.048  -0.140  0.00  0.00    +0.075 A 
ATOM     17  S   UNL     1       0.275   0.675  -0.271  0.00  0.00    -0.088 S 
ATOM     18  C   UNL     1       3.511  -1.465  -0.982  0.00  0.00    +0.039 C 
ENDBRANCH   1  16
BRANCH   6  19
ATOM     19  C   UNL     1      -5.991   0.728  -1.447  0.00  0.00    +0.074 A 
ATOM     20  C   UNL     1      -6.114   0.177  -2.740  0.00  0.00    +0.158 A 
ATOM     21  N   UNL     1      -7.114   0.510  -3.507  0.00  0.00    -0.170 NA
ATOM     22  N   UNL     1      -8.079   1.427  -3.076  0.00  0.00    -0.195 N 
ATOM     23  C   UNL     1      -7.998   1.981  -1.850  0.00  0.00    +0.292 A 
ATOM     24  O   UNL     1      -8.844   2.780  -1.480  0.00  0.00    -0.264 OA
ATOM     25  C   UNL     1      -6.936   1.635  -1.003  0.00  0.00    +0.129 A 
ATOM     26 CL   UNL     1      -6.809   2.335   0.581  0.00  0.00    -0.076 Cl
BRANCH  22  27
ATOM     27  C   UNL     1      -9.138   1.770  -3.924  0.00  0.00    +0.069 A 
ATOM     28  C   UNL     1     -10.443   1.758  -3.448  0.00  0.00    +0.028 A 
ATOM     29  C   UNL     1     -11.485   2.104  -4.286  0.00  0.00    +0.002 A 
ATOM     30  C   UNL     1     -11.232   2.449  -5.601  0.00  0.00    +0.000 A 
ATOM     31  C   UNL     1      -9.934   2.456  -6.079  0.00  0.00    +0.002 A 
ATOM     32  C   UNL     1      -8.887   2.118  -5.245  0.00  0.00    +0.028 A 
ENDBRANCH  22  27
ENDBRANCH   6  19
TORSDOF 3
