REMARK  Name = ZINC63000893
REMARK  8 active torsions:
REMARK  status: ('A' for Active; 'I' for Inactive)
REMARK    1  A    between atoms: C_4  and  CA_7
REMARK    2  A    between atoms: CA_7  and  C_9
REMARK    3  A    between atoms: CA_7  and  N_11
REMARK    4  A    between atoms: C_9  and  O_10
REMARK    5  A    between atoms: N_11  and  C_12
REMARK    6  A    between atoms: C_15  and  S_19
REMARK    7  A    between atoms: C_17  and  N_18
REMARK    8  A    between atoms: S_19  and  N_22
REMARK                            x       y       z     vdW  Elec       q    Type
REMARK                         _______ _______ _______ _____ _____    ______ ____
ROOT
ATOM      1  C   UNL     1       4.795  -2.405   1.412  0.00  0.00    +0.049 A 
ATOM      2  C   UNL     1       6.026  -1.825   1.143  0.00  0.00    +0.027 A 
ATOM      3  C   UNL     1       7.175  -2.352   1.704  0.00  0.00    +0.030 A 
ATOM      4  C   UNL     1       7.101  -3.455   2.533  0.00  0.00    +0.107 A 
ATOM      5  C   UNL     1       5.878  -4.040   2.807  0.00  0.00    +0.053 A 
ATOM      6  C   UNL     1       4.720  -3.515   2.253  0.00  0.00    +0.048 A 
ENDROOT
BRANCH   6   7
ATOM      7  N   UNL     1       3.480  -4.102   2.532  0.00  0.00    -0.356 N 
ATOM      8  H   UNL     1       2.671  -3.736   2.141  0.00  0.00    +0.142 HD
ATOM      9  H   UNL     1       3.429  -4.874   3.117  0.00  0.00    +0.142 HD
ENDBRANCH   6   7
BRANCH   4  10
ATOM     10  S   UNL     1       8.570  -4.120   3.244  0.00  0.00    +0.056 S 
ATOM     11  O   UNL     1       8.296  -5.481   3.545  0.00  0.00    -0.153 OA
ATOM     12  O   UNL     1       9.643  -3.728   2.399  0.00  0.00    -0.153 OA
BRANCH  10  13
ATOM     13  N   UNL     1       8.804  -3.353   4.692  0.00  0.00    -0.204 NA
ATOM     14  H   UNL     1       8.176  -2.676   4.990  0.00  0.00    +0.144 HD
ATOM     15  H   UNL     1       9.569  -3.580   5.244  0.00  0.00    +0.144 HD
ENDBRANCH  10  13
ENDBRANCH   4  10
BRANCH   1  16
ATOM     16  N   UNL     1       3.630  -1.873   0.845  0.00  0.00    -0.333 N 
ATOM     17  H   UNL     1       2.769  -2.277   1.038  0.00  0.00    +0.147 HD
BRANCH  16  18
ATOM     18  CA  UNL     1       3.711  -0.707  -0.038  0.00  0.00    +0.126 C 
BRANCH  18  22
ATOM     19  C   UNL     1      -0.017   1.378   0.010  0.00  0.00    +0.000 A 
ATOM     20  C   UNL     1       1.171   2.086   0.002  0.00  0.00    +0.000 A 
ATOM     21  C   UNL     1       2.377   1.411  -0.013  0.00  0.00    +0.005 A 
ATOM     22  C   UNL     1       2.396   0.029  -0.020  0.00  0.00    -0.025 A 
ATOM     23  C   UNL     1       1.208  -0.679  -0.012  0.00  0.00    +0.005 A 
ATOM     24  C   UNL     1       0.002  -0.004   0.002  0.00  0.00    +0.000 A 
ENDBRANCH  18  22
BRANCH  18  25
ATOM     25  C   UNL     1       4.019  -1.168  -1.464  0.00  0.00    +0.182 C 
BRANCH  25  26
ATOM     26  O   UNL     1       2.926  -1.943  -1.960  0.00  0.00    -0.393 OA
ATOM     27  H   UNL     1       3.053  -2.268  -2.862  0.00  0.00    +0.209 HD
ENDBRANCH  25  26
ENDBRANCH  18  25
ENDBRANCH  16  18
ENDBRANCH   1  16
TORSDOF 8
