REMARK  Name = ZINC29660365
REMARK  5 active torsions:
REMARK  status: ('A' for Active; 'I' for Inactive)
REMARK    1  A    between atoms: C_3  and  C_27
REMARK    2  A    between atoms: C_4  and  N_8
REMARK    3  A    between atoms: C_9  and  C_11
REMARK    4  A    between atoms: C_11  and  N_12
REMARK    5  A    between atoms: C_18  and  C_20
REMARK                            x       y       z     vdW  Elec       q    Type
REMARK                         _______ _______ _______ _____ _____    ______ ____
ROOT
ATOM      1  C   UNL     1       4.687   2.416   4.255  0.00  0.00    +0.019 C 
ENDROOT
BRANCH   1   2
ATOM      2  N   UNL     1       4.550   1.703   2.978  0.00  0.00    +0.387 N 
ATOM      3  C   UNL     1       5.232   0.403   3.025  0.00  0.00    -0.059 C 
ATOM      4  C   UNL     1       5.222  -0.226   1.627  0.00  0.00    +0.089 C 
ATOM      5  N   UNL     1       3.833  -0.269   1.144  0.00  0.00    -0.301 N 
ATOM      6  C   UNL     1       3.042   0.969   1.190  0.00  0.00    +0.089 C 
ATOM      7  C   UNL     1       3.136   1.550   2.610  0.00  0.00    -0.059 C 
ATOM      8  C   UNL     1       3.303  -1.413   0.668  0.00  0.00    +0.246 C 
ATOM      9  O   UNL     1       3.982  -2.418   0.604  0.00  0.00    -0.270 OA
ATOM     10  H   UNL     1       5.035   2.308   2.198  0.00  0.00    -0.081 HD
BRANCH   8  11
ATOM     11  C   UNL     1       1.896  -1.442   0.217  0.00  0.00    +0.037 A 
ATOM     12  C   UNL     1       1.320  -0.307  -0.358  0.00  0.00    +0.016 A 
ATOM     13  C   UNL     1       0.009  -0.343  -0.783  0.00  0.00    +0.039 A 
ATOM     14  C   UNL     1      -0.741  -1.498  -0.627  0.00  0.00    +0.123 A 
ATOM     15  C   UNL     1      -0.177  -2.626  -0.051  0.00  0.00    +0.039 A 
ATOM     16  C   UNL     1       1.135  -2.603   0.371  0.00  0.00    +0.016 A 
ATOM     17  F   UNL     1      -2.028  -1.525  -1.040  0.00  0.00    -0.205 F 
ENDBRANCH   8  11
ENDBRANCH   1   2
BRANCH   1  19
ATOM     18  N   UNL     1       4.062   2.057   6.622  0.00  0.00    -0.285 N 
ATOM     19  C   UNL     1       4.002   1.631   5.345  0.00  0.00    +0.201 C 
ATOM     20  O   UNL     1       3.396   0.616   5.072  0.00  0.00    -0.278 OA
ATOM     21  H   UNL     1       4.553   3.011   6.861  0.00  0.00    +0.155 HD
BRANCH  18  25
ATOM     22  C   UNL     1       2.386  -0.243   9.666  0.00  0.00    +0.002 A 
ATOM     23  C   UNL     1       3.676   0.238   9.795  0.00  0.00    +0.014 A 
ATOM     24  C   UNL     1       4.236   0.996   8.785  0.00  0.00    +0.077 A 
ATOM     25  C   UNL     1       3.498   1.285   7.644  0.00  0.00    +0.064 A 
ATOM     26  C   UNL     1       2.202   0.800   7.518  0.00  0.00    +0.063 A 
ATOM     27  C   UNL     1       1.650   0.037   8.530  0.00  0.00    +0.022 A 
ATOM     28 CL   UNL     1       1.278   1.153   6.091  0.00  0.00    -0.082 Cl
BRANCH  24  29
ATOM     29  C   UNL     1       5.644   1.514   8.924  0.00  0.00    +0.419 C 
ATOM     30  F   UNL     1       6.177   1.096  10.148  0.00  0.00    -0.166 F 
ATOM     31  F   UNL     1       6.430   1.016   7.879  0.00  0.00    -0.166 F 
ATOM     32  F   UNL     1       5.634   2.912   8.873  0.00  0.00    -0.166 F 
ENDBRANCH  24  29
ENDBRANCH  18  25
ENDBRANCH   1  19
TORSDOF 5
