REMARK  Name = ZINC02415995
REMARK  5 active torsions:
REMARK  status: ('A' for Active; 'I' for Inactive)
REMARK    1  A    between atoms: C_1  and  C_2
REMARK    2  A    between atoms: C_8  and  C_24
REMARK    3  A    between atoms: C_27  and  O_30
REMARK    4  A    between atoms: O_30  and  C_31
REMARK    5  A    between atoms: C_31  and  C_32
REMARK                            x       y       z     vdW  Elec       q    Type
REMARK                         _______ _______ _______ _____ _____    ______ ____
ROOT
ATOM      1  C   UNL     1      -7.828   5.083   0.112  0.00  0.00    +0.066 C 
ATOM      2  C   UNL     1      -6.966   3.847   0.095  0.00  0.00    +0.047 A 
ATOM      3  C   UNL     1      -7.525   2.612   0.094  0.00  0.00    +0.071 A 
ATOM      4  S   UNL     1      -6.062   1.586   0.065  0.00  0.00    -0.060 S 
ATOM      5  C   UNL     1      -4.889   2.866   0.068  0.00  0.00    +0.168 A 
ATOM      6  N   UNL     1      -5.652   3.942   0.082  0.00  0.00    -0.230 NA
ATOM      7  N   UNL     1      -3.504   2.779   0.053  0.00  0.00    -0.232 N 
ATOM      8  C   UNL     1      -2.716   1.540   0.038  0.00  0.00    +0.151 C 
ATOM      9  C   UNL     1      -1.272   1.966   0.019  0.00  0.00    +0.072 A 
ATOM     10  C   UNL     1      -0.014   1.214   0.009  0.00  0.00    +0.199 A 
ATOM     11  O   UNL     1       0.002  -0.004   0.002  0.00  0.00    -0.287 OA
ATOM     12  C   UNL     1       1.231   2.006   0.001  0.00  0.00    +0.065 A 
ATOM     13  C   UNL     1       2.483   1.392  -0.014  0.00  0.00    +0.030 A 
ATOM     14  C   UNL     1       3.621   2.170  -0.020  0.00  0.00    +0.019 A 
ATOM     15  C   UNL     1       3.520   3.555  -0.012  0.00  0.00    +0.019 A 
ATOM     16  C   UNL     1       2.288   4.172   0.003  0.00  0.00    +0.048 A 
ATOM     17  C   UNL     1       1.125   3.408   0.010  0.00  0.00    +0.140 A 
ATOM     18  O   UNL     1      -0.083   4.000   0.025  0.00  0.00    -0.450 OA
ATOM     19  C   UNL     1      -1.247   3.322   0.033  0.00  0.00    +0.199 A 
ATOM     20  C   UNL     1      -2.647   3.814   0.050  0.00  0.00    +0.289 C 
ATOM     21  O   UNL     1      -2.971   4.985   0.059  0.00  0.00    -0.266 OA
ATOM     22 BR   UNL     1       5.324   1.349  -0.041  0.00  0.00    -0.050 Br
ENDROOT
BRANCH   8  23
ATOM     23  C   UNL     1      -3.032   0.739  -1.199  0.00  0.00    -0.022 A 
ATOM     24  C   UNL     1      -3.243   1.384  -2.403  0.00  0.00    +0.009 A 
ATOM     25  C   UNL     1      -3.527   0.651  -3.540  0.00  0.00    +0.046 A 
ATOM     26  C   UNL     1      -3.612  -0.731  -3.469  0.00  0.00    +0.121 A 
ATOM     27  C   UNL     1      -3.406  -1.376  -2.258  0.00  0.00    +0.046 A 
ATOM     28  C   UNL     1      -3.116  -0.639  -1.126  0.00  0.00    +0.009 A 
BRANCH  26  29
ATOM     29  O   UNL     1      -3.897  -1.454  -4.585  0.00  0.00    -0.488 OA
BRANCH  29  30
ATOM     30  C   UNL     1      -4.098  -0.723  -5.796  0.00  0.00    +0.256 C 
BRANCH  30  31
ATOM     31  C   UNL     1      -4.401  -1.684  -6.917  0.00  0.00    +0.006 C 
ATOM     32  C   UNL     1      -5.379  -1.429  -7.752  0.00  0.00    +0.007 C 
ENDBRANCH  30  31
ENDBRANCH  29  30
ENDBRANCH  26  29
ENDBRANCH   8  23
TORSDOF 4
