REMARK  Name = ZINC13200734
REMARK  8 active torsions:
REMARK  status: ('A' for Active; 'I' for Inactive)
REMARK    1  A    between atoms: C_1  and  C_2
REMARK    2  A    between atoms: C_5  and  N_9
REMARK    3  A    between atoms: C_6  and  C_8
REMARK    4  A    between atoms: C_13  and  C_15
REMARK    5  A    between atoms: C_15  and  S_16
REMARK    6  A    between atoms: S_16  and  C_17
REMARK    7  A    between atoms: C_21  and  C_29
REMARK    8  A    between atoms: N_27  and  C_28
REMARK                            x       y       z     vdW  Elec       q    Type
REMARK                         _______ _______ _______ _____ _____    ______ ____
ROOT
ATOM      1  C   UNL     1      -0.829   4.001   0.065  0.00  0.00    +0.173 C 
ENDROOT
BRANCH   1   6
ATOM      2  N   UNL     1      -4.069   7.552   0.079  0.00  0.00    -0.269 N 
ATOM      3  C   UNL     1      -2.778   7.165   0.068  0.00  0.00    +0.310 C 
ATOM      4  O   UNL     1      -1.894   7.999   0.056  0.00  0.00    -0.252 OA
ATOM      5  N   UNL     1      -2.467   5.854   0.071  0.00  0.00    -0.239 N 
ATOM      6  C   UNL     1      -1.176   5.467   0.061  0.00  0.00    +0.231 C 
ATOM      7  O   UNL     1      -0.294   6.299   0.049  0.00  0.00    -0.274 OA
ATOM      8  H   UNL     1      -4.774   6.890   0.006  0.00  0.00    +0.156 HD
ATOM      9  H   UNL     1      -3.173   5.188   0.081  0.00  0.00    +0.159 HD
BRANCH   2  14
ATOM     10  C   UNL     1      -5.379  13.052   0.546  0.00  0.00    +0.044 C 
ATOM     11  C   UNL     1      -5.031  11.591   0.422  0.00  0.00    -0.050 A 
ATOM     12  C   UNL     1      -3.823  11.126   0.909  0.00  0.00    +0.005 A 
ATOM     13  C   UNL     1      -3.501   9.787   0.796  0.00  0.00    +0.024 A 
ATOM     14  C   UNL     1      -4.392   8.909   0.194  0.00  0.00    +0.038 A 
ATOM     15  C   UNL     1      -5.602   9.380  -0.298  0.00  0.00    -0.029 A 
ATOM     16  C   UNL     1      -5.920  10.719  -0.178  0.00  0.00    +0.008 A 
ATOM     17  C   UNL     1      -6.569   8.431  -0.958  0.00  0.00    +0.045 C 
ENDBRANCH   2  14
ENDBRANCH   1   6
BRANCH   1  18
ATOM     18  S   UNL     1       0.971   3.807   0.049  0.00  0.00    -0.078 S 
BRANCH  18  19
ATOM     19  C   UNL     1       1.090   2.049   0.056  0.00  0.00    +0.172 A 
ATOM     20  N   UNL     1      -0.017   1.349   0.069  0.00  0.00    -0.223 NA
ATOM     21  C   UNL     1       0.001  -0.005   0.075  0.00  0.00    +0.080 A 
ATOM     22  C   UNL     1      -1.181  -0.750   0.089  0.00  0.00    +0.043 A 
ATOM     23  C   UNL     1      -1.114  -2.138   0.094  0.00  0.00    +0.065 A 
ATOM     24  C   UNL     1       0.127  -2.789   0.084  0.00  0.00    +0.016 A 
ATOM     25  C   UNL     1       1.288  -2.071   0.071  0.00  0.00    +0.016 A 
ATOM     26  C   UNL     1       1.244  -0.677   0.066  0.00  0.00    +0.065 A 
ATOM     27  C   UNL     1       2.471   0.135   0.051  0.00  0.00    +0.262 A 
ATOM     28  O   UNL     1       3.571  -0.385   0.043  0.00  0.00    -0.267 OA
ATOM     29  N   UNL     1       2.331   1.480   0.046  0.00  0.00    -0.290 N 
ATOM     30  C   UNL     1       3.521   2.334   0.031  0.00  0.00    +0.154 C 
BRANCH  23  31
ATOM     31  C   UNL     1      -2.361  -2.934   0.109  0.00  0.00    +0.387 C 
ATOM     32  O   UNL     1      -3.438  -2.374   0.117  0.00  0.00    -0.241 OA
ATOM     33  O   UNL     1      -2.301  -4.280   0.114  0.00  0.00    -0.241 OA
ENDBRANCH  23  31
ENDBRANCH  18  19
ENDBRANCH   1  18
TORSDOF 5
