REMARK  Name = ZINC13831066
REMARK  5 active torsions:
REMARK  status: ('A' for Active; 'I' for Inactive)
REMARK    1  A    between atoms: C_1  and  C_2
REMARK    2  A    between atoms: C_5  and  C_8
REMARK    3  A    between atoms: C_11  and  C_25
REMARK    4  A    between atoms: C_14  and  C_16
REMARK    5  A    between atoms: C_30  and  O_31
REMARK                            x       y       z     vdW  Elec       q    Type
REMARK                         _______ _______ _______ _____ _____    ______ ____
ROOT
ATOM      1  C   UNL     1       0.059  -4.275  -0.021  0.00  0.00    +0.081 C 
ATOM      2  N   UNL     1       0.751  -4.756   1.180  0.00  0.00    +0.401 N 
ATOM      3  C   UNL     1       2.175  -4.394   1.087  0.00  0.00    -0.028 C 
ATOM      4  C   UNL     1       2.811  -5.225  -0.031  0.00  0.00    +0.044 C 
ATOM      5  C   UNL     1       1.943  -5.158  -1.257  0.00  0.00    +0.040 C 
ATOM      6  N   UNL     1       0.733  -4.739  -1.227  0.00  0.00    -0.299 NA
ATOM      7  H   UNL     1       0.346  -4.326   1.998  0.00  0.00    -0.081 HD
ATOM      8  H   UNL     1       0.661  -5.758   1.243  0.00  0.00    -0.081 HD
ENDROOT
BRANCH   5   9
ATOM      9  C   UNL     1       2.510  -5.592  -2.548  0.00  0.00    -0.001 A 
ATOM     10  C   UNL     1       3.825  -6.059  -2.614  0.00  0.00    +0.013 A 
ATOM     11  C   UNL     1       4.352  -6.465  -3.821  0.00  0.00    +0.050 A 
ATOM     12  C   UNL     1       3.580  -6.411  -4.974  0.00  0.00    +0.166 A 
ATOM     13  C   UNL     1       2.267  -5.945  -4.915  0.00  0.00    +0.167 A 
ATOM     14  C   UNL     1       1.730  -5.542  -3.707  0.00  0.00    +0.059 A 
ATOM     15  O   UNL     1       1.731  -5.991  -6.170  0.00  0.00    -0.453 OA
ATOM     16  C   UNL     1       2.855  -6.102  -7.063  0.00  0.00    +0.466 C 
ATOM     17  O   UNL     1       3.865  -6.748  -6.265  0.00  0.00    -0.453 OA
ENDBRANCH   5   9
BRANCH   1  22
ATOM     18  C   UNL     1      -0.018   1.503   0.010  0.00  0.00    +0.044 C 
ATOM     19  C   UNL     1       0.002  -0.004   0.002  0.00  0.00    -0.050 A 
ATOM     20  C   UNL     1       0.006  -0.689  -1.199  0.00  0.00    +0.003 A 
ATOM     21  C   UNL     1       0.025  -2.071  -1.206  0.00  0.00    +0.004 A 
ATOM     22  C   UNL     1       0.040  -2.768  -0.013  0.00  0.00    -0.040 A 
ATOM     23  C   UNL     1       0.037  -2.084   1.188  0.00  0.00    +0.004 A 
ATOM     24  C   UNL     1       0.023  -0.702   1.195  0.00  0.00    +0.003 A 
ENDBRANCH   1  22
BRANCH   3  25
ATOM     25  C   UNL     1       2.861  -4.691   2.396  0.00  0.00    -0.018 A 
ATOM     26  C   UNL     1       2.350  -5.658   3.240  0.00  0.00    +0.020 A 
ATOM     27  C   UNL     1       2.979  -5.932   4.441  0.00  0.00    +0.018 A 
ATOM     28  C   UNL     1       4.121  -5.238   4.800  0.00  0.00    +0.019 A 
ATOM     29  C   UNL     1       4.636  -4.271   3.959  0.00  0.00    +0.047 A 
ATOM     30  C   UNL     1       4.009  -3.999   2.751  0.00  0.00    +0.119 A 
ATOM     31 BR   UNL     1       2.276  -7.255   5.595  0.00  0.00    -0.050 Br
BRANCH  30  32
ATOM     32  O   UNL     1       4.517  -3.051   1.920  0.00  0.00    -0.507 OA
ATOM     33  H   UNL     1       4.170  -2.162   2.078  0.00  0.00    +0.292 HD
ENDBRANCH  30  32
ENDBRANCH   3  25
TORSDOF 4
