REMARK  Name = ZINC39600419
REMARK  6 active torsions:
REMARK  status: ('A' for Active; 'I' for Inactive)
REMARK    1  A    between atoms: C_1  and  C_2
REMARK    2  A    between atoms: C_5  and  C_10
REMARK    3  A    between atoms: C_14  and  C_23
REMARK    4  A    between atoms: N_25  and  C_26
REMARK    5  A    between atoms: C_26  and  C_27
REMARK    6  A    between atoms: C_29  and  C_34
REMARK                            x       y       z     vdW  Elec       q    Type
REMARK                         _______ _______ _______ _____ _____    ______ ____
ROOT
ATOM      1  C   UNL     1       0.131  -4.057  -0.084  0.00  0.00    +0.250 C 
ATOM      2  O   UNL     1       0.169  -4.637   0.983  0.00  0.00    -0.270 OA
ATOM      3  N   UNL     1      -0.019  -4.757  -1.226  0.00  0.00    -0.296 N 
ATOM      4  C   UNL     1       0.020  -4.246  -2.617  0.00  0.00    +0.121 C 
ATOM      5  C   UNL     1       0.779  -5.332  -3.411  0.00  0.00    +0.100 C 
ATOM      6  C   UNL     1       0.591  -6.620  -2.593  0.00  0.00    -0.004 C 
ATOM      7  C   UNL     1      -0.252  -6.213  -1.376  0.00  0.00    +0.115 C 
ATOM      8  C   UNL     1      -0.145  -7.669  -3.421  0.00  0.00    -0.010 C 
ATOM      9  C   UNL     1      -0.269  -8.960  -2.606  0.00  0.00    -0.082 C 
ATOM     10  N   UNL     1       1.070  -9.444  -2.246  0.00  0.00    +0.379 N 
ATOM     11  C   UNL     1       1.736  -8.469  -1.373  0.00  0.00    -0.082 C 
ATOM     12  C   UNL     1       1.944  -7.157  -2.135  0.00  0.00    -0.010 C 
ATOM     13  H   UNL     1       0.988 -10.325  -1.762  0.00  0.00    -0.086 HD
ATOM     14  H   UNL     1       1.617  -9.572  -3.084  0.00  0.00    -0.086 HD
ENDROOT
BRANCH   1  19
ATOM     15  C   UNL     1       0.583   1.679  -0.267  0.00  0.00    +0.047 C 
ATOM     16  C   UNL     1       0.467   0.177  -0.218  0.00  0.00    -0.012 A 
ATOM     17  C   UNL     1      -0.335  -0.482  -1.134  0.00  0.00    +0.007 A 
ATOM     18  C   UNL     1      -0.448  -1.855  -1.096  0.00  0.00    +0.016 A 
ATOM     19  C   UNL     1       0.249  -2.586  -0.130  0.00  0.00    +0.075 A 
ATOM     20  C   UNL     1       1.058  -1.917   0.793  0.00  0.00    +0.171 A 
ATOM     21  C   UNL     1       1.166  -0.537   0.740  0.00  0.00    +0.162 A 
ATOM     22  F   UNL     1       1.951   0.114   1.626  0.00  0.00    -0.202 F 
ATOM     23  F   UNL     1       1.735  -2.614   1.731  0.00  0.00    -0.202 F 
ENDBRANCH   1  19
BRANCH   5  24
ATOM     24  C   UNL     1       0.183  -5.489  -4.786  0.00  0.00    +0.218 C 
ATOM     25  O   UNL     1      -1.000  -5.284  -4.962  0.00  0.00    -0.275 OA
ATOM     26  N   UNL     1       0.963  -5.857  -5.821  0.00  0.00    -0.311 N 
ATOM     27  H   UNL     1       1.909  -6.021  -5.681  0.00  0.00    +0.149 HD
BRANCH  26  28
ATOM     28  C   UNL     1       0.384  -6.011  -7.158  0.00  0.00    +0.139 C 
BRANCH  28  29
ATOM     29  C   UNL     1       1.460  -6.426  -8.128  0.00  0.00    -0.027 A 
ATOM     30  C   UNL     1       2.191  -5.465  -8.802  0.00  0.00    +0.017 A 
ATOM     31  C   UNL     1       3.179  -5.845  -9.691  0.00  0.00    +0.058 A 
ATOM     32  C   UNL     1       3.435  -7.185  -9.909  0.00  0.00    +0.050 A 
ATOM     33  C   UNL     1       2.704  -8.148  -9.235  0.00  0.00    +0.124 A 
ATOM     34  C   UNL     1       1.719  -7.767  -8.339  0.00  0.00    +0.043 A 
ATOM     35  F   UNL     1       2.954  -9.459  -9.447  0.00  0.00    -0.205 F 
BRANCH  31  36
ATOM     36  C   UNL     1       3.975  -4.797 -10.425  0.00  0.00    +0.418 C 
ATOM     37  F   UNL     1       5.107  -4.461  -9.674  0.00  0.00    -0.166 F 
ATOM     38  F   UNL     1       4.372  -5.299 -11.669  0.00  0.00    -0.166 F 
ATOM     39  F   UNL     1       3.185  -3.657 -10.613  0.00  0.00    -0.166 F 
ENDBRANCH  31  36
ENDBRANCH  28  29
ENDBRANCH  26  28
ENDBRANCH   5  24
TORSDOF 5
