REMARK  Name = ZINC14097348
REMARK  9 active torsions:
REMARK  status: ('A' for Active; 'I' for Inactive)
REMARK    1  A    between atoms: C_1  and  C_2
REMARK    2  A    between atoms: C_4  and  C_24
REMARK    3  A    between atoms: C_7  and  N_8
REMARK    4  A    between atoms: N_8  and  S_9
REMARK    5  A    between atoms: S_9  and  C_12
REMARK    6  A    between atoms: C_14  and  C_20
REMARK    7  A    between atoms: C_17  and  O_18
REMARK    8  A    between atoms: O_18  and  C_19
REMARK    9  A    between atoms: C_21  and  C_22
REMARK                            x       y       z     vdW  Elec       q    Type
REMARK                         _______ _______ _______ _____ _____    ______ ____
ROOT
ATOM      1  S   UNL     1       1.345   1.915   0.092  0.00  0.00    +0.076 S 
ATOM      2  O   UNL     1       2.482   1.089   0.298  0.00  0.00    -0.150 OA
ATOM      3  O   UNL     1       1.225   2.781  -1.028  0.00  0.00    -0.150 OA
ENDROOT
BRANCH   1   4
ATOM      4  C   UNL     1       1.190   2.925   1.528  0.00  0.00    +0.150 A 
ATOM      5  C   UNL     1       2.127   2.839   2.533  0.00  0.00    +0.040 A 
ATOM      6  C   UNL     1       2.005   3.646   3.670  0.00  0.00    -0.023 A 
ATOM      7  C   UNL     1       0.924   4.529   3.784  0.00  0.00    +0.011 A 
ATOM      8  C   UNL     1      -0.009   4.603   2.776  0.00  0.00    +0.048 A 
ATOM      9  C   UNL     1       0.119   3.803   1.645  0.00  0.00    +0.147 A 
BRANCH   9  10
ATOM     10  O   UNL     1      -0.805   3.880   0.654  0.00  0.00    -0.493 OA
ATOM     11  C   UNL     1      -1.880   4.803   0.839  0.00  0.00    +0.277 C 
ENDBRANCH   9  10
BRANCH   6  12
ATOM     12  C   UNL     1       3.005   3.562   4.744  0.00  0.00    +0.015 C 
ATOM     13  C   UNL     1       2.883   4.338   5.843  0.00  0.00    +0.096 C 
BRANCH  13  14
ATOM     14  C   UNL     1       3.848   4.258   6.878  0.00  0.00    +0.380 C 
ATOM     15  O   UNL     1       4.786   3.490   6.777  0.00  0.00    -0.241 OA
ATOM     16  O   UNL     1       3.725   5.033   7.976  0.00  0.00    -0.241 OA
ENDBRANCH  13  14
ENDBRANCH   6  12
ENDBRANCH   1   4
BRANCH   1  17
ATOM     17  N   UNL     1       0.029   0.910   0.056  0.00  0.00    -0.216 N 
ATOM     18  H   UNL     1      -0.643   1.016  -0.635  0.00  0.00    +0.174 HD
BRANCH  17  25
ATOM     19  C   UNL     1      -1.216  -1.525  -0.717  0.00  0.00    +0.046 C 
ATOM     20  C   UNL     1      -0.718  -1.292   0.686  0.00  0.00    -0.027 A 
ATOM     21  C   UNL     1      -0.855  -2.276   1.638  0.00  0.00    +0.020 A 
ATOM     22  C   UNL     1      -0.397  -2.053   2.940  0.00  0.00    +0.064 A 
ATOM     23  C   UNL     1       0.204  -0.832   3.267  0.00  0.00    +0.017 A 
ATOM     24  C   UNL     1       0.342   0.138   2.316  0.00  0.00    +0.025 A 
ATOM     25  C   UNL     1      -0.114  -0.082   1.019  0.00  0.00    +0.051 A 
BRANCH  22  26
ATOM     26  C   UNL     1      -0.546  -3.100   3.966  0.00  0.00    +0.387 C 
ATOM     27  O   UNL     1      -1.067  -4.160   3.681  0.00  0.00    -0.241 OA
ATOM     28  O   UNL     1      -0.103  -2.883   5.220  0.00  0.00    -0.241 OA
ENDBRANCH  22  26
ENDBRANCH  17  25
ENDBRANCH   1  17
TORSDOF 7
