REMARK  Name = ZINC20410636
REMARK  6 active torsions:
REMARK  status: ('A' for Active; 'I' for Inactive)
REMARK    1  A    between atoms: C_1  and  C_2
REMARK    2  A    between atoms: C_10  and  C_14
REMARK    3  A    between atoms: C_18  and  C_20
REMARK    4  A    between atoms: C_20  and  N_21
REMARK    5  A    between atoms: N_24  and  C_27
REMARK    6  A    between atoms: C_27  and  C_28
REMARK                            x       y       z     vdW  Elec       q    Type
REMARK                         _______ _______ _______ _____ _____    ______ ____
ROOT
ATOM      1  C   UNL     1       5.192   4.154  -4.859  0.00  0.00    -0.064 C 
ENDROOT
BRANCH   1  17
ATOM      2  C   UNL     1       6.004   6.711  -8.838  0.00  0.00    +0.039 C 
ATOM      3  C   UNL     1       7.145   5.764  -9.107  0.00  0.00    -0.073 C 
ATOM      4  C   UNL     1       7.344   4.776  -8.288  0.00  0.00    -0.064 C 
ATOM      5  C   UNL     1       6.415   4.598  -7.105  0.00  0.00    +0.039 C 
ATOM      6  C   UNL     1       5.819   3.187  -7.121  0.00  0.00    +0.046 C 
ATOM      7  C   UNL     1       6.907   2.122  -7.342  0.00  0.00    +0.181 C 
ATOM      8  C   UNL     1       7.811   2.384  -8.519  0.00  0.00    +0.056 C 
ATOM      9  C   UNL     1       8.452   3.770  -8.431  0.00  0.00    -0.007 C 
ATOM     10  C   UNL     1       9.348   4.024  -9.627  0.00  0.00    +0.011 C 
ATOM     11  C   UNL     1       8.568   4.649 -10.782  0.00  0.00    +0.005 C 
ATOM     12  C   UNL     1       8.011   5.999 -10.314  0.00  0.00    +0.030 C 
ATOM     13  C   UNL     1       9.310   3.812  -7.165  0.00  0.00    +0.016 C 
ATOM     14  O   UNL     1       7.602   2.071  -6.065  0.00  0.00    -0.461 OA
ATOM     15  C   UNL     1       6.657   2.137  -5.100  0.00  0.00    +0.309 C 
ATOM     16  O   UNL     1       6.764   1.689  -3.983  0.00  0.00    -0.251 OA
ATOM     17  C   UNL     1       5.440   2.864  -5.643  0.00  0.00    +0.088 C 
ENDBRANCH   1  17
BRANCH   1  18
ATOM     18  N   UNL     1       4.701   3.823  -3.514  0.00  0.00    +0.382 N 
ATOM     19  C   UNL     1       4.373   5.040  -2.759  0.00  0.00    -0.063 C 
ATOM     20  C   UNL     1       3.942   4.657  -1.341  0.00  0.00    +0.066 C 
ATOM     21  N   UNL     1       2.784   3.756  -1.411  0.00  0.00    -0.302 NA
ATOM     22  C   UNL     1       3.111   2.539  -2.166  0.00  0.00    +0.066 C 
ATOM     23  C   UNL     1       3.542   2.922  -3.584  0.00  0.00    -0.063 C 
ATOM     24  H   UNL     1       5.508   3.299  -2.980  0.00  0.00    -0.082 HD
BRANCH  21  25
ATOM     25  C   UNL     1       2.292   3.425  -0.067  0.00  0.00    +0.119 C 
BRANCH  25  26
ATOM     26  C   UNL     1       0.971   2.709  -0.177  0.00  0.00    -0.030 A 
ATOM     27  C   UNL     1       0.940   1.330  -0.276  0.00  0.00    +0.009 A 
ATOM     28  C   UNL     1      -0.269   0.668  -0.377  0.00  0.00    +0.050 A 
ATOM     29  C   UNL     1      -1.454   1.387  -0.385  0.00  0.00    +0.166 A 
ATOM     30  C   UNL     1      -1.423   2.775  -0.280  0.00  0.00    +0.167 A 
ATOM     31  C   UNL     1      -0.207   3.432  -0.179  0.00  0.00    +0.054 A 
ATOM     32  O   UNL     1      -2.705   3.243  -0.304  0.00  0.00    -0.453 OA
ATOM     33  C   UNL     1      -3.536   2.104  -0.008  0.00  0.00    +0.466 C 
ATOM     34  O   UNL     1      -2.756   0.984  -0.466  0.00  0.00    -0.453 OA
ENDBRANCH  25  26
ENDBRANCH  21  25
ENDBRANCH   1  18
TORSDOF 4
