REMARK  Name = ZINC05478302
REMARK  4 active torsions:
REMARK  status: ('A' for Active; 'I' for Inactive)
REMARK    1  A    between atoms: C_1  and  C_2
REMARK    2  A    between atoms: N_14  and  N_17
REMARK    3  A    between atoms: C_18  and  C_19
REMARK    4  A    between atoms: C_24  and  O_25
REMARK                            x       y       z     vdW  Elec       q    Type
REMARK                         _______ _______ _______ _____ _____    ______ ____
ROOT
ATOM      1  C   UNL     1      -0.026   1.502   0.010  0.00  0.00    +0.044 C 
ATOM      2  C   UNL     1       0.003  -0.004   0.002  0.00  0.00    -0.039 A 
ATOM      3  C   UNL     1       0.010  -0.689  -1.193  0.00  0.00    +0.004 A 
ATOM      4  C   UNL     1       0.036  -2.076  -1.205  0.00  0.00    +0.002 A 
ATOM      5  C   UNL     1       0.055  -2.788  -0.027  0.00  0.00    +0.026 A 
ATOM      6  C   UNL     1       0.048  -2.117   1.193  0.00  0.00    +0.049 A 
ATOM      7  C   UNL     1       0.028  -0.711   1.205  0.00  0.00    +0.029 A 
ATOM      8  C   UNL     1       0.033  -0.306   2.617  0.00  0.00    +0.104 A 
ATOM      9  C   UNL     1       0.063  -1.482   3.365  0.00  0.00    +0.133 A 
ATOM     10  N   UNL     1       0.061  -2.559   2.499  0.00  0.00    -0.349 N 
ATOM     11  H   UNL     1       0.080  -3.490   2.770  0.00  0.00    +0.166 HD
ATOM     12  C   UNL     1       0.074  -1.379   4.774  0.00  0.00    +0.298 A 
ATOM     13  O   UNL     1       0.100  -2.379   5.473  0.00  0.00    -0.263 OA
ATOM     14  N   UNL     1       0.055  -0.148   5.330  0.00  0.00    -0.184 N 
ATOM     15  C   UNL     1       0.026   0.961   4.545  0.00  0.00    +0.227 A 
ATOM     16  N   UNL     1       0.015   0.883   3.244  0.00  0.00    -0.233 NA
ENDROOT
BRANCH  14  17
ATOM     17  N   UNL     1       0.064  -0.014   6.725  0.00  0.00    -0.170 NA
ATOM     18  C   UNL     1       0.151   1.165   7.263  0.00  0.00    +0.145 C 
BRANCH  18  19
ATOM     19  C   UNL     1       0.273   1.300   8.725  0.00  0.00    +0.037 A 
ATOM     20  C   UNL     1       0.361   2.567   9.308  0.00  0.00    +0.013 A 
ATOM     21  C   UNL     1       0.475   2.687  10.677  0.00  0.00    +0.002 A 
ATOM     22  C   UNL     1       0.504   1.557  11.477  0.00  0.00    +0.019 A 
ATOM     23  C   UNL     1       0.418   0.298  10.912  0.00  0.00    +0.060 A 
ATOM     24  C   UNL     1       0.296   0.159   9.538  0.00  0.00    +0.139 A 
ATOM     25 BR   UNL     1       0.460  -1.237  12.016  0.00  0.00    -0.047 Br
BRANCH  24  26
ATOM     26  O   UNL     1       0.205  -1.077   8.983  0.00  0.00    -0.505 OA
ATOM     27  H   UNL     1       1.059  -1.467   8.751  0.00  0.00    +0.292 HD
ENDBRANCH  24  26
ENDBRANCH  18  19
ENDBRANCH  14  17
TORSDOF 3
