REMARK  Name = ZINC43726248
REMARK  2 active torsions:
REMARK  status: ('A' for Active; 'I' for Inactive)
REMARK    1  A    between atoms: N_20  and  C_23
REMARK    2  A    between atoms: C_25  and  N_30
REMARK                            x       y       z     vdW  Elec       q    Type
REMARK                         _______ _______ _______ _____ _____    ______ ____
ROOT
ATOM      1  C   UNL     1      -0.017   1.379   0.010  0.00  0.00    +0.000 A 
ATOM      2  C   UNL     1       1.174   2.083   0.002  0.00  0.00    +0.002 A 
ATOM      3  C   UNL     1       2.380   1.413  -0.012  0.00  0.00    +0.023 A 
ATOM      4  C   UNL     1       2.408   0.021  -0.021  0.00  0.00    +0.039 A 
ATOM      5  C   UNL     1       1.203  -0.676  -0.013  0.00  0.00    +0.004 A 
ATOM      6  C   UNL     1       0.002  -0.004   0.002  0.00  0.00    +0.008 A 
ATOM      7  C   UNL     1       1.572  -2.134  -0.025  0.00  0.00    +0.138 C 
ATOM      8  C   UNL     1       0.990  -2.845  -1.252  0.00  0.00    +0.123 C 
ATOM      9  C   UNL     1       0.603  -4.260  -0.741  0.00  0.00    +0.107 C 
ATOM     10  C   UNL     1       1.006  -4.277   0.745  0.00  0.00    +0.071 C 
ATOM     11  N   UNL     1       1.034  -2.834   1.154  0.00  0.00    -0.281 NA
ATOM     12  C   UNL     1      -0.386  -2.459   1.356  0.00  0.00    +0.086 C 
ATOM     13  C   UNL     1      -1.047  -3.701   1.987  0.00  0.00    +0.017 C 
ATOM     14  C   UNL     1      -0.125  -4.913   1.573  0.00  0.00    +0.021 C 
ATOM     15  C   UNL     1      -0.904  -4.276  -0.868  0.00  0.00    +0.232 C 
ATOM     16  O   UNL     1      -1.622  -5.205  -0.569  0.00  0.00    -0.274 OA
ATOM     17  N   UNL     1      -1.321  -3.104  -1.361  0.00  0.00    -0.208 N 
ATOM     18  C   UNL     1      -0.334  -2.218  -1.625  0.00  0.00    +0.233 C 
ATOM     19  O   UNL     1      -0.478  -1.104  -2.082  0.00  0.00    -0.274 OA
ATOM     20  C   UNL     1       3.076  -2.156  -0.040  0.00  0.00    +0.243 C 
ATOM     21  O   UNL     1       3.786  -3.139  -0.053  0.00  0.00    -0.273 OA
ATOM     22  N   UNL     1       3.482  -0.871  -0.036  0.00  0.00    -0.283 N 
ATOM     23  H   UNL     1       4.412  -0.598  -0.042  0.00  0.00    +0.155 HD
ENDROOT
BRANCH  17  24
ATOM     24  C   UNL     1      -2.674  -2.818  -1.594  0.00  0.00    +0.064 A 
ATOM     25  C   UNL     1      -3.443  -2.235  -0.595  0.00  0.00    +0.058 A 
ATOM     26  C   UNL     1      -4.775  -1.954  -0.827  0.00  0.00    +0.128 A 
ATOM     27  C   UNL     1      -5.344  -2.252  -2.051  0.00  0.00    +0.034 A 
ATOM     28  C   UNL     1      -4.582  -2.832  -3.048  0.00  0.00    +0.024 A 
ATOM     29  C   UNL     1      -3.247  -3.111  -2.825  0.00  0.00    +0.063 A 
ATOM     30 CL   UNL     1      -2.288  -3.833  -4.079  0.00  0.00    -0.082 Cl
BRANCH  26  31
ATOM     31  N   UNL     1      -5.595  -1.332   0.237  0.00  0.00    +0.056 N 
ATOM     32  O   UNL     1      -5.099  -1.072   1.309  0.00  0.00    -0.126 OA
ATOM     33  O   UNL     1      -6.761  -1.085   0.036  0.00  0.00    -0.126 OA
ENDBRANCH  26  31
ENDBRANCH  17  24
TORSDOF 2
