REMARK  Name = ZINC46578469
REMARK  7 active torsions:
REMARK  status: ('A' for Active; 'I' for Inactive)
REMARK    1  A    between atoms: C_1  and  C_2
REMARK    2  A    between atoms: C_2  and  C_4
REMARK    3  A    between atoms: C_2  and  S_15
REMARK    4  A    between atoms: N_6  and  C_7
REMARK    5  A    between atoms: S_15  and  C_16
REMARK    6  A    between atoms: C_16  and  C_17
REMARK    7  A    between atoms: N_21  and  C_22
REMARK                            x       y       z     vdW  Elec       q    Type
REMARK                         _______ _______ _______ _____ _____    ______ ____
ROOT
ATOM      1  C   UNL     1      -0.010   1.544  -0.007  0.00  0.00    +0.029 C 
ATOM      2  C   UNL     1       0.003   0.014  -0.005  0.00  0.00    +0.130 C 
ENDROOT
BRANCH   2   3
ATOM      3  C   UNL     1       0.708  -0.483  -1.241  0.00  0.00    +0.230 C 
ATOM      4  O   UNL     1       0.067  -0.778  -2.228  0.00  0.00    -0.274 OA
ATOM      5  N   UNL     1       2.051  -0.601  -1.250  0.00  0.00    -0.282 N 
ATOM      6  H   UNL     1       2.568  -0.304  -0.485  0.00  0.00    +0.155 HD
BRANCH   5   7
ATOM      7  C   UNL     1       2.699  -1.150  -2.363  0.00  0.00    +0.069 A 
ATOM      8  C   UNL     1       2.200  -0.926  -3.639  0.00  0.00    +0.027 A 
ATOM      9  C   UNL     1       2.840  -1.469  -4.736  0.00  0.00    +0.017 A 
ATOM     10  C   UNL     1       3.979  -2.237  -4.564  0.00  0.00    +0.021 A 
ATOM     11  C   UNL     1       4.479  -2.463  -3.295  0.00  0.00    +0.055 A 
ATOM     12  C   UNL     1       3.846  -1.917  -2.193  0.00  0.00    +0.146 A 
ATOM     13  F   UNL     1       4.338  -2.133  -0.954  0.00  0.00    -0.204 F 
ATOM     14 BR   UNL     1       4.852  -2.979  -6.069  0.00  0.00    -0.050 Br
ENDBRANCH   5   7
ENDBRANCH   2   3
BRANCH   2  15
ATOM     15  S   UNL     1      -1.702  -0.605   0.009  0.00  0.00    -0.140 S 
BRANCH  15  16
ATOM     16  C   UNL     1      -2.356  -0.054   1.609  0.00  0.00    +0.148 C 
BRANCH  16  17
ATOM     17  C   UNL     1      -3.785  -0.509   1.750  0.00  0.00    +0.166 A 
ATOM     18  N   UNL     1      -4.850   0.151   1.375  0.00  0.00    -0.112 NA
ATOM     19  N   UNL     1      -5.914  -0.518   1.639  0.00  0.00    -0.023 NA
ATOM     20  N   UNL     1      -5.608  -1.640   2.196  0.00  0.00    -0.039 NA
ATOM     21  N   UNL     1      -4.205  -1.677   2.284  0.00  0.00    -0.196 N 
BRANCH  21  22
ATOM     22  C   UNL     1      -3.412  -2.704   2.815  0.00  0.00    +0.069 A 
ATOM     23  C   UNL     1      -2.173  -2.986   2.255  0.00  0.00    +0.028 A 
ATOM     24  C   UNL     1      -1.394  -3.999   2.779  0.00  0.00    +0.002 A 
ATOM     25  C   UNL     1      -1.847  -4.732   3.861  0.00  0.00    +0.000 A 
ATOM     26  C   UNL     1      -3.080  -4.454   4.420  0.00  0.00    +0.002 A 
ATOM     27  C   UNL     1      -3.861  -3.438   3.904  0.00  0.00    +0.028 A 
ENDBRANCH  21  22
ENDBRANCH  16  17
ENDBRANCH  15  16
ENDBRANCH   2  15
TORSDOF 6
