REMARK  Name = ZINC63361842
REMARK  6 active torsions:
REMARK  status: ('A' for Active; 'I' for Inactive)
REMARK    1  A    between atoms: C_1  and  C_2
REMARK    2  A    between atoms: C_5  and  C_8
REMARK    3  A    between atoms: C_8  and  N_9
REMARK    4  A    between atoms: C_10  and  C_12
REMARK    5  A    between atoms: C_16  and  N_18
REMARK    6  A    between atoms: C_21  and  C_37
REMARK                            x       y       z     vdW  Elec       q    Type
REMARK                         _______ _______ _______ _____ _____    ______ ____
ROOT
ATOM      1  N   UNL     1       4.982  -9.720  -0.091  0.00  0.00    -0.192 N 
ATOM      2  C   UNL     1       6.224 -10.238  -0.194  0.00  0.00    +0.253 C 
ATOM      3  O   UNL     1       7.264  -9.627  -0.314  0.00  0.00    -0.272 OA
ATOM      4  C   UNL     1       6.050 -11.740  -0.126  0.00  0.00    +0.137 C 
ATOM      5  C   UNL     1       6.539 -12.386  -1.428  0.00  0.00    +0.139 C 
ATOM      6  C   UNL     1       5.855 -13.745  -1.519  0.00  0.00    -0.034 C 
ATOM      7  C   UNL     1       6.827 -14.647  -1.609  0.00  0.00    -0.001 A 
ATOM      8  C   UNL     1       6.790 -16.108  -1.781  0.00  0.00    +0.010 A 
ATOM      9  C   UNL     1       7.995 -16.736  -1.826  0.00  0.00    +0.001 A 
ATOM     10  C   UNL     1       9.217 -16.065  -1.718  0.00  0.00    +0.002 A 
ATOM     11  C   UNL     1       9.344 -14.723  -1.562  0.00  0.00    +0.026 A 
ATOM     12  C   UNL     1       8.146 -13.953  -1.505  0.00  0.00    +0.043 A 
ATOM     13  N   UNL     1       7.978 -12.657  -1.381  0.00  0.00    -0.375 N 
ATOM     14  C   UNL     1       4.358 -13.925  -1.441  0.00  0.00    +0.052 C 
ATOM     15  C   UNL     1       3.877 -13.192  -0.172  0.00  0.00    +0.115 C 
ATOM     16  N   UNL     1       4.579 -11.908  -0.090  0.00  0.00    -0.268 N 
ATOM     17  C   UNL     1       4.052 -10.680   0.000  0.00  0.00    +0.316 C 
ATOM     18  O   UNL     1       2.865 -10.462   0.145  0.00  0.00    -0.252 OA
ATOM     19  C   UNL     1       6.726 -12.339   1.109  0.00  0.00    +0.044 C 
ATOM     20  H   UNL     1       8.677 -11.993  -1.274  0.00  0.00    +0.160 HD
ENDROOT
BRANCH   1  25
ATOM     21  C   UNL     1       5.452  -6.062  -0.032  0.00  0.00    +0.038 A 
ATOM     22  C   UNL     1       4.124  -5.631  -0.045  0.00  0.00    +0.013 A 
ATOM     23  C   UNL     1       3.099  -6.555  -0.074  0.00  0.00    +0.003 A 
ATOM     24  C   UNL     1       3.383  -7.908  -0.089  0.00  0.00    +0.024 A 
ATOM     25  C   UNL     1       4.701  -8.347  -0.076  0.00  0.00    +0.046 A 
ATOM     26  C   UNL     1       5.737  -7.427  -0.053  0.00  0.00    +0.037 A 
BRANCH  21  28
ATOM     27  N   UNL     1       6.274  -3.756   0.020  0.00  0.00    -0.307 N 
ATOM     28  C   UNL     1       6.552  -5.075  -0.001  0.00  0.00    +0.244 C 
ATOM     29  O   UNL     1       7.707  -5.452   0.006  0.00  0.00    -0.270 OA
ATOM     30  H   UNL     1       5.352  -3.455   0.015  0.00  0.00    +0.149 HD
BRANCH  27  31
ATOM     31  C   UNL     1       7.364  -2.778   0.051  0.00  0.00    +0.139 C 
BRANCH  31  36
ATOM     32  C   UNL     1       5.160   2.564   0.122  0.00  0.00    +0.044 C 
ATOM     33  C   UNL     1       5.735   1.171   0.103  0.00  0.00    -0.050 A 
ATOM     34  C   UNL     1       5.983   0.510   1.292  0.00  0.00    +0.003 A 
ATOM     35  C   UNL     1       6.510  -0.768   1.275  0.00  0.00    +0.005 A 
ATOM     36  C   UNL     1       6.788  -1.385   0.069  0.00  0.00    -0.030 A 
ATOM     37  C   UNL     1       6.539  -0.725  -1.119  0.00  0.00    +0.005 A 
ATOM     38  C   UNL     1       6.008   0.552  -1.102  0.00  0.00    +0.003 A 
ENDBRANCH  31  36
ENDBRANCH  27  31
ENDBRANCH  21  28
ENDBRANCH   1  25
TORSDOF 4
