REMARK  Name = ZINC01906574
REMARK  7 active torsions:
REMARK  status: ('A' for Active; 'I' for Inactive)
REMARK    1  A    between atoms: C_4  and  C_7
REMARK    2  A    between atoms: C_10  and  S_19
REMARK    3  A    between atoms: N_11  and  C_12
REMARK    4  A    between atoms: S_19  and  C_20
REMARK    5  A    between atoms: C_20  and  C_21
REMARK    6  A    between atoms: N_23  and  N_24
REMARK    7  A    between atoms: C_25  and  C_26
REMARK                            x       y       z     vdW  Elec       q    Type
REMARK                         _______ _______ _______ _____ _____    ______ ____
ROOT
ATOM      1  C   UNL     1       3.695  -0.684  -0.038  0.00  0.00    +0.169 A 
ATOM      2  N   UNL     1       4.871  -0.170  -0.316  0.00  0.00    -0.128 NA
ATOM      3  N   UNL     1       5.778  -1.077  -0.237  0.00  0.00    -0.122 NA
ATOM      4  C   UNL     1       5.238  -2.229   0.095  0.00  0.00    +0.197 A 
ATOM      5  N   UNL     1       3.894  -2.019   0.239  0.00  0.00    -0.270 N 
ENDROOT
BRANCH   5   6
ATOM      6  C   UNL     1       2.922  -2.966   0.593  0.00  0.00    +0.051 A 
ATOM      7  C   UNL     1       2.225  -2.833   1.786  0.00  0.00    +0.028 A 
ATOM      8  C   UNL     1       1.268  -3.767   2.133  0.00  0.00    +0.022 A 
ATOM      9  C   UNL     1       1.003  -4.833   1.292  0.00  0.00    +0.041 A 
ATOM     10  C   UNL     1       1.697  -4.967   0.102  0.00  0.00    +0.022 A 
ATOM     11  C   UNL     1       2.651  -4.033  -0.252  0.00  0.00    +0.028 A 
ATOM     12 CL   UNL     1      -0.201  -6.005   1.730  0.00  0.00    -0.084 Cl
ENDBRANCH   5   6
BRANCH   1  16
ATOM     13  C   UNL     1      -0.017   1.379   0.010  0.00  0.00    +0.000 A 
ATOM     14  C   UNL     1       1.168   2.094   0.002  0.00  0.00    +0.001 A 
ATOM     15  C   UNL     1       2.377   1.429  -0.013  0.00  0.00    +0.011 A 
ATOM     16  C   UNL     1       2.404   0.034  -0.021  0.00  0.00    +0.020 A 
ATOM     17  C   UNL     1       1.204  -0.681  -0.013  0.00  0.00    +0.011 A 
ATOM     18  C   UNL     1       0.002  -0.004   0.002  0.00  0.00    +0.001 A 
ENDBRANCH   1  16
BRANCH   4  19
ATOM     19  S   UNL     1       6.088  -3.756   0.319  0.00  0.00    -0.076 S 
BRANCH  19  20
ATOM     20  C   UNL     1       7.824  -3.344  -0.012  0.00  0.00    +0.174 C 
BRANCH  20  21
ATOM     21  C   UNL     1       8.672  -4.579   0.147  0.00  0.00    +0.242 C 
ATOM     22  O   UNL     1       8.157  -5.634   0.453  0.00  0.00    -0.273 OA
ATOM     23  N   UNL     1      10.004  -4.513  -0.051  0.00  0.00    -0.206 N 
ATOM     24  H   UNL     1      10.416  -3.669  -0.296  0.00  0.00    +0.177 HD
BRANCH  23  25
ATOM     25  N   UNL     1      10.792  -5.661   0.097  0.00  0.00    -0.188 NA
ATOM     26  C   UNL     1      12.074  -5.597  -0.094  0.00  0.00    +0.141 C 
BRANCH  26  27
ATOM     27  C   UNL     1      12.904  -6.805   0.061  0.00  0.00    +0.031 A 
ATOM     28  C   UNL     1      14.285  -6.739  -0.138  0.00  0.00    +0.027 A 
ATOM     29  C   UNL     1      15.056  -7.874   0.010  0.00  0.00    +0.019 A 
ATOM     30  C   UNL     1      14.464  -9.078   0.355  0.00  0.00    +0.018 A 
ATOM     31  C   UNL     1      13.098  -9.153   0.553  0.00  0.00    +0.040 A 
ATOM     32  C   UNL     1      12.313  -8.023   0.415  0.00  0.00    +0.132 A 
ATOM     33  F   UNL     1      10.979  -8.096   0.614  0.00  0.00    -0.205 F 
ATOM     34 BR   UNL     1      16.926  -7.785  -0.259  0.00  0.00    -0.050 Br
ENDBRANCH  26  27
ENDBRANCH  23  25
ENDBRANCH  20  21
ENDBRANCH  19  20
ENDBRANCH   4  19
TORSDOF 7
