REMARK  Name = ZINC14170809
REMARK  6 active torsions:
REMARK  status: ('A' for Active; 'I' for Inactive)
REMARK    1  A    between atoms: C_1  and  C_2
REMARK    2  A    between atoms: C_3  and  C_8
REMARK    3  A    between atoms: C_4  and  C_7
REMARK    4  A    between atoms: C_8  and  C_9
REMARK    5  A    between atoms: N_11  and  C_12
REMARK    6  A    between atoms: C_20  and  N_54
REMARK                            x       y       z     vdW  Elec       q    Type
REMARK                         _______ _______ _______ _____ _____    ______ ____
ROOT
ATOM      1  C   UNL     1      -2.449   1.117   0.020  0.00  0.00    +0.110 C 
ATOM      2  C   UNL     1      -3.553   1.976   0.641  0.00  0.00    +0.075 C 
ATOM      3  C   UNL     1      -4.902   1.301   0.370  0.00  0.00    +0.109 C 
ATOM      4  C   UNL     1      -4.875  -0.132   0.905  0.00  0.00    +0.029 C 
ATOM      5  C   UNL     1      -6.246  -0.779   0.691  0.00  0.00    -0.075 C 
ATOM      6  C   UNL     1      -7.351   1.372   0.851  0.00  0.00    -0.075 C 
ATOM      7  C   UNL     1      -6.014   2.084   1.071  0.00  0.00    +0.029 C 
ATOM      8  C   UNL     1      -8.580  -0.660   1.322  0.00  0.00    -0.096 C 
ATOM      9  O   UNL     1      -5.132   1.289  -1.037  0.00  0.00    -0.485 OA
ATOM     10  C   UNL     1      -4.129   0.856  -1.844  0.00  0.00    +0.126 A 
ATOM     11  C   UNL     1      -2.823   0.760  -1.397  0.00  0.00    +0.015 A 
ATOM     12  C   UNL     1      -1.829   0.328  -2.259  0.00  0.00    +0.009 A 
ATOM     13  C   UNL     1      -2.136  -0.012  -3.562  0.00  0.00    +0.001 A 
ATOM     14  C   UNL     1      -3.441   0.079  -4.011  0.00  0.00    +0.004 A 
ATOM     15  C   UNL     1      -4.435   0.511  -3.157  0.00  0.00    +0.046 A 
ATOM     16  N   UNL     1      -7.266   0.009   1.416  0.00  0.00    +0.378 N 
ATOM     17  H   UNL     1      -6.995   0.074   2.405  0.00  0.00    -0.082 HD
ENDROOT
BRANCH   1  20
ATOM     18  C   UNL     1      -0.014   1.209   0.009  0.00  0.00    +0.218 C 
ATOM     19  O   UNL     1       0.002  -0.004   0.002  0.00  0.00    -0.275 OA
ATOM     20  N   UNL     1      -1.191   1.867   0.018  0.00  0.00    -0.308 N 
ATOM     21  H   UNL     1      -1.204   2.837   0.023  0.00  0.00    +0.149 HD
BRANCH  18  22
ATOM     22  C   UNL     1       1.280   1.980   0.001  0.00  0.00    +0.136 C 
BRANCH  22  25
ATOM     23  C   UNL     1       2.779   0.725  -2.589  0.00  0.00    +0.069 C 
ATOM     24  C   UNL     1       3.098   0.466  -1.139  0.00  0.00    +0.084 A 
ATOM     25  C   UNL     1       2.439   1.016  -0.016  0.00  0.00    +0.026 A 
ATOM     26  C   UNL     1       3.094   0.482   1.042  0.00  0.00    +0.138 A 
ATOM     27  O   UNL     1       4.045  -0.316   0.536  0.00  0.00    -0.359 OA
ATOM     28  N   UNL     1       4.033  -0.310  -0.673  0.00  0.00    -0.083 NA
ATOM     29  C   UNL     1       2.809   0.733   2.501  0.00  0.00    +0.089 C 
ENDBRANCH  22  25
ENDBRANCH  18  22
ENDBRANCH   1  20
TORSDOF 3
