REMARK  Name = ZINC65458201
REMARK  7 active torsions:
REMARK  status: ('A' for Active; 'I' for Inactive)
REMARK    1  A    between atoms: C_1  and  C_2
REMARK    2  A    between atoms: C_2  and  N_3
REMARK    3  A    between atoms: N_3  and  C_4
REMARK    4  A    between atoms: C_4  and  C_5
REMARK    5  A    between atoms: C_5  and  C_6
REMARK    6  A    between atoms: C_17  and  C_19
REMARK    7  A    between atoms: N_24  and  C_29
REMARK                            x       y       z     vdW  Elec       q    Type
REMARK                         _______ _______ _______ _____ _____    ______ ____
ROOT
ATOM      1  N   UNL     1       0.681  -0.521  -1.187  0.00  0.00    -0.297 N 
ATOM      2  C   UNL     1      -0.025  -0.801  -2.300  0.00  0.00    +0.261 C 
ATOM      3  O   UNL     1       0.541  -1.238  -3.284  0.00  0.00    -0.269 OA
ENDROOT
BRANCH   2   4
ATOM      4  C   UNL     1      -1.483  -0.576  -2.327  0.00  0.00    +0.101 C 
ATOM      5  C   UNL     1      -2.309  -0.953  -3.326  0.00  0.00    +0.024 C 
ATOM      6  C   UNL     1      -3.674  -0.494  -2.899  0.00  0.00    +0.115 C 
ATOM      7  C   UNL     1      -4.515   0.183  -3.972  0.00  0.00    +0.109 C 
ATOM      8  N   UNL     1      -5.755   0.640  -3.309  0.00  0.00    -0.302 NA
ATOM      9  C   UNL     1      -5.503   1.554  -2.191  0.00  0.00    +0.101 C 
ATOM     10  C   UNL     1      -4.519   0.943  -1.178  0.00  0.00    +0.121 C 
ATOM     11  N   UNL     1      -3.332   0.552  -1.898  0.00  0.00    -0.220 NA
ATOM     12  N   UNL     1      -2.226   0.062  -1.306  0.00  0.00    -0.273 N 
ATOM     13  C   UNL     1      -6.682   1.239  -4.279  0.00  0.00    +0.105 C 
ATOM     14  H   UNL     1      -1.985   0.132  -0.369  0.00  0.00    +0.167 HD
ENDBRANCH   2   4
BRANCH   1  16
ATOM     15  C   UNL     1      -0.329   1.363   0.002  0.00  0.00    +0.024 C 
ATOM     16  C   UNL     1      -0.015  -0.134   0.043  0.00  0.00    +0.105 C 
ENDBRANCH   1  16
BRANCH   1  17
ATOM     17  C   UNL     1       2.143  -0.604  -1.205  0.00  0.00    +0.112 C 
BRANCH  17  18
ATOM     18  C   UNL     1       2.578  -2.019  -0.817  0.00  0.00    +0.065 C 
BRANCH  18  19
ATOM     19  C   UNL     1       4.106  -2.106  -0.837  0.00  0.00    +0.175 C 
ATOM     20  N   UNL     1       4.671  -1.275   0.233  0.00  0.00    -0.363 N 
ATOM     21  C   UNL     1       5.342  -2.060   1.026  0.00  0.00    +0.060 A 
ATOM     22  C   UNL     1       6.117  -1.817   2.251  0.00  0.00    +0.030 A 
ATOM     23  C   UNL     1       6.718  -2.849   2.874  0.00  0.00    +0.040 A 
ATOM     24  C   UNL     1       6.637  -4.173   2.398  0.00  0.00    +0.125 A 
ATOM     25  C   UNL     1       5.951  -4.504   1.282  0.00  0.00    +0.065 A 
ATOM     26  C   UNL     1       5.256  -3.458   0.522  0.00  0.00    +0.063 A 
ATOM     27  N   UNL     1       4.536  -3.483  -0.564  0.00  0.00    -0.363 N 
ATOM     28  F   UNL     1       7.271  -5.150   3.083  0.00  0.00    -0.205 F 
ATOM     29  H   UNL     1       4.565  -0.316   0.332  0.00  0.00    +0.162 HD
ATOM     30  H   UNL     1       4.322  -4.267  -1.095  0.00  0.00    +0.162 HD
ENDBRANCH  18  19
ENDBRANCH  17  18
ENDBRANCH   1  17
TORSDOF 5
