REMARK  Name = ZINC39012040
REMARK  10 active torsions:
REMARK  status: ('A' for Active; 'I' for Inactive)
REMARK    1  A    between atoms: C_1  and  C_2
REMARK    2  A    between atoms: C_4  and  N_9
REMARK    3  A    between atoms: C_10  and  C_12
REMARK    4  A    between atoms: C_12  and  S_13
REMARK    5  A    between atoms: S_13  and  C_14
REMARK    6  A    between atoms: C_18  and  C_22
REMARK    7  A    between atoms: N_20  and  N_21
REMARK    8  A    between atoms: C_25  and  C_28
REMARK    9  A    between atoms: C_31  and  O_34
REMARK   10  A    between atoms: O_34  and  C_35
REMARK                            x       y       z     vdW  Elec       q    Type
REMARK                         _______ _______ _______ _____ _____    ______ ____
ROOT
ATOM      1  C   UNL     1      -0.430  -7.010  -5.221  0.00  0.00    +0.214 C 
ATOM      2  N   UNL     1      -1.714  -6.538  -5.803  0.00  0.00    -0.228 NA
ATOM      3  N   UNL     1      -1.455  -6.571  -7.251  0.00  0.00    -0.234 NA
ATOM      4  C   UNL     1      -0.049  -6.127  -7.386  0.00  0.00    +0.185 C 
ATOM      5  N   UNL     1       0.609  -6.410  -6.091  0.00  0.00    -0.197 NA
ATOM      6  H   UNL     1      -1.927  -5.601  -5.495  0.00  0.00    +0.143 HD
ATOM      7  H   UNL     1      -2.079  -5.951  -7.744  0.00  0.00    +0.143 HD
ENDROOT
BRANCH   4   8
ATOM      8  C   UNL     1       0.643  -6.907  -8.505  0.00  0.00    +0.187 C 
ATOM      9  C   UNL     1      -0.001  -6.605  -9.847  0.00  0.00    +0.034 C 
ATOM     10  C   UNL     1      -0.471  -7.800 -10.255  0.00  0.00    +0.091 C 
ATOM     11  N   UNL     1      -0.189  -8.760  -9.336  0.00  0.00    -0.154 NA
ATOM     12  N   UNL     1       0.424  -8.354  -8.342  0.00  0.00    -0.176 NA
BRANCH  10  13
ATOM     13  C   UNL     1      -1.194  -8.034 -11.530  0.00  0.00    +0.002 A 
ATOM     14  C   UNL     1      -1.425  -6.975 -12.406  0.00  0.00    +0.013 A 
ATOM     15  C   UNL     1      -2.096  -7.196 -13.590  0.00  0.00    +0.046 A 
ATOM     16  C   UNL     1      -2.542  -8.471 -13.909  0.00  0.00    +0.120 A 
ATOM     17  C   UNL     1      -2.313  -9.528 -13.039  0.00  0.00    +0.046 A 
ATOM     18  C   UNL     1      -1.637  -9.314 -11.856  0.00  0.00    +0.013 A 
BRANCH  16  19
ATOM     19  O   UNL     1      -3.204  -8.686 -15.076  0.00  0.00    -0.495 OA
ATOM     20  C   UNL     1      -3.635 -10.022 -15.342  0.00  0.00    +0.277 C 
ENDBRANCH  16  19
ENDBRANCH  10  13
ENDBRANCH   4   8
BRANCH   5  21
ATOM     21  N   UNL     1       1.143  -5.193  -5.501  0.00  0.00    -0.264 NA
ATOM     22  H   UNL     1       1.655  -5.395  -4.655  0.00  0.00    +0.137 HD
ATOM     23  H   UNL     1       1.719  -4.694  -6.162  0.00  0.00    +0.137 HD
ENDBRANCH   5  21
BRANCH   1  24
ATOM     24  S   UNL     1      -0.250  -6.417  -3.516  0.00  0.00    -0.115 S 
BRANCH  24  25
ATOM     25  C   UNL     1      -1.256  -7.571  -2.542  0.00  0.00    +0.168 C 
BRANCH  25  27
ATOM     26  N   UNL     1      -1.984  -7.825  -0.192  0.00  0.00    -0.285 N 
ATOM     27  C   UNL     1      -1.292  -7.117  -1.106  0.00  0.00    +0.227 C 
ATOM     28  O   UNL     1      -0.697  -6.114  -0.772  0.00  0.00    -0.275 OA
ATOM     29  H   UNL     1      -2.397  -8.667  -0.443  0.00  0.00    +0.155 HD
BRANCH  26  33
ATOM     30  C   UNL     1      -2.370  -4.028   2.907  0.00  0.00    +0.045 C 
ATOM     31  C   UNL     1      -2.298  -5.511   2.648  0.00  0.00    -0.035 A 
ATOM     32  C   UNL     1      -2.175  -5.981   1.355  0.00  0.00    +0.027 A 
ATOM     33  C   UNL     1      -2.108  -7.347   1.117  0.00  0.00    +0.034 A 
ATOM     34  C   UNL     1      -2.166  -8.238   2.181  0.00  0.00    +0.024 A 
ATOM     35  C   UNL     1      -2.288  -7.763   3.472  0.00  0.00    +0.017 A 
ATOM     36  C   UNL     1      -2.349  -6.401   3.706  0.00  0.00    +0.021 A 
ATOM     37 BR   UNL     1      -2.508  -5.754   5.476  0.00  0.00    -0.050 Br
ENDBRANCH  26  33
ENDBRANCH  25  27
ENDBRANCH  24  25
ENDBRANCH   1  24
TORSDOF 8
