REMARK  Name = ZINC06011274
REMARK  6 active torsions:
REMARK  status: ('A' for Active; 'I' for Inactive)
REMARK    1  A    between atoms: C_1  and  C_2
REMARK    2  A    between atoms: C_2  and  N_47
REMARK    3  A    between atoms: C_3  and  C_4
REMARK    4  A    between atoms: C_3  and  N_47
REMARK    5  A    between atoms: C_5  and  N_47
REMARK    6  A    between atoms: C_11  and  C_13
REMARK                            x       y       z     vdW  Elec       q    Type
REMARK                         _______ _______ _______ _____ _____    ______ ____
ROOT
ATOM      1  C   UNL     1      -1.582   3.606   0.245  0.00  0.00    +0.162 C 
ATOM      2  N   UNL     1      -2.975   3.220   0.471  0.00  0.00    -0.178 N 
ATOM      3  C   UNL     1      -3.729   4.371   0.646  0.00  0.00    +0.168 C 
ATOM      4  N   UNL     1      -2.945   5.425   0.552  0.00  0.00    -0.160 NA
ATOM      5  N   UNL     1      -1.616   5.077   0.309  0.00  0.00    -0.182 N 
ATOM      6  C   UNL     1      -0.573   5.918   0.161  0.00  0.00    +0.266 C 
ATOM      7  O   UNL     1       0.522   5.481  -0.138  0.00  0.00    -0.268 OA
ATOM      8  C   UNL     1      -5.178   4.144   0.887  0.00  0.00    +0.044 A 
ATOM      9  C   UNL     1      -6.190   5.097   1.099  0.00  0.00    +0.013 A 
ATOM     10  C   UNL     1      -7.489   4.693   1.308  0.00  0.00    +0.001 A 
ATOM     11  C   UNL     1      -7.823   3.350   1.313  0.00  0.00    +0.002 A 
ATOM     12  C   UNL     1      -6.836   2.398   1.105  0.00  0.00    +0.029 A 
ATOM     13  C   UNL     1      -5.544   2.798   0.897  0.00  0.00    +0.119 A 
ATOM     14  S   UNL     1      -4.025   1.935   0.601  0.00  0.00    +0.077 S 
ATOM     15  O   UNL     1      -3.694   1.225   1.787  0.00  0.00    -0.150 OA
ATOM     16  O   UNL     1      -4.119   1.322  -0.678  0.00  0.00    -0.150 OA
ENDROOT
BRANCH   6  17
ATOM     17  C   UNL     1      -0.760   7.369   0.363  0.00  0.00    +0.039 A 
ATOM     18  C   UNL     1      -2.040   7.889   0.567  0.00  0.00    +0.014 A 
ATOM     19  C   UNL     1      -2.208   9.245   0.759  0.00  0.00    +0.016 A 
ATOM     20  C   UNL     1      -1.111  10.091   0.741  0.00  0.00    +0.018 A 
ATOM     21  C   UNL     1       0.160   9.581   0.533  0.00  0.00    +0.016 A 
ATOM     22  C   UNL     1       0.341   8.227   0.344  0.00  0.00    +0.014 A 
ATOM     23 BR   UNL     1      -1.351  11.948   0.999  0.00  0.00    -0.050 Br
ENDBRANCH   6  17
BRANCH   1  24
ATOM     24  N   UNL     1      -0.692   3.075   1.299  0.00  0.00    +0.405 N 
ATOM     25  H   UNL     1       0.235   3.506   1.201  0.00  0.00    -0.076 HD
BRANCH  24  27
ATOM     26  C   UNL     1       0.211   1.309  -0.134  0.00  0.00    -0.017 C 
ATOM     27  C   UNL     1      -0.557   1.610   1.155  0.00  0.00    -0.077 C 
ENDBRANCH  24  27
BRANCH  24  28
ATOM     28  C   UNL     1      -1.236   3.403   2.633  0.00  0.00    -0.077 C 
ATOM     29  C   UNL     1      -0.114   3.278   3.665  0.00  0.00    -0.017 C 
ENDBRANCH  24  28
ENDBRANCH   1  24
TORSDOF 4
