REMARK  Name = ZINC09433305
REMARK  8 active torsions:
REMARK  status: ('A' for Active; 'I' for Inactive)
REMARK    1  A    between atoms: C_1  and  C_2
REMARK    2  A    between atoms: C_2  and  C_3
REMARK    3  A    between atoms: C_2  and  C_4
REMARK    4  A    between atoms: C_4  and  N_5
REMARK    5  A    between atoms: C_6  and  C_33
REMARK    6  A    between atoms: C_8  and  C_18
REMARK    7  A    between atoms: C_25  and  C_26
REMARK    8  A    between atoms: C_25  and  N_68
REMARK                            x       y       z     vdW  Elec       q    Type
REMARK                         _______ _______ _______ _____ _____    ______ ____
ROOT
ATOM      1  N   UNL     1       3.919   7.766   1.246  0.00  0.00    -0.289 N 
ATOM      2  C   UNL     1       4.649   6.579   1.686  0.00  0.00    +0.129 C 
ATOM      3  C   UNL     1       4.577   5.475   0.634  0.00  0.00    +0.131 C 
ATOM      4  C   UNL     1       4.968   6.021  -0.714  0.00  0.00    -0.021 A 
ATOM      5  C   UNL     1       5.621   5.222  -1.631  0.00  0.00    +0.005 A 
ATOM      6  C   UNL     1       5.957   5.730  -2.874  0.00  0.00    +0.000 A 
ATOM      7  C   UNL     1       5.638   7.035  -3.207  0.00  0.00    +0.001 A 
ATOM      8  C   UNL     1       4.990   7.844  -2.295  0.00  0.00    +0.013 A 
ATOM      9  C   UNL     1       4.668   7.344  -1.036  0.00  0.00    +0.041 A 
ATOM     10  C   UNL     1       3.984   8.185  -0.032  0.00  0.00    +0.247 C 
ATOM     11  O   UNL     1       3.484   9.245  -0.357  0.00  0.00    -0.270 OA
ENDROOT
BRANCH   3  12
ATOM     12  C   UNL     1       3.169   4.940   0.566  0.00  0.00    +0.223 C 
ATOM     13  O   UNL     1       2.395   5.374  -0.260  0.00  0.00    -0.275 OA
ATOM     14  N   UNL     1       2.771   3.980   1.424  0.00  0.00    -0.318 N 
ATOM     15  C   UNL     1       3.723   3.369   2.364  0.00  0.00    +0.104 C 
ATOM     16  C   UNL     1       3.120   3.433   3.772  0.00  0.00    +0.000 C 
ATOM     17  C   UNL     1       1.713   2.830   3.741  0.00  0.00    -0.075 C 
ATOM     18  C   UNL     1       1.376   3.519   1.443  0.00  0.00    +0.033 C 
ATOM     19  N   UNL     1       0.868   3.628   2.828  0.00  0.00    +0.393 N 
ATOM     20  H   UNL     1       0.901   4.613   3.119  0.00  0.00    -0.079 HD
BRANCH  19  21
ATOM     21  C   UNL     1      -0.531   3.155   2.892  0.00  0.00    -0.039 C 
BRANCH  21  22
ATOM     22  C   UNL     1      -0.940   3.018   4.336  0.00  0.00    -0.046 A 
ATOM     23  C   UNL     1      -0.966   1.770   4.931  0.00  0.00    +0.003 A 
ATOM     24  C   UNL     1      -1.338   1.644   6.256  0.00  0.00    +0.000 A 
ATOM     25  C   UNL     1      -1.693   2.764   6.985  0.00  0.00    +0.001 A 
ATOM     26  C   UNL     1      -1.672   4.011   6.389  0.00  0.00    +0.020 A 
ATOM     27  C   UNL     1      -1.296   4.139   5.064  0.00  0.00    +0.042 A 
ATOM     28 CL   UNL     1      -1.270   5.705   4.315  0.00  0.00    -0.083 Cl
ENDBRANCH  21  22
ENDBRANCH  19  21
ENDBRANCH   3  12
BRANCH   2  29
ATOM     29  C   UNL     1       6.091   6.943   1.924  0.00  0.00    +0.011 A 
ATOM     30  C   UNL     1       6.913   6.562   2.933  0.00  0.00    +0.013 A 
ATOM     31  C   UNL     1       8.216   7.022   2.946  0.00  0.00    +0.008 A 
ATOM     32  C   UNL     1       8.631   7.849   1.956  0.00  0.00    +0.045 A 
ATOM     33  S   UNL     1       7.160   7.994   0.955  0.00  0.00    -0.100 S 
ENDBRANCH   2  29
BRANCH   1  34
ATOM     34  C   UNL     1       3.107   8.513   2.210  0.00  0.00    +0.111 C 
BRANCH  34  36
ATOM     35  C   UNL     1       4.391  10.620   1.821  0.00  0.00    +0.009 C 
ATOM     36  C   UNL     1       3.965   9.593   2.872  0.00  0.00    +0.000 C 
ATOM     37  C   UNL     1       3.154  10.290   3.966  0.00  0.00    +0.009 C 
ENDBRANCH  34  36
ENDBRANCH   1  34
TORSDOF 6
