REMARK  Name = ZINC61629933
REMARK  3 active torsions:
REMARK  status: ('A' for Active; 'I' for Inactive)
REMARK    1  A    between atoms: C_6  and  C_16
REMARK    2  A    between atoms: C_9  and  O_11
REMARK    3  A    between atoms: O_11  and  C_12
REMARK                            x       y       z     vdW  Elec       q    Type
REMARK                         _______ _______ _______ _____ _____    ______ ____
ROOT
ATOM      1  C   UNL     1      -0.017   1.388   0.010  0.00  0.00    +0.004 A 
ATOM      2  C   UNL     1       1.142   2.104   0.003  0.00  0.00    +0.012 A 
ATOM      3  C   UNL     1       2.375   1.433  -0.013  0.00  0.00    +0.022 A 
ATOM      4  C   UNL     1       3.594   2.139  -0.020  0.00  0.00    +0.052 A 
ATOM      5  C   UNL     1       4.756   1.418  -0.035  0.00  0.00    +0.049 A 
ATOM      6  C   UNL     1       4.710   0.026  -0.042  0.00  0.00    +0.109 A 
ATOM      7  N   UNL     1       3.573  -0.627  -0.035  0.00  0.00    -0.242 NA
ATOM      8  C   UNL     1       2.402   0.017  -0.021  0.00  0.00    +0.115 A 
ATOM      9  C   UNL     1       1.182  -0.692  -0.013  0.00  0.00    +0.156 A 
ATOM     10  C   UNL     1       0.002  -0.004   0.002  0.00  0.00    +0.048 A 
ATOM     11 CL   UNL     1       3.621   3.874  -0.011  0.00  0.00    -0.083 Cl
ENDROOT
BRANCH   6  12
ATOM     12  C   UNL     1       6.002  -0.750  -0.058  0.00  0.00    +0.390 C 
ATOM     13  F   UNL     1       5.807  -1.966  -0.722  0.00  0.00    -0.202 F 
ATOM     14  F   UNL     1       6.984  -0.008  -0.722  0.00  0.00    -0.202 F 
ENDBRANCH   6  12
BRANCH   9  15
ATOM     15  O   UNL     1       1.181  -2.050  -0.021  0.00  0.00    -0.404 OA
BRANCH  15  16
ATOM     16  C   UNL     1      -0.092  -2.698  -0.013  0.00  0.00    +0.575 C 
ATOM     17  F   UNL     1      -0.818  -2.315  -1.146  0.00  0.00    -0.133 F 
ATOM     18  F   UNL     1       0.090  -4.085  -0.022  0.00  0.00    -0.133 F 
ATOM     19  F   UNL     1      -0.796  -2.328   1.138  0.00  0.00    -0.133 F 
ENDBRANCH  15  16
ENDBRANCH   9  15
TORSDOF 3
