REMARK  Name = ZINC39667513
REMARK  7 active torsions:
REMARK  status: ('A' for Active; 'I' for Inactive)
REMARK    1  A    between atoms: C_1  and  C_2
REMARK    2  A    between atoms: C_6  and  C_9
REMARK    3  A    between atoms: C_7  and  C_8
REMARK    4  A    between atoms: C_9  and  N_10
REMARK    5  A    between atoms: C_11  and  C_13
REMARK    6  A    between atoms: C_24  and  C_26
REMARK    7  A    between atoms: C_29  and  C_33
REMARK                            x       y       z     vdW  Elec       q    Type
REMARK                         _______ _______ _______ _____ _____    ______ ____
ROOT
ATOM      1  C   UNL     1      -2.377  -3.839   4.788  0.00  0.00    +0.100 C 
ATOM      2  C   UNL     1      -3.457  -4.317   3.792  0.00  0.00    +0.121 C 
ATOM      3  N   UNL     1      -3.732  -5.719   4.183  0.00  0.00    -0.296 N 
ATOM      4  C   UNL     1      -3.703  -5.702   5.665  0.00  0.00    +0.115 C 
ATOM      5  C   UNL     1      -2.544  -4.748   6.017  0.00  0.00    -0.004 C 
ATOM      6  C   UNL     1      -2.900  -3.915   7.245  0.00  0.00    -0.010 C 
ATOM      7  C   UNL     1      -3.003  -4.834   8.466  0.00  0.00    -0.082 C 
ATOM      8  N   UNL     1      -1.724  -5.523   8.672  0.00  0.00    +0.379 N 
ATOM      9  C   UNL     1      -1.435  -6.394   7.526  0.00  0.00    -0.082 C 
ATOM     10  C   UNL     1      -1.265  -5.542   6.265  0.00  0.00    -0.010 C 
ATOM     11  C   UNL     1      -3.960  -6.773   3.373  0.00  0.00    +0.249 C 
ATOM     12  O   UNL     1      -4.265  -7.849   3.848  0.00  0.00    -0.270 OA
ATOM     13  H   UNL     1      -0.987  -4.841   8.769  0.00  0.00    -0.086 HD
ATOM     14  H   UNL     1      -1.775  -6.081   9.512  0.00  0.00    -0.086 HD
ENDROOT
BRANCH  11  15
ATOM     15  C   UNL     1      -3.837  -6.620   1.909  0.00  0.00    +0.072 A 
ATOM     16  C   UNL     1      -4.208  -5.421   1.296  0.00  0.00    +0.016 A 
ATOM     17  C   UNL     1      -4.091  -5.284  -0.071  0.00  0.00    +0.013 A 
ATOM     18  C   UNL     1      -3.608  -6.332  -0.837  0.00  0.00    +0.058 A 
ATOM     19  C   UNL     1      -3.239  -7.522  -0.239  0.00  0.00    +0.051 A 
ATOM     20  C   UNL     1      -3.345  -7.672   1.132  0.00  0.00    +0.136 A 
ATOM     21  F   UNL     1      -2.979  -8.834   1.716  0.00  0.00    -0.205 F 
BRANCH  18  22
ATOM     22  C   UNL     1      -3.484  -6.173  -2.331  0.00  0.00    +0.418 C 
ATOM     23  F   UNL     1      -2.218  -5.667  -2.642  0.00  0.00    -0.166 F 
ATOM     24  F   UNL     1      -3.654  -7.417  -2.947  0.00  0.00    -0.166 F 
ATOM     25  F   UNL     1      -4.466  -5.287  -2.788  0.00  0.00    -0.166 F 
ENDBRANCH  18  22
ENDBRANCH  11  15
BRANCH   1  27
ATOM     26  N   UNL     1       0.004  -3.199   4.581  0.00  0.00    -0.311 N 
ATOM     27  C   UNL     1      -1.002  -4.008   4.193  0.00  0.00    +0.218 C 
ATOM     28  O   UNL     1      -0.802  -4.872   3.366  0.00  0.00    -0.275 OA
ATOM     29  H   UNL     1      -0.157  -2.509   5.243  0.00  0.00    +0.149 HD
BRANCH  26  30
ATOM     30  C   UNL     1       1.340  -3.364   4.003  0.00  0.00    +0.139 C 
BRANCH  30  36
ATOM     31  C   UNL     1       4.282  -1.858   7.760  0.00  0.00    +0.044 C 
ATOM     32  C   UNL     1       3.682  -1.623   6.398  0.00  0.00    -0.047 A 
ATOM     33  C   UNL     1       3.989  -0.472   5.697  0.00  0.00    +0.003 A 
ATOM     34  C   UNL     1       3.438  -0.257   4.447  0.00  0.00    +0.001 A 
ATOM     35  C   UNL     1       2.580  -1.193   3.899  0.00  0.00    +0.005 A 
ATOM     36  C   UNL     1       2.275  -2.344   4.600  0.00  0.00    -0.027 A 
ATOM     37  C   UNL     1       2.829  -2.561   5.848  0.00  0.00    -0.043 A 
ATOM     38  C   UNL     1       2.500  -3.819   6.610  0.00  0.00    +0.044 C 
ENDBRANCH  30  36
ENDBRANCH  26  30
ENDBRANCH   1  27
TORSDOF 5
