REMARK  Name = ZINC08740539
REMARK  7 active torsions:
REMARK  status: ('A' for Active; 'I' for Inactive)
REMARK    1  A    between atoms: C_3  and  C_7
REMARK    2  A    between atoms: N_8  and  N_9
REMARK    3  A    between atoms: N_18  and  C1*_19
REMARK    4  A    between atoms: C2*_21  and  O2*_31
REMARK    5  A    between atoms: C3*_23  and  O3*_30
REMARK    6  A    between atoms: C4*_25  and  C5*_28
REMARK    7  A    between atoms: C5*_28  and  O5*_29
REMARK                            x       y       z     vdW  Elec       q    Type
REMARK                         _______ _______ _______ _____ _____    ______ ____
ROOT
ATOM      1  N   UNL     1       0.702   0.199   2.437  0.00  0.00    -0.206 N 
ATOM      2  C   UNL     1       1.511   1.317   2.459  0.00  0.00    +0.220 A 
ATOM      3  N   UNL     1       2.108   1.795   3.523  0.00  0.00    -0.208 NA
ATOM      4  C   UNL     1       2.820   2.897   3.183  0.00  0.00    +0.149 A 
ATOM      5  C   UNL     1       3.636   3.799   3.887  0.00  0.00    +0.147 A 
ATOM      6  N   UNL     1       4.197   4.801   3.218  0.00  0.00    -0.219 NA
ATOM      7  C   UNL     1       3.998   4.953   1.922  0.00  0.00    +0.225 A 
ATOM      8  N   UNL     1       3.242   4.133   1.222  0.00  0.00    -0.216 NA
ATOM      9  C   UNL     1       2.645   3.099   1.805  0.00  0.00    +0.169 A 
ATOM     10  N   UNL     1       1.811   2.094   1.373  0.00  0.00    -0.266 N 
ATOM     11  N   UNL     1       3.850   3.647   5.248  0.00  0.00    -0.341 N 
ATOM     12  H   UNL     1       0.360  -0.136   1.593  0.00  0.00    +0.177 HD
ATOM     13  H   UNL     1       2.976   3.696   5.730  0.00  0.00    +0.144 HD
ATOM     14  H   UNL     1       4.416   4.276   5.723  0.00  0.00    +0.144 HD
ENDROOT
BRANCH  10  15
ATOM     15  C1* UNL     1       1.337   1.888   0.003  0.00  0.00    +0.255 C 
ATOM     16  C2* UNL     1       0.298   2.967  -0.360  0.00  0.00    +0.195 C 
ATOM     17  C3* UNL     1       0.948   3.741  -1.532  0.00  0.00    +0.178 C 
ATOM     18  C4* UNL     1       2.449   3.400  -1.355  0.00  0.00    +0.177 C 
ATOM     19  O4* UNL     1       2.432   2.023  -0.919  0.00  0.00    -0.346 OA
BRANCH  17  20
ATOM     20  O3* UNL     1       0.462   3.265  -2.789  0.00  0.00    -0.386 OA
ATOM     21  H3* UNL     1       0.904   3.656  -3.555  0.00  0.00    +0.210 HD
ENDBRANCH  17  20
BRANCH  16  22
ATOM     22  O2* UNL     1       0.070   3.838   0.750  0.00  0.00    -0.385 OA
ATOM     23  H2* UNL     1      -0.533   4.570   0.558  0.00  0.00    +0.210 HD
ENDBRANCH  16  22
BRANCH  18  24
ATOM     24  C5* UNL     1       3.197   3.535  -2.683  0.00  0.00    +0.190 C 
BRANCH  24  25
ATOM     25  O5* UNL     1       4.578   3.228  -2.485  0.00  0.00    -0.392 OA
ATOM     26  H5* UNL     1       5.115   3.294  -3.287  0.00  0.00    +0.210 HD
ENDBRANCH  24  25
ENDBRANCH  18  24
ENDBRANCH  10  15
BRANCH   1  28
ATOM     27  C   UNL     1      -0.387  -1.504   3.613  0.00  0.00    +0.139 C 
ATOM     28  N   UNL     1       0.374  -0.453   3.634  0.00  0.00    -0.188 NA
BRANCH  27  31
ATOM     29  C   UNL     1      -1.844  -3.932   6.072  0.00  0.00    +0.020 A 
ATOM     30  C   UNL     1      -1.552  -3.325   4.863  0.00  0.00    +0.012 A 
ATOM     31  C   UNL     1      -0.731  -2.190   4.872  0.00  0.00    +0.013 A 
ATOM     32  C   UNL     1      -0.240  -1.722   6.093  0.00  0.00    +0.120 A 
ATOM     33  N   UNL     1      -0.553  -2.332   7.218  0.00  0.00    -0.263 NA
ATOM     34  C   UNL     1      -1.323  -3.403   7.239  0.00  0.00    +0.111 A 
ENDBRANCH  27  31
ENDBRANCH   1  28
TORSDOF 7
