REMARK  Name = ZINC05298612
REMARK  23 active torsions:
REMARK  status: ('A' for Active; 'I' for Inactive)
REMARK    1  A    between atoms: C_1  and  C_2
REMARK    2  A    between atoms: C_2  and  C_3
REMARK    3  A    between atoms: C_3  and  C_4
REMARK    4  A    between atoms: C_4  and  C_5
REMARK    5  A    between atoms: C_5  and  C_7
REMARK    6  A    between atoms: C_5  and  C_9
REMARK    7  A    between atoms: C_7  and  C_8
REMARK    8  A    between atoms: C_9  and  C_10
REMARK    9  A    between atoms: C_10  and  C_12
REMARK   10  A    between atoms: C_10  and  C_14
REMARK   11  A    between atoms: C_12  and  C_13
REMARK   12  A    between atoms: C_14  and  O_15
REMARK   13  A    between atoms: O_15  and  C_16
REMARK   14  A    between atoms: C_16  and  C_17
REMARK   15  A    between atoms: C_17  and  N_18
REMARK   16  A    between atoms: N_18  and  C_19
REMARK   17  A    between atoms: N_18  and  C_23
REMARK   18  A    between atoms: C_19  and  C_20
REMARK   19  A    between atoms: C_20  and  C_21
REMARK   20  A    between atoms: C_21  and  C_22
REMARK   21  A    between atoms: C_23  and  C_24
REMARK   22  A    between atoms: C_24  and  C_25
REMARK   23  A    between atoms: C_25  and  C_26
REMARK                            x       y       z     vdW  Elec       q    Type
REMARK                         _______ _______ _______ _____ _____    ______ ____
ROOT
ATOM      1  O   UNL     1      -0.694   1.696   0.156  0.00  0.00    -0.381 OA
ENDROOT
BRANCH   1   2
ATOM      2  C   UNL     1      -0.673   0.275   0.007  0.00  0.00    +0.141 C 
BRANCH   2   3
ATOM      3  C   UNL     1      -2.094  -0.274   0.151  0.00  0.00    -0.050 C 
BRANCH   3   4
ATOM      4  N   UNL     1      -2.940   0.272  -0.919  0.00  0.00    +0.381 N 
ATOM      5  H   UNL     1      -2.700   1.340  -1.028  0.00  0.00    -0.082 HD
BRANCH   4   6
ATOM      6  C   UNL     1      -4.363   0.161  -0.573  0.00  0.00    -0.079 C 
BRANCH   6   7
ATOM      7  C   UNL     1      -4.713   1.208   0.487  0.00  0.00    -0.019 C 
BRANCH   7   8
ATOM      8  C   UNL     1      -6.168   1.026   0.923  0.00  0.00    -0.005 C 
ATOM      9  C   UNL     1      -6.553   2.144   1.893  0.00  0.00    +0.004 C 
ENDBRANCH   7   8
ENDBRANCH   6   7
ENDBRANCH   4   6
BRANCH   4  10
ATOM     10  C   UNL     1      -2.657  -0.387  -2.201  0.00  0.00    -0.079 C 
BRANCH  10  11
ATOM     11  C   UNL     1      -3.366   0.367  -3.329  0.00  0.00    -0.019 C 
BRANCH  11  12
ATOM     12  C   UNL     1      -3.072  -0.319  -4.664  0.00  0.00    -0.005 C 
ATOM     13  C   UNL     1      -3.780   0.435  -5.792  0.00  0.00    +0.004 C 
ENDBRANCH  11  12
ENDBRANCH  10  11
ENDBRANCH   4  10
ENDBRANCH   3   4
ENDBRANCH   2   3
ENDBRANCH   1   2
BRANCH   1  14
ATOM     14  C   UNL     1       0.601   2.300   0.148  0.00  0.00    +0.163 C 
BRANCH  14  15
ATOM     15  C   UNL     1       0.467   3.797   0.433  0.00  0.00    +0.015 C 
BRANCH  15  16
ATOM     16  C   UNL     1       1.841   4.463   0.324  0.00  0.00    +0.002 C 
ATOM     17  C   UNL     1       2.333   4.382  -1.122  0.00  0.00    +0.004 C 
ENDBRANCH  15  16
BRANCH  15  18
ATOM     18  C   UNL     1      -0.087   4.000   1.845  0.00  0.00    +0.009 C 
BRANCH  18  19
ATOM     19  C   UNL     1      -0.338   5.490   2.086  0.00  0.00    -0.011 C 
BRANCH  19  20
ATOM     20  C   UNL     1      -1.441   5.979   1.145  0.00  0.00    +0.000 C 
ATOM     21  C   UNL     1      -2.752   5.265   1.480  0.00  0.00    +0.004 C 
ENDBRANCH  19  20
BRANCH  19  22
ATOM     22  C   UNL     1      -0.773   5.706   3.537  0.00  0.00    +0.003 C 
BRANCH  22  23
ATOM     23  C   UNL     1      -0.890   7.205   3.817  0.00  0.00    +0.000 C 
BRANCH  23  25
ATOM     24  C   UNL     1      -1.520   8.920   5.521  0.00  0.00    +0.004 C 
ATOM     25  C   UNL     1      -1.403   7.420   5.242  0.00  0.00    -0.003 C 
ENDBRANCH  23  25
ENDBRANCH  22  23
ENDBRANCH  19  22
ENDBRANCH  18  19
ENDBRANCH  15  18
ENDBRANCH  14  15
ENDBRANCH   1  14
TORSDOF 18
