REMARK  Name = ZINC15775221
REMARK  9 active torsions:
REMARK  status: ('A' for Active; 'I' for Inactive)
REMARK    1  A    between atoms: C_1  and  C_2
REMARK    2  A    between atoms: C_7  and  C_8
REMARK    3  A    between atoms: C_13  and  C_23
REMARK    4  A    between atoms: N_15  and  C_16
REMARK    5  A    between atoms: C_23  and  C_25
REMARK    6  A    between atoms: C_23  and  O_30
REMARK    7  A    between atoms: C_25  and  C_27
REMARK    8  A    between atoms: C_25  and  O_29
REMARK    9  A    between atoms: C_27  and  O_28
REMARK                            x       y       z     vdW  Elec       q    Type
REMARK                         _______ _______ _______ _____ _____    ______ ____
ROOT
ATOM      1  C   UNL     1       2.028   7.814   4.648  0.00  0.00    +0.044 C 
ATOM      2  C   UNL     1       2.521   6.694   3.769  0.00  0.00    -0.045 A 
ATOM      3  C   UNL     1       1.660   5.706   3.409  0.00  0.00    +0.033 A 
ATOM      4  C   UNL     1       2.113   4.655   2.587  0.00  0.00    +0.090 A 
ATOM      5  C   UNL     1       3.508   4.658   2.143  0.00  0.00    +0.092 A 
ATOM      6  C   UNL     1       4.347   5.712   2.552  0.00  0.00    +0.033 A 
ATOM      7  C   UNL     1       3.849   6.697   3.346  0.00  0.00    -0.045 A 
ATOM      8  C   UNL     1       4.755   7.820   3.779  0.00  0.00    +0.044 C 
ATOM      9  N   UNL     1       3.965   3.675   1.364  0.00  0.00    -0.224 NA
ATOM     10  C   UNL     1       3.154   2.704   0.998  0.00  0.00    +0.183 A 
ATOM     11  C   UNL     1       1.757   2.700   1.442  0.00  0.00    +0.134 A 
ATOM     12  N   UNL     1       1.296   3.670   2.214  0.00  0.00    -0.240 NA
ATOM     13  C   UNL     1       1.167   1.497   0.857  0.00  0.00    +0.122 A 
ATOM     14  N   UNL     1       2.090   0.886   0.175  0.00  0.00    -0.164 NA
ATOM     15  N   UNL     1       3.303   1.577   0.224  0.00  0.00    -0.212 N 
ENDROOT
BRANCH  15  16
ATOM     16  C   UNL     1       4.488   1.180  -0.409  0.00  0.00    +0.068 A 
ATOM     17  C   UNL     1       5.354   2.135  -0.925  0.00  0.00    +0.029 A 
ATOM     18  C   UNL     1       6.524   1.742  -1.545  0.00  0.00    +0.017 A 
ATOM     19  C   UNL     1       6.828   0.397  -1.660  0.00  0.00    +0.018 A 
ATOM     20  C   UNL     1       5.964  -0.557  -1.152  0.00  0.00    +0.017 A 
ATOM     21  C   UNL     1       4.795  -0.169  -0.527  0.00  0.00    +0.029 A 
ATOM     22 BR   UNL     1       8.428  -0.139  -2.515  0.00  0.00    -0.050 Br
ENDBRANCH  15  16
BRANCH  13  23
ATOM     23  C   UNL     1      -0.261   1.042   1.020  0.00  0.00    +0.197 C 
BRANCH  23  24
ATOM     24  O   UNL     1      -0.285  -0.359   1.299  0.00  0.00    -0.383 OA
ATOM     25  H   UNL     1       0.111  -0.905   0.606  0.00  0.00    +0.210 HD
ENDBRANCH  23  24
BRANCH  23  26
ATOM     26  C   UNL     1      -1.035   1.319  -0.270  0.00  0.00    +0.174 C 
BRANCH  26  27
ATOM     27  O   UNL     1      -1.011   2.720  -0.549  0.00  0.00    -0.387 OA
ATOM     28  H   UNL     1      -1.407   3.266   0.144  0.00  0.00    +0.210 HD
ENDBRANCH  26  27
BRANCH  26  29
ATOM     29  C   UNL     1      -2.484   0.856  -0.104  0.00  0.00    +0.190 C 
BRANCH  29  30
ATOM     30  O   UNL     1      -3.178   1.007  -1.344  0.00  0.00    -0.392 OA
ATOM     31  H   UNL     1      -4.104   0.733  -1.313  0.00  0.00    +0.210 HD
ENDBRANCH  29  30
ENDBRANCH  26  29
ENDBRANCH  23  26
ENDBRANCH  13  23
TORSDOF 7
