REMARK  Name = ZINC35392576
REMARK  15 active torsions:
REMARK  status: ('A' for Active; 'I' for Inactive)
REMARK    1  A    between atoms: C_1  and  C_2
REMARK    2  A    between atoms: C_2  and  C_3
REMARK    3  A    between atoms: C_3  and  N_4
REMARK    4  A    between atoms: N_4  and  C_5
REMARK    5  A    between atoms: C_5  and  C_6
REMARK    6  A    between atoms: C_6  and  C_7
REMARK    7  A    between atoms: C_8  and  C_10
REMARK    8  A    between atoms: C_10  and  C_11
REMARK    9  A    between atoms: C_11  and  N_12
REMARK   10  A    between atoms: N_12  and  C_13
REMARK   11  A    between atoms: C_13  and  C_14
REMARK   12  A    between atoms: C_14  and  C_15
REMARK   13  A    between atoms: C_14  and  C_16
REMARK   14  A    between atoms: C_19  and  C_22
REMARK   15  A    between atoms: C_22  and  C_23
REMARK                            x       y       z     vdW  Elec       q    Type
REMARK                         _______ _______ _______ _____ _____    ______ ____
ROOT
ATOM      1  N   UNL     1      -1.458  -2.154  -4.900  0.00  0.00    -0.308 N 
ATOM      2  C   UNL     1      -2.666  -1.822  -5.486  0.00  0.00    +0.181 A 
ATOM      3  N   UNL     1      -3.892  -2.076  -5.057  0.00  0.00    -0.208 NA
ATOM      4  C   UNL     1      -4.895  -1.654  -5.795  0.00  0.00    +0.145 A 
ATOM      5  N   UNL     1      -4.623  -1.011  -6.903  0.00  0.00    -0.192 NA
ATOM      6  S   UNL     1      -2.947  -0.987  -6.917  0.00  0.00    +0.049 S 
ENDROOT
BRANCH   1   7
ATOM      7  C   UNL     1      -1.436  -2.893  -3.635  0.00  0.00    +0.116 C 
BRANCH   7   8
ATOM      8  C   UNL     1      -1.438  -1.906  -2.467  0.00  0.00    +0.115 C 
BRANCH   8  10
ATOM      9  N   UNL     1      -1.413  -1.998   0.005  0.00  0.00    -0.301 N 
ATOM     10  C   UNL     1      -1.415  -2.666  -1.166  0.00  0.00    +0.217 C 
ATOM     11  O   UNL     1      -1.399  -3.879  -1.173  0.00  0.00    -0.276 OA
BRANCH   9  12
ATOM     12  C   UNL     1      -1.433  -0.534   0.013  0.00  0.00    +0.107 C 
BRANCH  12  14
ATOM     13  C   UNL     1      -0.019   1.526   0.010  0.00  0.00    +0.005 C 
ATOM     14  C   UNL     1       0.002  -0.004   0.002  0.00  0.00    +0.016 C 
ENDBRANCH  12  14
ENDBRANCH   9  12
BRANCH   9  15
ATOM     15  C   UNL     1      -1.391  -2.738   1.269  0.00  0.00    +0.107 C 
BRANCH  15  16
ATOM     16  C   UNL     1      -2.826  -3.015   1.723  0.00  0.00    +0.016 C 
ATOM     17  C   UNL     1      -2.803  -3.787   3.044  0.00  0.00    +0.005 C 
ENDBRANCH  15  16
ENDBRANCH   9  15
ENDBRANCH   8  10
ENDBRANCH   7   8
ENDBRANCH   1   7
BRANCH   1  18
ATOM     18  C   UNL     1      -0.200  -1.767  -5.544  0.00  0.00    +0.110 C 
BRANCH  18  19
ATOM     19  C   UNL     1       0.248  -2.878  -6.497  0.00  0.00    +0.000 C 
ATOM     20  C   UNL     1       1.492  -2.423  -7.261  0.00  0.00    +0.009 C 
ATOM     21  C   UNL     1       0.576  -4.138  -5.693  0.00  0.00    +0.009 C 
ENDBRANCH  18  19
ENDBRANCH   1  18
BRANCH   4  22
ATOM     22  C   UNL     1      -6.321  -1.904  -5.376  0.00  0.00    +0.112 C 
BRANCH  22  23
ATOM     23  C   UNL     1      -6.803  -0.758  -4.524  0.00  0.00    -0.040 A 
ATOM     24  C   UNL     1      -6.631  -0.796  -3.153  0.00  0.00    +0.004 A 
ATOM     25  C   UNL     1      -7.073   0.255  -2.372  0.00  0.00    +0.000 A 
ATOM     26  C   UNL     1      -7.686   1.345  -2.961  0.00  0.00    +0.000 A 
ATOM     27  C   UNL     1      -7.857   1.384  -4.333  0.00  0.00    +0.000 A 
ATOM     28  C   UNL     1      -7.411   0.334  -5.114  0.00  0.00    +0.004 A 
ENDBRANCH  22  23
ENDBRANCH   4  22
TORSDOF 11
