REMARK  Name = ZINC13687512
REMARK  3 active torsions:
REMARK  status: ('A' for Active; 'I' for Inactive)
REMARK    1  A    between atoms: C_6  and  S_7
REMARK    2  A    between atoms: S_7  and  N_10
REMARK    3  A    between atoms: C_16  and  C_20
REMARK                            x       y       z     vdW  Elec       q    Type
REMARK                         _______ _______ _______ _____ _____    ______ ____
ROOT
ATOM      1  N   UNL     1       0.988  -2.454  -1.779  0.00  0.00    -0.194 N 
ATOM      2  C   UNL     1       2.101  -2.243  -2.564  0.00  0.00    +0.179 A 
ATOM      3  N   UNL     1       3.318  -1.904  -2.196  0.00  0.00    -0.224 NA
ATOM      4  C   UNL     1       4.320  -1.730  -3.079  0.00  0.00    +0.080 A 
ATOM      5  C   UNL     1       5.664  -1.368  -2.812  0.00  0.00    +0.029 A 
ATOM      6  C   UNL     1       6.564  -1.230  -3.816  0.00  0.00    +0.015 A 
ATOM      7  C   UNL     1       6.205  -1.440  -5.155  0.00  0.00    +0.038 A 
ATOM      8  C   UNL     1       4.887  -1.799  -5.455  0.00  0.00    +0.030 A 
ATOM      9  C   UNL     1       3.982  -1.937  -4.439  0.00  0.00    +0.042 A 
ATOM     10  S   UNL     1       2.261  -2.369  -4.340  0.00  0.00    -0.051 S 
ATOM     11  H   UNL     1       0.145  -2.704  -2.190  0.00  0.00    +0.176 HD
ENDROOT
BRANCH   7  12
ATOM     12  C   UNL     1       7.202  -1.285  -6.230  0.00  0.00    +0.247 C 
ATOM     13  O   UNL     1       7.882  -0.279  -6.289  0.00  0.00    -0.270 OA
ATOM     14  N   UNL     1       7.359  -2.259  -7.149  0.00  0.00    -0.297 N 
ATOM     15  C   UNL     1       6.493  -3.446  -7.137  0.00  0.00    +0.113 C 
ATOM     16  C   UNL     1       7.366  -4.699  -7.109  0.00  0.00    +0.084 C 
ATOM     17  C   UNL     1       8.358  -4.652  -8.272  0.00  0.00    +0.173 C 
ATOM     18  C   UNL     1       9.262  -3.425  -8.135  0.00  0.00    +0.084 C 
ATOM     19  C   UNL     1       8.404  -2.157  -8.177  0.00  0.00    +0.113 C 
ATOM     20  O   UNL     1       9.158  -5.841  -8.272  0.00  0.00    -0.346 OA
ATOM     21  C   UNL     1       8.941  -6.502  -9.535  0.00  0.00    +0.191 C 
ATOM     22  C   UNL     1       8.422  -5.360 -10.444  0.00  0.00    +0.191 C 
ATOM     23  O   UNL     1       7.637  -4.577  -9.513  0.00  0.00    -0.346 OA
ENDBRANCH   7  12
BRANCH   1  24
ATOM     24  S   UNL     1       1.089  -2.282  -0.135  0.00  0.00    +0.074 S 
ATOM     25  O   UNL     1       2.231  -3.019   0.281  0.00  0.00    -0.150 OA
ATOM     26  O   UNL     1      -0.210  -2.536   0.380  0.00  0.00    -0.150 OA
BRANCH  24  32
ATOM     27  C   UNL     1       0.401   0.311   0.366  0.00  0.00    +0.030 A 
ATOM     28  C   UNL     1       0.673   1.641   0.622  0.00  0.00    +0.022 A 
ATOM     29  C   UNL     1       1.984   2.076   0.701  0.00  0.00    +0.041 A 
ATOM     30  C   UNL     1       3.022   1.177   0.526  0.00  0.00    +0.022 A 
ATOM     31  C   UNL     1       2.748  -0.153   0.270  0.00  0.00    +0.030 A 
ATOM     32  C   UNL     1       1.438  -0.586   0.191  0.00  0.00    +0.109 A 
ATOM     33 CL   UNL     1       2.328   3.747   1.021  0.00  0.00    -0.084 Cl
ENDBRANCH  24  32
ENDBRANCH   1  24
TORSDOF 3
