REMARK  Name = ZINC49066680
REMARK  7 active torsions:
REMARK  status: ('A' for Active; 'I' for Inactive)
REMARK    1  A    between atoms: C_1  and  O_2
REMARK    2  A    between atoms: O_2  and  C_3
REMARK    3  A    between atoms: C_3  and  C_4
REMARK    4  A    between atoms: C_4  and  N_5
REMARK    5  A    between atoms: C_9  and  C_11
REMARK    6  A    between atoms: C_11  and  N_12
REMARK    7  A    between atoms: N_12  and  C_13
REMARK                            x       y       z     vdW  Elec       q    Type
REMARK                         _______ _______ _______ _____ _____    ______ ____
ROOT
ATOM      1  N   UNL     1      -0.515  -2.565   1.245  0.00  0.00    -0.297 N 
ATOM      2  C   UNL     1      -0.287  -3.876   1.459  0.00  0.00    +0.306 C 
ATOM      3  O   UNL     1      -0.611  -4.694   0.621  0.00  0.00    -0.252 OA
ATOM      4  N   UNL     1       0.300  -4.280   2.603  0.00  0.00    -0.239 N 
ATOM      5  C   UNL     1       0.528  -5.591   2.817  0.00  0.00    +0.237 C 
ATOM      6  O   UNL     1       0.205  -6.407   1.980  0.00  0.00    -0.274 OA
ATOM      7  H   UNL     1      -0.257  -1.913   1.914  0.00  0.00    +0.150 HD
ATOM      8  H   UNL     1       0.558  -3.627   3.272  0.00  0.00    +0.159 HD
ENDROOT
BRANCH   1   9
ATOM      9  C   UNL     1      -1.154  -2.126   0.002  0.00  0.00    +0.133 C 
BRANCH   9  10
ATOM     10  C   UNL     1      -1.295  -0.603   0.011  0.00  0.00    +0.178 C 
BRANCH  10  12
ATOM     11  C   UNL     1      -0.017   1.425   0.010  0.00  0.00    +0.194 C 
ATOM     12  O   UNL     1       0.002  -0.004   0.002  0.00  0.00    -0.381 OA
ENDBRANCH  10  12
ENDBRANCH   9  10
ENDBRANCH   1   9
BRANCH   5  13
ATOM     13  C   UNL     1       1.185  -6.043   4.096  0.00  0.00    +0.198 C 
BRANCH  13  14
ATOM     14  N   UNL     1       1.320  -7.501   4.087  0.00  0.00    -0.335 N 
ATOM     15  H   UNL     1       1.004  -8.013   3.326  0.00  0.00    +0.147 HD
BRANCH  14  16
ATOM     16  C   UNL     1       1.905  -8.155   5.174  0.00  0.00    +0.042 A 
ATOM     17  C   UNL     1       2.352  -7.425   6.268  0.00  0.00    +0.039 A 
ATOM     18  C   UNL     1       2.929  -8.075   7.342  0.00  0.00    +0.020 A 
ATOM     19  C   UNL     1       3.061  -9.453   7.329  0.00  0.00    +0.016 A 
ATOM     20  C   UNL     1       2.616 -10.182   6.242  0.00  0.00    +0.017 A 
ATOM     21  C   UNL     1       2.034  -9.539   5.167  0.00  0.00    +0.034 A 
ATOM     22  I   UNL     1       1.353 -10.647   3.525  0.00  0.00    -0.042 I 
ATOM     23 BR   UNL     1       3.539  -7.081   8.830  0.00  0.00    -0.050 Br
ENDBRANCH  14  16
ENDBRANCH  13  14
ENDBRANCH   5  13
TORSDOF 6
