REMARK  Name = ZINC03167270
REMARK  7 active torsions:
REMARK  status: ('A' for Active; 'I' for Inactive)
REMARK    1  A    between atoms: C_1  and  C_2
REMARK    2  A    between atoms: C_3  and  C_23
REMARK    3  A    between atoms: C_4  and  S_13
REMARK    4  A    between atoms: N_5  and  C_7
REMARK    5  A    between atoms: S_13  and  C_14
REMARK    6  A    between atoms: N_24  and  N_25
REMARK    7  A    between atoms: N_28  and  C_31
REMARK                            x       y       z     vdW  Elec       q    Type
REMARK                         _______ _______ _______ _____ _____    ______ ____
ROOT
ATOM      1  C   UNL     1      -4.394  -6.060   2.506  0.00  0.00    +0.068 C 
ATOM      2  C   UNL     1      -5.177  -5.271   3.523  0.00  0.00    +0.070 A 
ATOM      3  C   UNL     1      -5.279  -3.865   3.576  0.00  0.00    +0.049 A 
ATOM      4  C   UNL     1      -6.093  -3.553   4.656  0.00  0.00    +0.116 A 
ATOM      5  N   UNL     1      -6.461  -4.730   5.232  0.00  0.00    -0.225 N 
ATOM      6  N   UNL     1      -5.873  -5.773   4.508  0.00  0.00    -0.170 NA
ENDROOT
BRANCH   5   7
ATOM      7  C   UNL     1      -7.284  -4.873   6.356  0.00  0.00    +0.067 A 
ATOM      8  C   UNL     1      -7.226  -3.941   7.384  0.00  0.00    +0.028 A 
ATOM      9  C   UNL     1      -8.043  -4.081   8.489  0.00  0.00    +0.002 A 
ATOM     10  C   UNL     1      -8.911  -5.155   8.577  0.00  0.00    +0.000 A 
ATOM     11  C   UNL     1      -8.967  -6.088   7.558  0.00  0.00    +0.002 A 
ATOM     12  C   UNL     1      -8.156  -5.950   6.448  0.00  0.00    +0.028 A 
ENDBRANCH   5   7
BRANCH   3  13
ATOM     13  C   UNL     1      -4.645  -2.906   2.652  0.00  0.00    +0.142 C 
ATOM     14  N   UNL     1      -3.904  -3.337   1.679  0.00  0.00    -0.192 NA
BRANCH  14  15
ATOM     15  N   UNL     1      -3.205  -2.427   0.875  0.00  0.00    -0.253 N 
ATOM     16  C   UNL     1      -2.280  -2.896  -0.168  0.00  0.00    +0.145 C 
ATOM     17  C   UNL     1      -0.938  -2.179   0.013  0.00  0.00    +0.127 C 
ATOM     18  N   UNL     1      -1.162  -0.727   0.037  0.00  0.00    -0.314 N 
ATOM     19  C   UNL     1      -1.993  -0.335   1.184  0.00  0.00    +0.127 C 
ATOM     20  C   UNL     1      -3.378  -0.977   1.051  0.00  0.00    +0.145 C 
BRANCH  18  21
ATOM     21  C   UNL     1       0.044  -0.037   0.036  0.00  0.00    +0.099 A 
ATOM     22  C   UNL     1       0.043   1.355   0.058  0.00  0.00    +0.042 A 
ATOM     23  C   UNL     1       1.250   2.029   0.057  0.00  0.00    +0.005 A 
ATOM     24  C   UNL     1       2.424   1.286   0.036  0.00  0.00    +0.018 A 
ATOM     25  C   UNL     1       2.351  -0.092   0.015  0.00  0.00    +0.084 A 
ATOM     26  N   UNL     1       1.183  -0.788   0.015  0.00  0.00    -0.350 N 
ATOM     27  H   UNL     1       1.159  -1.814  -0.001  0.00  0.00    +0.166 HD
ENDBRANCH  18  21
ENDBRANCH  14  15
ENDBRANCH   3  13
BRANCH   4  28
ATOM     28  S   UNL     1      -6.563  -1.938   5.181  0.00  0.00    -0.042 S 
BRANCH  28  29
ATOM     29  C   UNL     1      -8.114  -1.788   4.359  0.00  0.00    +0.142 A 
ATOM     30  N   UNL     1      -8.958  -0.780   4.368  0.00  0.00    -0.232 NA
ATOM     31  C   UNL     1     -10.122  -0.803   3.684  0.00  0.00    +0.079 A 
ATOM     32  C   UNL     1     -11.111   0.205   3.610  0.00  0.00    +0.029 A 
ATOM     33  C   UNL     1     -12.245   0.021   2.862  0.00  0.00    +0.002 A 
ATOM     34  C   UNL     1     -12.464  -1.153   2.156  0.00  0.00    +0.001 A 
ATOM     35  C   UNL     1     -11.518  -2.161   2.207  0.00  0.00    +0.017 A 
ATOM     36  C   UNL     1     -10.380  -1.984   2.952  0.00  0.00    +0.040 A 
ATOM     37  S   UNL     1      -8.937  -2.963   3.293  0.00  0.00    -0.061 S 
ENDBRANCH  28  29
ENDBRANCH   4  28
TORSDOF 6
