REMARK  Name = ZINC50595057
REMARK  13 active torsions:
REMARK  status: ('A' for Active; 'I' for Inactive)
REMARK    1  A    between atoms: C_1  and  C_2
REMARK    2  A    between atoms: C_4  and  C_20
REMARK    3  A    between atoms: N_5  and  C_7
REMARK    4  A    between atoms: C_7  and  C_8
REMARK    5  A    between atoms: C_8  and  C_9
REMARK    6  A    between atoms: C_9  and  C_10
REMARK    7  A    between atoms: C_10  and  C_11
REMARK    8  A    between atoms: C_11  and  C_12
REMARK    9  A    between atoms: C_11  and  C_13
REMARK   10  A    between atoms: C_11  and  N_16
REMARK   11  A    between atoms: N_16  and  C_17
REMARK   12  A    between atoms: C_17  and  C_18
REMARK   13  A    between atoms: C_17  and  C_19
REMARK                            x       y       z     vdW  Elec       q    Type
REMARK                         _______ _______ _______ _____ _____    ______ ____
ROOT
ATOM      1  C   UNL     1       3.674  -6.446   4.054  0.00  0.00    +0.007 C 
ATOM      2  C   UNL     1       2.814  -6.991   2.911  0.00  0.00    -0.001 C 
ENDROOT
BRANCH   1   3
ATOM      3  C   UNL     1       2.785  -6.039   5.201  0.00  0.00    +0.199 C 
ATOM      4  O   UNL     1       1.592  -5.909   5.028  0.00  0.00    -0.278 OA
ATOM      5  N   UNL     1       3.317  -5.820   6.420  0.00  0.00    -0.330 N 
ATOM      6  H   UNL     1       4.271  -5.924   6.559  0.00  0.00    +0.145 HD
ATOM      7  H   UNL     1       2.744  -5.559   7.159  0.00  0.00    +0.145 HD
ENDBRANCH   1   3
BRANCH   1   8
ATOM      8  N   UNL     1       4.608  -7.486   4.503  0.00  0.00    +0.390 N 
ATOM      9  H   UNL     1       5.274  -7.679   3.770  0.00  0.00    -0.084 HD
ATOM     10  H   UNL     1       5.098  -7.166   5.325  0.00  0.00    -0.084 HD
BRANCH   8  11
ATOM     11  C   UNL     1       3.862  -8.710   4.822  0.00  0.00    -0.077 C 
ATOM     12  C   UNL     1       4.843  -9.863   5.042  0.00  0.00    -0.014 C 
ATOM     13  C   UNL     1       3.040  -8.490   6.094  0.00  0.00    -0.014 C 
ENDBRANCH   8  11
ENDBRANCH   1   8
BRANCH   1  14
ATOM     14  C   UNL     1       4.462  -5.229   3.564  0.00  0.00    -0.004 C 
BRANCH  14  15
ATOM     15  C   UNL     1       3.488  -4.145   3.096  0.00  0.00    +0.001 C 
BRANCH  15  16
ATOM     16  C   UNL     1       4.276  -2.929   2.606  0.00  0.00    +0.023 C 
BRANCH  16  17
ATOM     17  C   UNL     1       3.303  -1.845   2.138  0.00  0.00    +0.144 C 
BRANCH  17  22
ATOM     18  C   UNL     1       5.721   2.553   2.116  0.00  0.00    +0.068 C 
ATOM     19  C   UNL     1       5.111   1.246   1.682  0.00  0.00    +0.074 A 
ATOM     20  C   UNL     1       5.140   0.717   0.386  0.00  0.00    +0.061 A 
ATOM     21  C   UNL     1       4.485  -0.468   0.406  0.00  0.00    +0.050 A 
ATOM     22  N   UNL     1       4.057  -0.681   1.668  0.00  0.00    -0.267 N 
ATOM     23  N   UNL     1       4.467   0.406   2.452  0.00  0.00    -0.175 NA
ATOM     24  C   UNL     1       4.271  -1.384  -0.771  0.00  0.00    +0.066 C 
ATOM     25 BR   UNL     1       5.949   1.516  -1.124  0.00  0.00    -0.047 Br
ENDBRANCH  17  22
ENDBRANCH  16  17
ENDBRANCH  15  16
ENDBRANCH  14  15
ENDBRANCH   1  14
TORSDOF 8
