REMARK  Name = ZINC36360047
REMARK  1 active torsions:
REMARK  status: ('A' for Active; 'I' for Inactive)
REMARK    1  A    between atoms: C_3  and  C_8
REMARK                            x       y       z     vdW  Elec       q    Type
REMARK                         _______ _______ _______ _____ _____    ______ ____
ROOT
ATOM      1  C   UNL     1       3.672   2.183  -0.022  0.00  0.00    +0.068 C 
ATOM      2  C   UNL     1       4.507   1.810   1.211  0.00  0.00    +0.109 C 
ATOM      3  C   UNL     1       5.946   2.193   1.013  0.00  0.00    +0.219 C 
ATOM      4  O   UNL     1       6.564   2.623   1.964  0.00  0.00    -0.275 OA
ATOM      5  N   UNL     1       6.582   2.081  -0.167  0.00  0.00    -0.270 N 
ATOM      6  C   UNL     1       5.820   1.783  -1.326  0.00  0.00    +0.138 A 
ATOM      7  C   UNL     1       4.457   1.834  -1.238  0.00  0.00    +0.041 A 
ATOM      8  S   UNL     1       3.948   1.397  -2.872  0.00  0.00    -0.055 S 
ATOM      9  C   UNL     1       5.486   1.211  -3.540  0.00  0.00    +0.163 A 
ATOM     10  N   UNL     1       6.290   1.469  -2.527  0.00  0.00    -0.210 NA
ATOM     11  N   UNL     1       5.822   0.868  -4.840  0.00  0.00    -0.305 N 
ATOM     12  C   UNL     1       4.783   0.616  -5.851  0.00  0.00    +0.135 C 
ATOM     13  C   UNL     1       5.108   1.448  -7.096  0.00  0.00    +0.179 C 
ATOM     14  O   UNL     1       6.457   1.191  -7.495  0.00  0.00    -0.377 OA
ATOM     15  C   UNL     1       7.436   1.570  -6.525  0.00  0.00    +0.179 C 
ATOM     16  C   UNL     1       7.230   0.750  -5.252  0.00  0.00    +0.135 C 
ATOM     17  H   UNL     1       7.543   2.202  -0.224  0.00  0.00    +0.156 HD
ENDROOT
BRANCH   1  20
ATOM     18  C   UNL     1      -0.017   1.378   0.010  0.00  0.00    +0.001 A 
ATOM     19  C   UNL     1       1.171   2.086   0.002  0.00  0.00    +0.004 A 
ATOM     20  C   UNL     1       2.378   1.411  -0.013  0.00  0.00    -0.038 A 
ATOM     21  C   UNL     1       2.397   0.029  -0.022  0.00  0.00    +0.019 A 
ATOM     22  C   UNL     1       1.210  -0.679  -0.014  0.00  0.00    +0.018 A 
ATOM     23  C   UNL     1       0.002  -0.004   0.002  0.00  0.00    +0.015 A 
ATOM     24 BR   UNL     1       1.236  -2.570  -0.025  0.00  0.00    -0.050 Br
ENDBRANCH   1  20
TORSDOF 1
