REMARK  Name = ZINC22412272
REMARK  5 active torsions:
REMARK  status: ('A' for Active; 'I' for Inactive)
REMARK    1  A    between atoms: C_4  and  N_7
REMARK    2  A    between atoms: N_10  and  C_11
REMARK    3  A    between atoms: C_15  and  N_17
REMARK    4  A    between atoms: N_17  and  S_18
REMARK    5  A    between atoms: S_18  and  C_21
REMARK                            x       y       z     vdW  Elec       q    Type
REMARK                         _______ _______ _______ _____ _____    ______ ____
ROOT
ATOM      1  C   UNL     1       6.748  -0.553   2.719  0.00  0.00    +0.037 A 
ATOM      2  C   UNL     1       5.970  -1.570   2.180  0.00  0.00    +0.023 A 
ATOM      3  C   UNL     1       4.687  -1.303   1.745  0.00  0.00    +0.004 A 
ATOM      4  C   UNL     1       4.171  -0.025   1.847  0.00  0.00    +0.027 A 
ATOM      5  C   UNL     1       4.946   0.998   2.380  0.00  0.00    +0.076 A 
ATOM      6  C   UNL     1       6.236   0.732   2.819  0.00  0.00    +0.050 A 
ENDROOT
BRANCH   1  10
ATOM      7  N   UNL     1      10.289  -0.195   3.348  0.00  0.00    -0.269 N 
ATOM      8  C   UNL     1       9.019   0.099   3.006  0.00  0.00    +0.308 C 
ATOM      9  O   UNL     1       8.748   1.196   2.558  0.00  0.00    -0.252 OA
ATOM     10  N   UNL     1       8.049  -0.824   3.160  0.00  0.00    -0.269 N 
ATOM     11  H   UNL     1      10.548  -1.212   3.678  0.00  0.00    +0.156 HD
ATOM     12  H   UNL     1       8.279  -1.791   3.632  0.00  0.00    +0.156 HD
BRANCH   7  16
ATOM     13  C   UNL     1      13.232   2.747   3.154  0.00  0.00    +0.000 A 
ATOM     14  C   UNL     1      13.277   1.790   4.152  0.00  0.00    +0.002 A 
ATOM     15  C   UNL     1      12.303   0.814   4.219  0.00  0.00    +0.023 A 
ATOM     16  C   UNL     1      11.278   0.793   3.283  0.00  0.00    +0.035 A 
ATOM     17  C   UNL     1      11.239   1.751   2.278  0.00  0.00    +0.023 A 
ATOM     18  C   UNL     1      12.213   2.728   2.220  0.00  0.00    +0.002 A 
ENDBRANCH   7  16
ENDBRANCH   1  10
BRANCH   5  19
ATOM     19  N   UNL     1       4.425   2.290   2.480  0.00  0.00    -0.098 NA
BRANCH  19  20
ATOM     20  S   UNL     1       3.622   2.960   1.196  0.00  0.00    +0.094 S 
ATOM     21  O   UNL     1       3.313   4.297   1.564  0.00  0.00    -0.148 OA
ATOM     22  O   UNL     1       2.623   2.026   0.810  0.00  0.00    -0.148 OA
BRANCH  20  23
ATOM     23  C   UNL     1       4.765   3.056  -0.141  0.00  0.00    +0.138 A 
ATOM     24  C   UNL     1       4.559   2.324  -1.262  0.00  0.00    +0.031 A 
ATOM     25  C   UNL     1       5.443   2.376  -2.340  0.00  0.00    +0.004 A 
ATOM     26  C   UNL     1       6.547   3.161  -2.314  0.00  0.00    +0.031 A 
ATOM     27  C   UNL     1       6.826   3.956  -1.172  0.00  0.00    +0.102 A 
ATOM     28  C   UNL     1       5.901   3.902  -0.044  0.00  0.00    +0.126 A 
ATOM     29  N   UNL     1       6.284   4.694   0.955  0.00  0.00    -0.189 NA
ATOM     30  S   UNL     1       7.614   5.378   0.487  0.00  0.00    +0.117 S 
ATOM     31  N   UNL     1       7.843   4.785  -0.946  0.00  0.00    -0.191 NA
ENDBRANCH  20  23
ENDBRANCH  19  20
ENDBRANCH   5  19
TORSDOF 5
