REMARK  Name = ZINC62564395
REMARK  6 active torsions:
REMARK  status: ('A' for Active; 'I' for Inactive)
REMARK    1  A    between atoms: C_1  and  C_2
REMARK    2  A    between atoms: C_2  and  C_3
REMARK    3  A    between atoms: C_2  and  C_4
REMARK    4  A    between atoms: C_12  and  C_17
REMARK    5  A    between atoms: C_17  and  C_18
REMARK    6  A    between atoms: C_18  and  N_19
REMARK                            x       y       z     vdW  Elec       q    Type
REMARK                         _______ _______ _______ _____ _____    ______ ____
ROOT
ATOM      1  C   UNL     1       0.731  -0.503   1.223  0.00  0.00    -0.042 A 
ATOM      2  C   UNL     1       0.078  -1.317   2.131  0.00  0.00    +0.031 A 
ATOM      3  C   UNL     1       0.750  -1.779   3.251  0.00  0.00    +0.077 A 
ATOM      4  C   UNL     1       2.075  -1.408   3.470  0.00  0.00    +0.157 A 
ATOM      5  C   UNL     1       2.724  -0.597   2.554  0.00  0.00    +0.062 A 
ATOM      6  C   UNL     1       2.052  -0.151   1.429  0.00  0.00    +0.023 A 
ATOM      7 BR   UNL     1       4.528  -0.104   2.836  0.00  0.00    -0.046 Br
ATOM      8  O   UNL     1       2.717  -1.831   4.592  0.00  0.00    -0.477 OA
ATOM      9  C   UNL     1       2.340  -3.107   5.114  0.00  0.00    +0.257 C 
ATOM     10  C   UNL     1       0.836  -3.221   5.134  0.00  0.00    +0.258 C 
ATOM     11  O   UNL     1       0.286  -3.860   6.006  0.00  0.00    -0.271 OA
ATOM     12  N   UNL     1       0.106  -2.610   4.178  0.00  0.00    -0.279 N 
ATOM     13  H   UNL     1      -0.854  -2.744   4.133  0.00  0.00    +0.155 HD
ENDROOT
BRANCH   1  15
ATOM     14  C   UNL     1      -0.019   1.526   0.010  0.00  0.00    +0.012 C 
ATOM     15  C   UNL     1       0.002  -0.004   0.002  0.00  0.00    +0.013 C 
ATOM     16  C   UNL     1       0.718  -0.497  -1.257  0.00  0.00    +0.012 C 
ENDBRANCH   1  15
BRANCH   9  17
ATOM     17  C   UNL     1       2.922  -4.211   4.229  0.00  0.00    +0.035 C 
BRANCH  17  18
ATOM     18  C   UNL     1       4.449  -4.176   4.309  0.00  0.00    -0.082 C 
BRANCH  18  19
ATOM     19  N   UNL     1       5.009  -5.236   3.460  0.00  0.00    +0.378 N 
ATOM     20  H   UNL     1       4.676  -6.133   3.779  0.00  0.00    -0.090 HD
ATOM     21  H   UNL     1       4.718  -5.090   2.505  0.00  0.00    -0.090 HD
ATOM     22  H   UNL     1       6.016  -5.213   3.513  0.00  0.00    -0.090 HD
ENDBRANCH  18  19
ENDBRANCH  17  18
ENDBRANCH   9  17
TORSDOF 4
