REMARK  Name = ZINC16917834
REMARK  12 active torsions:
REMARK  status: ('A' for Active; 'I' for Inactive)
REMARK    1  A    between atoms: C_1  and  C_2
REMARK    2  A    between atoms: C_2  and  O_3
REMARK    3  A    between atoms: O_3  and  C_4
REMARK    4  A    between atoms: C_6  and  C_17
REMARK    5  A    between atoms: C_9  and  O_10
REMARK    6  A    between atoms: O_10  and  C_11
REMARK    7  A    between atoms: C_11  and  C_13
REMARK    8  A    between atoms: C_11  and  C_14
REMARK    9  A    between atoms: C_22  and  N_24
REMARK   10  A    between atoms: N_24  and  C_25
REMARK   11  A    between atoms: C_28  and  N_31
REMARK   12  A    between atoms: C_32  and  C_34
REMARK                            x       y       z     vdW  Elec       q    Type
REMARK                         _______ _______ _______ _____ _____    ______ ____
ROOT
ATOM      1  C   UNL     1      -1.858  -7.095  -1.728  0.00  0.00    +0.028 C 
ATOM      2  C   UNL     1      -1.338  -8.244  -1.227  0.00  0.00    +0.079 C 
ATOM      3  C   UNL     1      -1.993  -9.326  -0.457  0.00  0.00    +0.276 C 
ATOM      4  O   UNL     1      -3.179  -9.286  -0.170  0.00  0.00    -0.267 OA
ATOM      5  N   UNL     1      -1.228 -10.333  -0.098  0.00  0.00    -0.152 NA
ATOM      6  C   UNL     1       0.059 -10.390  -0.402  0.00  0.00    +0.175 C 
ATOM      7  S   UNL     1       0.331  -8.881  -1.318  0.00  0.00    -0.050 S 
ENDROOT
BRANCH   1  10
ATOM      8  C   UNL     1      -4.962  -6.474   0.283  0.00  0.00    +0.162 A 
ATOM      9  C   UNL     1      -3.679  -6.861  -0.052  0.00  0.00    +0.057 A 
ATOM     10  C   UNL     1      -3.221  -6.686  -1.364  0.00  0.00    -0.020 A 
ATOM     11  C   UNL     1      -4.065  -6.121  -2.327  0.00  0.00    +0.012 A 
ATOM     12  C   UNL     1      -5.343  -5.738  -1.983  0.00  0.00    +0.050 A 
ATOM     13  C   UNL     1      -5.798  -5.916  -0.683  0.00  0.00    +0.163 A 
BRANCH   8  14
ATOM     14  O   UNL     1      -5.411  -6.642   1.556  0.00  0.00    -0.489 OA
BRANCH  14  16
ATOM     15  C   UNL     1      -5.179  -7.329   3.862  0.00  0.00    +0.048 C 
ATOM     16  C   UNL     1      -4.501  -7.219   2.494  0.00  0.00    +0.226 C 
ENDBRANCH  14  16
ENDBRANCH   8  14
BRANCH  13  17
ATOM     17  O   UNL     1      -7.061  -5.542  -0.351  0.00  0.00    -0.474 OA
BRANCH  17  18
ATOM     18  C   UNL     1      -7.822  -4.864  -1.353  0.00  0.00    +0.283 C 
ATOM     19  C   UNL     1      -8.486  -5.892  -2.271  0.00  0.00    +0.064 C 
BRANCH  18  20
ATOM     20  C   UNL     1      -8.882  -4.020  -0.694  0.00  0.00    +0.395 C 
ATOM     21  O   UNL     1      -9.584  -3.287  -1.368  0.00  0.00    -0.242 OA
ATOM     22  O   UNL     1      -9.037  -4.071   0.515  0.00  0.00    -0.242 OA
ENDBRANCH  18  20
ENDBRANCH  17  18
ENDBRANCH  13  17
ENDBRANCH   1  10
BRANCH   6  23
ATOM     23  N   UNL     1       0.964 -11.372  -0.093  0.00  0.00    -0.192 NA
BRANCH  23  24
ATOM     24  C   UNL     1       0.525 -12.575   0.470  0.00  0.00    +0.056 A 
ATOM     25  C   UNL     1      -0.789 -12.989   0.288  0.00  0.00    +0.027 A 
ATOM     26  C   UNL     1      -1.222 -14.176   0.844  0.00  0.00    +0.025 A 
ATOM     27  C   UNL     1      -0.344 -14.957   1.586  0.00  0.00    +0.033 A 
ATOM     28  C   UNL     1       0.969 -14.543   1.769  0.00  0.00    +0.025 A 
ATOM     29  C   UNL     1       1.404 -13.359   1.207  0.00  0.00    +0.027 A 
BRANCH  27  30
ATOM     30  N   UNL     1      -0.784 -16.161   2.151  0.00  0.00    -0.286 N 
ATOM     31  C   UNL     1      -0.267 -16.585   3.321  0.00  0.00    +0.214 C 
ATOM     32  O   UNL     1       0.506 -15.879   3.933  0.00  0.00    -0.276 OA
ATOM     33  C   UNL     1      -0.649 -17.936   3.868  0.00  0.00    +0.109 C 
ATOM     34  H   UNL     1      -1.460 -16.690   1.699  0.00  0.00    +0.155 HD
ENDBRANCH  27  30
ENDBRANCH  23  24
ENDBRANCH   6  23
TORSDOF 9
