REMARK  Name = ZINC28577652
REMARK  6 active torsions:
REMARK  status: ('A' for Active; 'I' for Inactive)
REMARK    1  A    between atoms: C_1  and  C_2
REMARK    2  A    between atoms: C_4  and  C_19
REMARK    3  A    between atoms: C_5  and  S_9
REMARK    4  A    between atoms: C_7  and  C_8
REMARK    5  A    between atoms: S_9  and  N_12
REMARK    6  A    between atoms: C_15  and  C_18
REMARK                            x       y       z     vdW  Elec       q    Type
REMARK                         _______ _______ _______ _____ _____    ______ ____
ROOT
ATOM      1  S   UNL     1      -0.981   3.100   5.941  0.00  0.00    +0.101 S 
ATOM      2  O   UNL     1      -0.261   2.796   4.754  0.00  0.00    -0.146 OA
ATOM      3  O   UNL     1      -0.334   3.440   7.159  0.00  0.00    -0.146 OA
ENDROOT
BRANCH   1   8
ATOM      4  C   UNL     1      -4.467  -1.683   7.116  0.00  0.00    +0.044 C 
ATOM      5  C   UNL     1      -3.596  -0.488   6.823  0.00  0.00    -0.047 A 
ATOM      6  C   UNL     1      -3.583   0.063   5.555  0.00  0.00    +0.009 A 
ATOM      7  C   UNL     1      -2.785   1.159   5.285  0.00  0.00    -0.023 A 
ATOM      8  C   UNL     1      -1.999   1.704   6.284  0.00  0.00    +0.116 A 
ATOM      9  C   UNL     1      -2.008   1.149   7.550  0.00  0.00    +0.033 A 
ATOM     10  C   UNL     1      -2.810   0.056   7.821  0.00  0.00    -0.046 A 
ATOM     11  C   UNL     1      -2.825  -0.544   9.203  0.00  0.00    +0.044 C 
ATOM     12  C   UNL     1      -2.771   1.759   3.903  0.00  0.00    +0.046 C 
ENDBRANCH   1   8
BRANCH   1  13
ATOM     13  N   UNL     1      -1.988   4.362   5.572  0.00  0.00    -0.103 NA
ATOM     14  C   UNL     1      -2.843   4.871   6.537  0.00  0.00    +0.192 A 
ATOM     15  N   UNL     1      -3.645   5.916   6.466  0.00  0.00    -0.336 N 
ATOM     16  C   UNL     1      -4.401   6.268   7.489  0.00  0.00    +0.022 A 
ATOM     17  C   UNL     1      -4.334   5.532   8.625  0.00  0.00    +0.069 A 
ATOM     18  S   UNL     1      -3.134   4.296   8.150  0.00  0.00    -0.057 S 
ATOM     19  C   UNL     1      -5.314   7.463   7.399  0.00  0.00    +0.064 C 
ATOM     20  H   UNL     1      -3.691   6.512   5.543  0.00  0.00    +0.168 HD
ENDBRANCH   1  13
TORSDOF 2
