REMARK  Name = ZINC09970425
REMARK  22 active torsions:
REMARK  status: ('A' for Active; 'I' for Inactive)
REMARK    1  A    between atoms: C_1  and  C_2
REMARK    2  A    between atoms: C_2  and  C_32
REMARK    3  A    between atoms: C_3  and  C_30
REMARK    4  A    between atoms: C_3  and  O_31
REMARK    5  A    between atoms: C_4  and  C_28
REMARK    6  A    between atoms: C_4  and  O_29
REMARK    7  A    between atoms: C_5  and  C_26
REMARK    8  A    between atoms: C_5  and  O_27
REMARK    9  A    between atoms: C_6  and  C_8
REMARK   10  A    between atoms: C_6  and  O_9
REMARK   11  A    between atoms: O_9  and  C_10
REMARK   12  A    between atoms: C_10  and  C_25
REMARK   13  A    between atoms: C_11  and  C_23
REMARK   14  A    between atoms: C_11  and  O_24
REMARK   15  A    between atoms: C_12  and  C_21
REMARK   16  A    between atoms: C_12  and  O_22
REMARK   17  A    between atoms: C_13  and  C_19
REMARK   18  A    between atoms: C_13  and  O_20
REMARK   19  A    between atoms: C_14  and  C_16
REMARK   20  A    between atoms: C_14  and  C_17
REMARK   21  A    between atoms: C_17  and  O_18
REMARK   22  A    between atoms: C_32  and  O_33
REMARK                            x       y       z     vdW  Elec       q    Type
REMARK                         _______ _______ _______ _____ _____    ______ ____
ROOT
ATOM      1  O   UNL     1       0.049  -3.498  -1.865  0.00  0.00    -0.312 OA
ENDROOT
BRANCH   1   7
ATOM      2  C   UNL     1      -1.603  -1.135  -2.254  0.00  0.00    +0.047 C 
ATOM      3  C   UNL     1      -1.498  -1.703  -3.675  0.00  0.00    +0.124 C 
ATOM      4  C   UNL     1      -0.322  -1.061  -4.398  0.00  0.00    +0.125 C 
ATOM      5  C   UNL     1       1.010  -1.751  -4.162  0.00  0.00    +0.128 C 
ATOM      6  C   UNL     1       0.938  -3.269  -4.102  0.00  0.00    +0.147 C 
ATOM      7  C   UNL     1      -0.233  -3.745  -3.244  0.00  0.00    +0.202 C 
ATOM      8  O   UNL     1      -1.434  -3.114  -3.647  0.00  0.00    -0.335 OA
ATOM      9  C   UNL     1      -0.386  -5.265  -3.434  0.00  0.00    +0.077 C 
ATOM     10  C   UNL     1       0.831  -3.874  -5.504  0.00  0.00    +0.050 C 
ATOM     11  C   UNL     1       1.974  -1.355  -5.299  0.00  0.00    +0.047 C 
ATOM     12  C   UNL     1      -0.628  -0.976  -5.900  0.00  0.00    +0.047 C 
BRANCH   6  13
ATOM     13  O   UNL     1       2.155  -3.758  -3.504  0.00  0.00    -0.381 OA
ATOM     14  H   UNL     1       2.203  -4.722  -3.441  0.00  0.00    +0.211 HD
ENDBRANCH   6  13
BRANCH   5  15
ATOM     15  O   UNL     1       1.579  -1.265  -2.933  0.00  0.00    -0.383 OA
ATOM     16  H   UNL     1       2.433  -1.659  -2.711  0.00  0.00    +0.210 HD
ENDBRANCH   5  15
BRANCH   4  17
ATOM     17  O   UNL     1      -0.205   0.297  -3.916  0.00  0.00    -0.383 OA
ATOM     18  H   UNL     1      -0.990   0.840  -4.073  0.00  0.00    +0.210 HD
ENDBRANCH   4  17
BRANCH   3  19
ATOM     19  C   UNL     1      -2.788  -1.302  -4.424  0.00  0.00    +0.193 C 
BRANCH  19  20
ATOM     20  O   UNL     1      -3.927  -1.757  -3.690  0.00  0.00    -0.392 OA
ATOM     21  H   UNL     1      -4.768  -1.628  -4.149  0.00  0.00    +0.210 HD
ENDBRANCH  19  20
ENDBRANCH   3  19
ENDBRANCH   1   7
BRANCH   1  22
ATOM     22  C   UNL     1      -0.857  -4.164  -0.949  0.00  0.00    +0.202 C 
ATOM     23  C   UNL     1      -0.772  -3.423   0.377  0.00  0.00    +0.147 C 
ATOM     24  C   UNL     1      -1.980  -3.627   1.276  0.00  0.00    +0.128 C 
ATOM     25  C   UNL     1      -3.301  -3.517   0.533  0.00  0.00    +0.125 C 
ATOM     26  C   UNL     1      -3.327  -4.255  -0.798  0.00  0.00    +0.124 C 
ATOM     27  O   UNL     1      -2.135  -4.141  -1.532  0.00  0.00    -0.335 OA
ATOM     28  C   UNL     1      -3.709  -5.725  -0.585  0.00  0.00    +0.047 C 
ATOM     29  C   UNL     1      -4.422  -4.074   1.427  0.00  0.00    +0.047 C 
ATOM     30  C   UNL     1      -1.883  -4.948   2.042  0.00  0.00    +0.047 C 
ATOM     31  C   UNL     1       0.489  -3.892   1.124  0.00  0.00    +0.050 C 
ATOM     32  C   UNL     1      -0.338  -5.599  -0.797  0.00  0.00    +0.077 C 
BRANCH  25  33
ATOM     33  O   UNL     1      -3.585  -2.127   0.293  0.00  0.00    -0.383 OA
ATOM     34  H   UNL     1      -4.415  -1.971  -0.179  0.00  0.00    +0.210 HD
ENDBRANCH  25  33
BRANCH  24  35
ATOM     35  O   UNL     1      -1.958  -2.570   2.269  0.00  0.00    -0.383 OA
ATOM     36  H   UNL     1      -1.157  -2.557   2.812  0.00  0.00    +0.210 HD
ENDBRANCH  24  35
BRANCH  23  37
ATOM     37  O   UNL     1      -0.623  -2.018   0.109  0.00  0.00    -0.381 OA
ATOM     38  H   UNL     1       0.129  -1.803  -0.461  0.00  0.00    +0.211 HD
ENDBRANCH  23  37
BRANCH  26  39
ATOM     39  C   UNL     1      -4.459  -3.623  -1.647  0.00  0.00    +0.193 C 
BRANCH  39  40
ATOM     40  O   UNL     1      -4.620  -4.368  -2.856  0.00  0.00    -0.392 OA
ATOM     41  H   UNL     1      -5.446  -4.184  -3.325  0.00  0.00    +0.210 HD
ENDBRANCH  39  40
ENDBRANCH  26  39
ENDBRANCH   1  22
TORSDOF 12
