REMARK  Name = ZINC33872040
REMARK  9 active torsions:
REMARK  status: ('A' for Active; 'I' for Inactive)
REMARK    1  A    between atoms: C_1  and  C_2
REMARK    2  A    between atoms: C_2  and  C_20
REMARK    3  A    between atoms: C_17  and  C_18
REMARK    4  A    between atoms: C_17  and  C_19
REMARK    5  A    between atoms: C_21  and  C_22
REMARK    6  A    between atoms: C_29  and  O_30
REMARK    7  A    between atoms: O_30  and  C_31
REMARK    8  A    between atoms: N_37  and  C_38
REMARK    9  A    between atoms: N_37  and  C_39
REMARK                            x       y       z     vdW  Elec       q    Type
REMARK                         _______ _______ _______ _____ _____    ______ ____
ROOT
ATOM      1  C   UNL     1      -1.372  -0.516   0.129  0.00  0.00    -0.069 C 
ATOM      2  C   UNL     1      -2.468  -0.924   0.230  0.00  0.00    -0.109 C 
ENDROOT
BRANCH   1   4
ATOM      3  C   UNL     1      -0.019   1.526   0.010  0.00  0.00    +0.056 C 
ATOM      4  C   UNL     1       0.002  -0.004   0.002  0.00  0.00    +0.127 C 
ATOM      5  C   UNL     1       0.617  -0.501  -1.310  0.00  0.00    +0.048 C 
ATOM      6  C   UNL     1       2.055   0.013  -1.409  0.00  0.00    +0.014 C 
ATOM      7  C   UNL     1       2.854  -0.468  -0.192  0.00  0.00    +0.066 C 
ATOM      8  C   UNL     1       2.133  -0.053   1.090  0.00  0.00    +0.161 C 
ATOM      9  O   UNL     1       0.791  -0.477   1.095  0.00  0.00    -0.353 OA
ATOM     10  C   UNL     1       2.187   1.442   1.249  0.00  0.00    +0.023 A 
ATOM     11  C   UNL     1       1.287   2.061   2.100  0.00  0.00    +0.010 A 
ATOM     12  C   UNL     1       1.316   3.431   2.268  0.00  0.00    +0.001 A 
ATOM     13  C   UNL     1       2.247   4.192   1.585  0.00  0.00    +0.004 A 
ATOM     14  C   UNL     1       3.145   3.582   0.735  0.00  0.00    +0.046 A 
ATOM     15  C   UNL     1       3.119   2.201   0.561  0.00  0.00    +0.127 A 
ATOM     16  O   UNL     1       4.011   1.636  -0.293  0.00  0.00    -0.486 OA
ATOM     17  C   UNL     1       4.232   0.211  -0.219  0.00  0.00    +0.111 C 
ATOM     18  C   UNL     1       5.027  -0.281  -1.430  0.00  0.00    +0.056 C 
ATOM     19  C   UNL     1       4.994  -0.117   1.067  0.00  0.00    +0.056 C 
ENDBRANCH   1   4
BRANCH   2  20
ATOM     20  C   UNL     1      -3.843  -1.436   0.357  0.00  0.00    +0.046 C 
ATOM     21  C   UNL     1      -3.814  -2.942   0.348  0.00  0.00    -0.000 A 
ATOM     22  C   UNL     1      -4.753  -3.681  -0.342  0.00  0.00    -0.039 A 
ATOM     23  C   UNL     1      -4.696  -5.065  -0.324  0.00  0.00    +0.053 A 
ATOM     24  C   UNL     1      -3.700  -5.718   0.383  0.00  0.00    +0.170 A 
ATOM     25  C   UNL     1      -2.750  -4.978   1.079  0.00  0.00    +0.208 A 
ATOM     26  C   UNL     1      -2.811  -3.591   1.059  0.00  0.00    +0.168 A 
ATOM     27  O   UNL     1      -1.883  -5.840   1.688  0.00  0.00    -0.449 OA
ATOM     28  C   UNL     1      -2.552  -7.116   1.693  0.00  0.00    +0.467 C 
ATOM     29  O   UNL     1      -3.430  -7.045   0.555  0.00  0.00    -0.452 OA
ATOM     30  C   UNL     1      -5.852  -3.015  -1.130  0.00  0.00    +0.017 C 
ATOM     31  C   UNL     1      -5.983  -1.552  -0.702  0.00  0.00    -0.069 C 
ATOM     32  N   UNL     1      -4.652  -0.929  -0.755  0.00  0.00    +0.389 N 
ATOM     33  C   UNL     1      -4.788   0.529  -0.639  0.00  0.00    -0.090 C 
ATOM     34  C   UNL     1      -4.001  -1.264  -2.029  0.00  0.00    -0.090 C 
BRANCH  26  35
ATOM     35  O   UNL     1      -1.884  -2.864   1.738  0.00  0.00    -0.491 OA
ATOM     36  C   UNL     1      -2.185  -2.534   3.096  0.00  0.00    +0.277 C 
ENDBRANCH  26  35
ENDBRANCH   2  20
TORSDOF 3
