REMARK  Name = ZINC37010856
REMARK  4 active torsions:
REMARK  status: ('A' for Active; 'I' for Inactive)
REMARK    1  A    between atoms: C_3  and  C_8
REMARK    2  A    between atoms: N_10  and  C_11
REMARK    3  A    between atoms: C_14  and  S_18
REMARK    4  A    between atoms: S_18  and  N_21
REMARK                            x       y       z     vdW  Elec       q    Type
REMARK                         _______ _______ _______ _____ _____    ______ ____
ROOT
ATOM      1  C   UNL     1       6.004   2.258   0.046  0.00  0.00    +0.035 A 
ATOM      2  C   UNL     1       5.933   3.641   0.155  0.00  0.00    +0.025 A 
ATOM      3  C   UNL     1       7.092   4.387   0.237  0.00  0.00    +0.031 A 
ATOM      4  C   UNL     1       8.324   3.759   0.210  0.00  0.00    +0.119 A 
ATOM      5  C   UNL     1       8.399   2.381   0.101  0.00  0.00    +0.046 A 
ATOM      6  C   UNL     1       7.242   1.629   0.025  0.00  0.00    +0.040 A 
ATOM      7 BR   UNL     1      10.085   1.527   0.064  0.00  0.00    -0.048 Br
ENDROOT
BRANCH   1  10
ATOM      8  C   UNL     1       4.772   0.285   0.543  0.00  0.00    +0.248 C 
ATOM      9  O   UNL     1       5.763  -0.188   1.065  0.00  0.00    -0.270 OA
ATOM     10  N   UNL     1       4.831   1.500  -0.036  0.00  0.00    -0.281 N 
ATOM     11  H   UNL     1       4.061   1.850  -0.511  0.00  0.00    +0.155 HD
BRANCH   8  14
ATOM     12  C   UNL     1       2.249  -2.432   1.143  0.00  0.00    +0.002 A 
ATOM     13  C   UNL     1       3.438  -1.730   1.144  0.00  0.00    +0.013 A 
ATOM     14  C   UNL     1       3.502  -0.472   0.545  0.00  0.00    +0.038 A 
ATOM     15  C   UNL     1       2.363   0.070  -0.053  0.00  0.00    +0.027 A 
ATOM     16  C   UNL     1       1.181  -0.642  -0.048  0.00  0.00    +0.014 A 
ATOM     17  C   UNL     1       1.124  -1.890   0.549  0.00  0.00    +0.014 A 
ATOM     18  I   UNL     1      -0.531   0.167  -0.944  0.00  0.00    -0.044 I 
ENDBRANCH   8  14
ENDBRANCH   1  10
BRANCH   4  19
ATOM     19  S   UNL     1       9.800   4.714   0.315  0.00  0.00    +0.057 S 
ATOM     20  O   UNL     1      10.649   4.267  -0.734  0.00  0.00    -0.153 OA
ATOM     21  O   UNL     1       9.398   6.071   0.443  0.00  0.00    -0.153 OA
BRANCH  19  22
ATOM     22  N   UNL     1      10.548   4.306   1.735  0.00  0.00    -0.203 NA
ATOM     23  H   UNL     1      11.515   4.351   1.804  0.00  0.00    +0.144 HD
ATOM     24  H   UNL     1      10.020   4.023   2.497  0.00  0.00    +0.144 HD
ENDBRANCH  19  22
ENDBRANCH   4  19
TORSDOF 4
