REMARK  Name = ZINC48274991
REMARK  6 active torsions:
REMARK  status: ('A' for Active; 'I' for Inactive)
REMARK    1  A    between atoms: C_1  and  C_2
REMARK    2  A    between atoms: C_5  and  C_23
REMARK    3  A    between atoms: N_8  and  S_10
REMARK    4  A    between atoms: S_10  and  C_13
REMARK    5  A    between atoms: C_16  and  S_19
REMARK    6  A    between atoms: S_19  and  N_22
REMARK                            x       y       z     vdW  Elec       q    Type
REMARK                         _______ _______ _______ _____ _____    ______ ____
ROOT
ATOM      1  C   UNL     1       2.629   2.448   2.067  0.00  0.00    +0.106 A 
ATOM      2  C   UNL     1       3.557   3.149   1.321  0.00  0.00    +0.030 A 
ATOM      3  C   UNL     1       3.368   4.495   1.070  0.00  0.00    +0.030 A 
ATOM      4  C   UNL     1       2.249   5.140   1.565  0.00  0.00    +0.105 A 
ATOM      5  C   UNL     1       1.320   4.438   2.311  0.00  0.00    +0.030 A 
ATOM      6  C   UNL     1       1.508   3.091   2.558  0.00  0.00    +0.030 A 
ENDROOT
BRANCH   1   7
ATOM      7  S   UNL     1       2.871   0.732   2.387  0.00  0.00    +0.061 S 
ATOM      8  O   UNL     1       2.133   0.430   3.563  0.00  0.00    -0.153 OA
ATOM      9  O   UNL     1       4.268   0.492   2.281  0.00  0.00    -0.153 OA
BRANCH   7  15
ATOM     10  C   UNL     1      -0.019   1.526   0.010  0.00  0.00    +0.009 C 
ATOM     11  C   UNL     1       0.002  -0.004   0.002  0.00  0.00    +0.002 C 
ATOM     12  C   UNL     1       0.720  -0.498  -1.256  0.00  0.00    +0.009 C 
ATOM     13  C   UNL     1       2.145   0.059  -1.285  0.00  0.00    +0.002 C 
ATOM     14  C   UNL     1       2.912  -0.448  -0.060  0.00  0.00    +0.112 C 
ATOM     15  N   UNL     1       2.153  -0.103   1.150  0.00  0.00    -0.176 NA
ATOM     16  C   UNL     1       0.744  -0.512   1.242  0.00  0.00    +0.112 C 
ATOM     17  C   UNL     1       2.850  -0.408  -2.559  0.00  0.00    +0.009 C 
ENDBRANCH   7  15
ENDBRANCH   1   7
BRANCH   4  18
ATOM     18  S   UNL     1       2.008   6.856   1.247  0.00  0.00    +0.056 S 
ATOM     19  O   UNL     1       1.163   7.345   2.279  0.00  0.00    -0.153 OA
ATOM     20  O   UNL     1       3.292   7.406   0.989  0.00  0.00    -0.153 OA
BRANCH  18  21
ATOM     21  N   UNL     1       1.149   6.976  -0.164  0.00  0.00    -0.204 NA
ATOM     22  H   UNL     1       0.884   6.173  -0.640  0.00  0.00    +0.144 HD
ATOM     23  H   UNL     1       0.912   7.848  -0.515  0.00  0.00    +0.144 HD
ENDBRANCH  18  21
ENDBRANCH   4  18
TORSDOF 4
