REMARK  Name = ZINC05680524
REMARK  5 active torsions:
REMARK  status: ('A' for Active; 'I' for Inactive)
REMARK    1  A    between atoms: C_1  and  C_2
REMARK    2  A    between atoms: C_5  and  N_9
REMARK    3  A    between atoms: C_7  and  C_8
REMARK    4  A    between atoms: C_10  and  C_12
REMARK    5  A    between atoms: C_12  and  N_13
REMARK                            x       y       z     vdW  Elec       q    Type
REMARK                         _______ _______ _______ _____ _____    ______ ____
ROOT
ATOM      1  N   UNL     1      -0.232  -6.826  -2.567  0.00  0.00    -0.215 N 
ATOM      2  C   UNL     1      -1.395  -7.002  -3.228  0.00  0.00    +0.251 C 
ATOM      3  O   UNL     1      -2.515  -6.798  -2.812  0.00  0.00    -0.272 OA
ATOM      4  C   UNL     1      -1.006  -7.504  -4.597  0.00  0.00    +0.139 C 
ATOM      5  C   UNL     1      -1.490  -6.556  -5.685  0.00  0.00    +0.040 C 
ATOM      6  C   UNL     1      -1.242  -7.168  -7.067  0.00  0.00    +0.008 C 
ATOM      7  C   UNL     1      -2.176  -8.373  -7.253  0.00  0.00    +0.043 C 
ATOM      8  C   UNL     1      -2.092  -9.232  -6.034  0.00  0.00    -0.005 A 
ATOM      9  C   UNL     1      -1.576  -8.895  -4.818  0.00  0.00    -0.005 A 
ATOM     10  C   UNL     1      -1.609  -9.882  -3.834  0.00  0.00    +0.014 A 
ATOM     11  C   UNL     1      -2.136 -11.097  -4.109  0.00  0.00    +0.046 A 
ATOM     12  S   UNL     1      -2.627 -10.907  -5.816  0.00  0.00    -0.101 S 
ATOM     13  N   UNL     1       0.459  -7.562  -4.558  0.00  0.00    -0.281 N 
ATOM     14  C   UNL     1       0.822  -7.142  -3.330  0.00  0.00    +0.310 C 
ATOM     15  O   UNL     1       1.976  -7.062  -2.957  0.00  0.00    -0.252 OA
ATOM     16  H   UNL     1       1.049  -7.844  -5.274  0.00  0.00    +0.152 HD
ENDROOT
BRANCH   1  17
ATOM     17  C   UNL     1      -0.134  -6.343  -1.187  0.00  0.00    +0.214 C 
BRANCH  17  19
ATOM     18  N   UNL     1       0.059  -4.170  -0.021  0.00  0.00    -0.284 N 
ATOM     19  C   UNL     1      -0.040  -4.839  -1.187  0.00  0.00    +0.235 C 
ATOM     20  O   UNL     1      -0.054  -4.230  -2.236  0.00  0.00    -0.274 OA
ATOM     21  H   UNL     1       0.147  -4.658   0.812  0.00  0.00    +0.155 HD
BRANCH  18  26
ATOM     22  C   UNL     1      -0.041   1.502   0.014  0.00  0.00    +0.044 C 
ATOM     23  C   UNL     1      -0.015  -0.004   0.004  0.00  0.00    -0.047 A 
ATOM     24  C   UNL     1      -0.752  -0.702  -0.935  0.00  0.00    +0.005 A 
ATOM     25  C   UNL     1      -0.730  -2.082  -0.946  0.00  0.00    +0.023 A 
ATOM     26  C   UNL     1       0.034  -2.771  -0.013  0.00  0.00    +0.034 A 
ATOM     27  C   UNL     1       0.773  -2.068   0.929  0.00  0.00    +0.027 A 
ATOM     28  C   UNL     1       0.751  -0.686   0.932  0.00  0.00    -0.046 A 
ATOM     29  C   UNL     1       1.557   0.078   1.950  0.00  0.00    +0.044 C 
ENDBRANCH  18  26
ENDBRANCH  17  19
ENDBRANCH   1  17
TORSDOF 3
