REMARK  Name = ZINC49366899
REMARK  9 active torsions:
REMARK  status: ('A' for Active; 'I' for Inactive)
REMARK    1  A    between atoms: C_1  and  C_2
REMARK    2  A    between atoms: C_2  and  O_3
REMARK    3  A    between atoms: O_3  and  C_4
REMARK    4  A    between atoms: C_4  and  C_6
REMARK    5  A    between atoms: C_9  and  N_12
REMARK    6  A    between atoms: C_13  and  C_15
REMARK    7  A    between atoms: C_15  and  N_16
REMARK    8  A    between atoms: C_19  and  C_22
REMARK    9  A    between atoms: C_25  and  C_27
REMARK                            x       y       z     vdW  Elec       q    Type
REMARK                         _______ _______ _______ _____ _____    ______ ____
ROOT
ATOM      1  N   UNL     1      -8.130  -7.446  -0.261  0.00  0.00    +0.385 N 
ATOM      2  C   UNL     1      -7.452  -7.808  -1.512  0.00  0.00    -0.078 C 
ATOM      3  C   UNL     1      -7.279  -9.326  -1.582  0.00  0.00    -0.008 C 
ATOM      4  C   UNL     1      -8.657  -9.994  -1.536  0.00  0.00    +0.043 C 
ATOM      5  C   UNL     1      -9.385  -9.551  -0.263  0.00  0.00    -0.008 C 
ATOM      6  C   UNL     1      -9.480  -8.024  -0.241  0.00  0.00    -0.078 C 
ATOM      7  H   UNL     1      -7.602  -7.802   0.521  0.00  0.00    -0.081 HD
ENDROOT
BRANCH   4   8
ATOM      8  C   UNL     1      -8.491 -11.492  -1.526  0.00  0.00    +0.105 A 
ATOM      9  N   UNL     1      -7.872 -12.249  -0.649  0.00  0.00    -0.146 NA
ATOM     10  N   UNL     1      -7.812 -13.506  -0.769  0.00  0.00    -0.141 NA
ATOM     11  C   UNL     1      -8.395 -14.076  -1.818  0.00  0.00    +0.135 A 
ATOM     12  S   UNL     1      -9.058 -12.629  -2.633  0.00  0.00    -0.050 S 
BRANCH  11  13
ATOM     13  C   UNL     1      -8.478 -15.502  -2.200  0.00  0.00    +0.044 A 
ATOM     14  C   UNL     1      -9.146 -15.877  -3.366  0.00  0.00    +0.016 A 
ATOM     15  C   UNL     1      -9.220 -17.209  -3.718  0.00  0.00    +0.039 A 
ATOM     16  C   UNL     1      -8.632 -18.175  -2.916  0.00  0.00    +0.126 A 
ATOM     17  C   UNL     1      -7.967 -17.810  -1.757  0.00  0.00    +0.077 A 
ATOM     18  C   UNL     1      -7.882 -16.478  -1.397  0.00  0.00    +0.136 A 
ATOM     19  F   UNL     1      -7.228 -16.122  -0.270  0.00  0.00    -0.205 F 
ATOM     20  F   UNL     1      -8.709 -19.477  -3.266  0.00  0.00    -0.205 F 
ENDBRANCH  11  13
ENDBRANCH   4   8
BRANCH   1  21
ATOM     21  C   UNL     1      -8.224  -5.984  -0.162  0.00  0.00    +0.019 C 
BRANCH  21  23
ATOM     22  N   UNL     1      -6.679  -4.063   0.043  0.00  0.00    -0.287 N 
ATOM     23  C   UNL     1      -6.840  -5.397  -0.058  0.00  0.00    +0.201 C 
ATOM     24  O   UNL     1      -5.870  -6.126  -0.067  0.00  0.00    -0.278 OA
ATOM     25  H   UNL     1      -7.454  -3.485   0.117  0.00  0.00    +0.155 HD
BRANCH  22  29
ATOM     26  C   UNL     1      -2.851  -2.421   0.042  0.00  0.00    +0.059 A 
ATOM     27  C   UNL     1      -3.082  -3.659   0.649  0.00  0.00    +0.017 A 
ATOM     28  C   UNL     1      -4.348  -4.198   0.648  0.00  0.00    +0.024 A 
ATOM     29  C   UNL     1      -5.398  -3.514   0.043  0.00  0.00    +0.033 A 
ATOM     30  C   UNL     1      -5.171  -2.282  -0.563  0.00  0.00    +0.024 A 
ATOM     31  C   UNL     1      -3.909  -1.733  -0.560  0.00  0.00    +0.017 A 
BRANCH  26  32
ATOM     32  C   UNL     1      -1.496  -1.840   0.041  0.00  0.00    +0.339 C 
ATOM     33  O   UNL     1      -1.297  -0.762  -0.483  0.00  0.00    -0.245 OA
BRANCH  32  34
ATOM     34  O   UNL     1      -0.477  -2.504   0.622  0.00  0.00    -0.461 OA
BRANCH  34  36
ATOM     35  C   UNL     1       1.830  -2.778   1.288  0.00  0.00    +0.048 C 
ATOM     36  C   UNL     1       0.809  -1.882   0.584  0.00  0.00    +0.229 C 
ENDBRANCH  34  36
ENDBRANCH  32  34
ENDBRANCH  26  32
ENDBRANCH  22  29
ENDBRANCH  21  23
ENDBRANCH   1  21
TORSDOF 8
