REMARK  Name = ZINC39352177
REMARK  3 active torsions:
REMARK  status: ('A' for Active; 'I' for Inactive)
REMARK    1  A    between atoms: C_3  and  O_33
REMARK    2  A    between atoms: C_6  and  C_7
REMARK    3  A    between atoms: N_15  and  C_18
REMARK                            x       y       z     vdW  Elec       q    Type
REMARK                         _______ _______ _______ _____ _____    ______ ____
ROOT
ATOM      1  C   UNL     1      -0.959  -0.839   0.182  0.00  0.00    +0.052 C 
ATOM      2  C   UNL     1      -1.295  -1.757   1.345  0.00  0.00    +0.107 C 
ATOM      3  C   UNL     1      -2.702  -2.325   1.329  0.00  0.00    +0.151 C 
ATOM      4  C   UNL     1      -3.471  -1.368   2.219  0.00  0.00    +0.240 C 
ATOM      5  O   UNL     1      -4.675  -1.231   2.251  0.00  0.00    -0.274 OA
ATOM      6  N   UNL     1      -2.575  -0.701   2.968  0.00  0.00    -0.209 N 
ATOM      7  C   UNL     1      -1.271  -0.939   2.631  0.00  0.00    +0.231 C 
ATOM      8  O   UNL     1      -0.280  -0.576   3.227  0.00  0.00    -0.274 OA
ATOM      9  S   UNL     1      -3.505  -2.496  -0.261  0.00  0.00    -0.098 S 
ATOM     10  C   UNL     1      -2.484  -1.860  -1.407  0.00  0.00    +0.082 C 
ATOM     11  N   UNL     1      -2.839  -1.519  -2.608  0.00  0.00    -0.168 NA
ATOM     12  C   UNL     1      -2.045  -0.899  -3.500  0.00  0.00    +0.296 C 
ATOM     13  O   UNL     1      -2.254  -0.671  -4.678  0.00  0.00    -0.261 OA
ATOM     14  S   UNL     1      -0.601  -0.494  -2.519  0.00  0.00    -0.055 S 
ATOM     15  C   UNL     1      -1.009  -1.640  -1.120  0.00  0.00    +0.117 C 
ENDROOT
BRANCH   6  16
ATOM     16  C   UNL     1      -2.943   0.161   4.011  0.00  0.00    +0.044 A 
ATOM     17  C   UNL     1      -1.978   0.924   4.655  0.00  0.00    +0.025 A 
ATOM     18  C   UNL     1      -2.343   1.773   5.683  0.00  0.00    +0.022 A 
ATOM     19  C   UNL     1      -3.669   1.862   6.070  0.00  0.00    +0.041 A 
ATOM     20  C   UNL     1      -4.632   1.102   5.430  0.00  0.00    +0.022 A 
ATOM     21  C   UNL     1      -4.273   0.257   4.398  0.00  0.00    +0.025 A 
ATOM     22 CL   UNL     1      -4.124   2.929   7.361  0.00  0.00    -0.084 Cl
ENDBRANCH   6  16
BRANCH   1  28
ATOM     23  C   UNL     1       0.603   1.097   0.460  0.00  0.00    +0.007 A 
ATOM     24  C   UNL     1       1.870   1.620   0.635  0.00  0.00    +0.045 A 
ATOM     25  C   UNL     1       2.963   0.771   0.720  0.00  0.00    +0.117 A 
ATOM     26  C   UNL     1       2.782  -0.602   0.631  0.00  0.00    +0.045 A 
ATOM     27  C   UNL     1       1.513  -1.119   0.457  0.00  0.00    +0.007 A 
ATOM     28  C   UNL     1       0.424  -0.271   0.371  0.00  0.00    -0.042 A 
BRANCH  25  29
ATOM     29  O   UNL     1       4.211   1.282   0.891  0.00  0.00    -0.507 OA
ATOM     30  H   UNL     1       4.470   1.387   1.817  0.00  0.00    +0.292 HD
ENDBRANCH  25  29
ENDBRANCH   1  28
TORSDOF 3
