REMARK  Name = ZINC23076556
REMARK  3 active torsions:
REMARK  status: ('A' for Active; 'I' for Inactive)
REMARK    1  A    between atoms: C_6  and  N_7
REMARK    2  A    between atoms: C_11  and  N_15
REMARK    3  A    between atoms: N_18  and  C_21
REMARK                            x       y       z     vdW  Elec       q    Type
REMARK                         _______ _______ _______ _____ _____    ______ ____
ROOT
ATOM      1  N   UNL     1      -3.061  -3.196  -1.293  0.00  0.00    -0.295 NA
ATOM      2  C   UNL     1      -4.509  -3.436  -1.356  0.00  0.00    +0.066 C 
ATOM      3  C   UNL     1      -4.856  -4.100  -2.691  0.00  0.00    -0.062 C 
ATOM      4  N   UNL     1      -4.126  -5.369  -2.811  0.00  0.00    +0.385 N 
ATOM      5  C   UNL     1      -2.681  -5.110  -2.771  0.00  0.00    -0.062 C 
ATOM      6  C   UNL     1      -2.316  -4.455  -1.437  0.00  0.00    +0.066 C 
ATOM      7  H   UNL     1      -4.380  -5.976  -2.046  0.00  0.00    -0.081 HD
ENDROOT
BRANCH   4   8
ATOM      8  C   UNL     1      -4.473  -6.014  -4.084  0.00  0.00    -0.065 C 
ATOM      9  C   UNL     1      -4.088  -5.093  -5.244  0.00  0.00    -0.009 C 
ATOM     10  C   UNL     1      -4.449  -5.766  -6.570  0.00  0.00    -0.012 C 
ATOM     11  C   UNL     1      -3.689  -7.088  -6.695  0.00  0.00    +0.007 C 
ATOM     12  C   UNL     1      -4.074  -8.008  -5.535  0.00  0.00    -0.012 C 
ATOM     13  C   UNL     1      -3.713  -7.336  -4.209  0.00  0.00    -0.009 C 
ATOM     14  C   UNL     1      -5.579  -8.280  -5.576  0.00  0.00    +0.007 C 
ATOM     15  C   UNL     1      -6.339  -6.958  -5.451  0.00  0.00    -0.012 C 
ATOM     16  C   UNL     1      -5.955  -6.037  -6.611  0.00  0.00    +0.007 C 
ATOM     17  C   UNL     1      -5.978  -6.285  -4.125  0.00  0.00    -0.009 C 
ENDBRANCH   4   8
BRANCH   1  22
ATOM     18  N   UNL     1      -1.203  -0.723   0.010  0.00  0.00    -0.209 N 
ATOM     19  C   UNL     1      -2.399  -0.131   0.118  0.00  0.00    +0.228 C 
ATOM     20  O   UNL     1      -2.585   1.063   0.218  0.00  0.00    -0.275 OA
ATOM     21  C   UNL     1      -3.481  -1.188   0.094  0.00  0.00    +0.125 C 
ATOM     22  C   UNL     1      -2.695  -2.507  -0.048  0.00  0.00    +0.153 C 
ATOM     23  C   UNL     1      -1.251  -2.057  -0.095  0.00  0.00    +0.244 C 
ATOM     24  O   UNL     1      -0.291  -2.788  -0.207  0.00  0.00    -0.273 OA
BRANCH  18  30
ATOM     25  C   UNL     1       0.775   0.044  -1.150  0.00  0.00    +0.027 A 
ATOM     26  C   UNL     1       1.961   0.752  -1.156  0.00  0.00    +0.040 A 
ATOM     27  C   UNL     1       2.378   1.415  -0.014  0.00  0.00    +0.124 A 
ATOM     28  C   UNL     1       1.609   1.368   1.136  0.00  0.00    +0.040 A 
ATOM     29  C   UNL     1       0.423   0.660   1.146  0.00  0.00    +0.027 A 
ATOM     30  C   UNL     1       0.002  -0.004   0.002  0.00  0.00    +0.044 A 
ATOM     31  F   UNL     1       3.538   2.107  -0.022  0.00  0.00    -0.205 F 
ENDBRANCH  18  30
ENDBRANCH   1  22
TORSDOF 3
