REMARK  Name = ZINC09358269
REMARK  4 active torsions:
REMARK  status: ('A' for Active; 'I' for Inactive)
REMARK    1  A    between atoms: C_1  and  C_2
REMARK    2  A    between atoms: C_2  and  C_3
REMARK    3  A    between atoms: C_2  and  N_57
REMARK    4  A    between atoms: C_13  and  C_15
REMARK                            x       y       z     vdW  Elec       q    Type
REMARK                         _______ _______ _______ _____ _____    ______ ____
ROOT
ATOM      1  C   UNL     1      -0.083   1.448   2.429  0.00  0.00    -0.073 C 
ATOM      2  C   UNL     1      -0.913   1.840   3.655  0.00  0.00    +0.052 C 
ATOM      3  C   UNL     1      -0.999   3.363   3.741  0.00  0.00    +0.189 C 
ATOM      4  C   UNL     1      -1.596   3.921   2.450  0.00  0.00    +0.052 C 
ATOM      5  C   UNL     1      -0.745   3.467   1.261  0.00  0.00    -0.073 C 
ATOM      6  N   UNL     1       0.335   3.928   3.961  0.00  0.00    -0.207 N 
ATOM      7  C   UNL     1       0.511   5.382   4.186  0.00  0.00    +0.136 C 
ATOM      8  C   UNL     1       1.926   5.464   4.774  0.00  0.00    +0.086 C 
ATOM      9  C   UNL     1       2.494   4.080   4.532  0.00  0.00    +0.069 C 
ATOM     10  N   UNL     1       1.566   3.308   4.070  0.00  0.00    -0.185 NA
ATOM     11  C   UNL     1      -0.540   5.789   5.184  0.00  0.00    +0.018 A 
ATOM     12  C   UNL     1      -0.410   6.995   5.847  0.00  0.00    +0.024 A 
ATOM     13  C   UNL     1      -1.370   7.400   6.755  0.00  0.00    +0.018 A 
ATOM     14  C   UNL     1      -2.467   6.593   6.999  0.00  0.00    +0.019 A 
ATOM     15  C   UNL     1      -2.597   5.387   6.345  0.00  0.00    +0.047 A 
ATOM     16  C   UNL     1      -1.629   4.966   5.433  0.00  0.00    +0.129 A 
ATOM     17  O   UNL     1      -1.800   3.747   4.859  0.00  0.00    -0.467 OA
ATOM     18 BR   UNL     1      -1.185   9.050   7.661  0.00  0.00    -0.050 Br
ATOM     19  N   UNL     1      -0.735   1.989   1.217  0.00  0.00    +0.381 N 
ATOM     20  H   UNL     1      -1.703   1.650   1.180  0.00  0.00    -0.081 HD
ENDROOT
BRANCH   9  21
ATOM     21  C   UNL     1       3.890   3.676   4.785  0.00  0.00    +0.001 A 
ATOM     22  C   UNL     1       4.807   4.602   5.288  0.00  0.00    +0.013 A 
ATOM     23  C   UNL     1       6.111   4.222   5.524  0.00  0.00    +0.050 A 
ATOM     24  C   UNL     1       6.518   2.922   5.264  0.00  0.00    +0.166 A 
ATOM     25  C   UNL     1       5.608   1.992   4.761  0.00  0.00    +0.167 A 
ATOM     26  C   UNL     1       4.297   2.365   4.527  0.00  0.00    +0.059 A 
ATOM     27  O   UNL     1       6.251   0.799   4.593  0.00  0.00    -0.453 OA
ATOM     28  C   UNL     1       7.452   0.897   5.380  0.00  0.00    +0.466 C 
ATOM     29  O   UNL     1       7.729   2.309   5.410  0.00  0.00    -0.453 OA
ENDBRANCH   9  21
BRANCH  19  31
ATOM     30  C   UNL     1       0.002  -0.004   0.002  0.00  0.00    -0.014 C 
ATOM     31  C   UNL     1      -0.019   1.526   0.010  0.00  0.00    -0.075 C 
ATOM     32  C   UNL     1       1.417   2.055  -0.000  0.00  0.00    -0.014 C 
ENDBRANCH  19  31
TORSDOF 2
