REMARK  Name = ZINC64638285
REMARK  10 active torsions:
REMARK  status: ('A' for Active; 'I' for Inactive)
REMARK    1  A    between atoms: C_1  and  C_2
REMARK    2  A    between atoms: C_2  and  C_3
REMARK    3  A    between atoms: C_2  and  C_4
REMARK    4  A    between atoms: C_2  and  C_5
REMARK    5  A    between atoms: C_5  and  C_6
REMARK    6  A    between atoms: C_5  and  N_11
REMARK    7  A    between atoms: N_11  and  C_12
REMARK    8  A    between atoms: C_12  and  C_13
REMARK    9  A    between atoms: N_23  and  C_24
REMARK   10  A    between atoms: N_23  and  C_25
REMARK                            x       y       z     vdW  Elec       q    Type
REMARK                         _______ _______ _______ _____ _____    ______ ____
ROOT
ATOM      1  C   UNL     1       0.055  -2.853  -2.313  0.00  0.00    +0.016 C 
ENDROOT
BRANCH   1   2
ATOM      2  C   UNL     1      -0.005  -4.338  -2.562  0.00  0.00    +0.199 C 
ATOM      3  O   UNL     1       0.995  -4.939  -2.893  0.00  0.00    -0.278 OA
ATOM      4  N   UNL     1      -1.172  -4.998  -2.419  0.00  0.00    -0.300 N 
ATOM      5  C   UNL     1      -2.393  -4.282  -2.026  0.00  0.00    +0.126 C 
ATOM      6  C   UNL     1      -3.480  -4.554  -3.073  0.00  0.00    +0.128 C 
ATOM      7  N   UNL     1      -3.553  -6.003  -3.308  0.00  0.00    -0.283 N 
ATOM      8  C   UNL     1      -2.332  -6.720  -3.701  0.00  0.00    +0.128 C 
ATOM      9  C   UNL     1      -1.246  -6.446  -2.659  0.00  0.00    +0.126 C 
ATOM     10  C   UNL     1      -4.719  -6.664  -3.164  0.00  0.00    +0.304 C 
ATOM     11  O   UNL     1      -5.770  -6.052  -3.181  0.00  0.00    -0.252 OA
ATOM     12  N   UNL     1      -4.721  -8.002  -3.002  0.00  0.00    -0.292 N 
ATOM     13  C   UNL     1      -5.942  -8.769  -3.259  0.00  0.00    +0.133 C 
ATOM     14  C   UNL     1      -3.501  -8.688  -2.570  0.00  0.00    +0.133 C 
ENDBRANCH   1   2
BRANCH   1  15
ATOM     15  N   UNL     1       1.427  -2.375  -2.534  0.00  0.00    +0.390 N 
ATOM     16  H   UNL     1       1.728  -2.636  -3.461  0.00  0.00    -0.084 HD
ATOM     17  H   UNL     1       2.042  -2.790  -1.851  0.00  0.00    -0.084 HD
BRANCH  15  18
ATOM     18  C   UNL     1       1.463  -0.912  -2.401  0.00  0.00    -0.028 C 
BRANCH  18  19
ATOM     19  C   UNL     1       0.651  -0.287  -3.507  0.00  0.00    -0.024 A 
ATOM     20  C   UNL     1      -0.181   0.782  -3.455  0.00  0.00    +0.009 A 
ATOM     21  C   UNL     1      -0.829   1.183  -4.608  0.00  0.00    +0.008 A 
ATOM     22  C   UNL     1      -0.613   0.496  -5.757  0.00  0.00    +0.045 A 
ATOM     23  S   UNL     1       0.541  -0.758  -5.225  0.00  0.00    -0.103 S 
ENDBRANCH  18  19
BRANCH  18  25
ATOM     24  C   UNL     1       2.959   1.083  -2.257  0.00  0.00    +0.009 C 
ATOM     25  C   UNL     1       2.911  -0.427  -2.495  0.00  0.00    -0.046 C 
ATOM     26  C   UNL     1       3.465  -0.742  -3.886  0.00  0.00    +0.009 C 
ATOM     27  C   UNL     1       3.756  -1.138  -1.437  0.00  0.00    +0.009 C 
ENDBRANCH  18  25
ENDBRANCH  15  18
ENDBRANCH   1  15
TORSDOF 5
