REMARK  Name = ZINC13079386
REMARK  10 active torsions:
REMARK  status: ('A' for Active; 'I' for Inactive)
REMARK    1  A    between atoms: C_1  and  C_2
REMARK    2  A    between atoms: C_4  and  S_23
REMARK    3  A    between atoms: C_6  and  N_9
REMARK    4  A    between atoms: C_7  and  C_8
REMARK    5  A    between atoms: N_9  and  S_10
REMARK    6  A    between atoms: S_10  and  C_13
REMARK    7  A    between atoms: C_15  and  C_21
REMARK    8  A    between atoms: C_18  and  O_19
REMARK    9  A    between atoms: O_19  and  C_20
REMARK   10  A    between atoms: S_23  and  N_26
REMARK                            x       y       z     vdW  Elec       q    Type
REMARK                         _______ _______ _______ _____ _____    ______ ____
ROOT
ATOM      1  N   UNL     1      -3.301   0.297  -1.428  0.00  0.00    -0.216 N 
ATOM      2  H   UNL     1      -4.046   0.619  -1.959  0.00  0.00    +0.174 HD
ENDROOT
BRANCH   1   8
ATOM      3  C   UNL     1      -1.058  -1.744  -5.295  0.00  0.00    +0.044 C 
ATOM      4  C   UNL     1      -1.339  -1.692  -3.816  0.00  0.00    -0.044 A 
ATOM      5  C   UNL     1      -0.750  -2.612  -2.968  0.00  0.00    +0.032 A 
ATOM      6  C   UNL     1      -1.007  -2.568  -1.610  0.00  0.00    +0.107 A 
ATOM      7  C   UNL     1      -1.852  -1.604  -1.095  0.00  0.00    +0.053 A 
ATOM      8  C   UNL     1      -2.445  -0.679  -1.944  0.00  0.00    +0.053 A 
ATOM      9  C   UNL     1      -2.190  -0.729  -3.309  0.00  0.00    -0.025 A 
ATOM     10  C   UNL     1      -2.836   0.269  -4.235  0.00  0.00    +0.046 C 
BRANCH   6  11
ATOM     11  S   UNL     1      -0.253  -3.743  -0.534  0.00  0.00    +0.056 S 
ATOM     12  O   UNL     1       0.922  -4.199  -1.189  0.00  0.00    -0.153 OA
ATOM     13  O   UNL     1      -0.224  -3.150   0.758  0.00  0.00    -0.153 OA
BRANCH  11  14
ATOM     14  N   UNL     1      -1.275  -5.042  -0.435  0.00  0.00    -0.204 NA
ATOM     15  H   UNL     1      -0.917  -5.930  -0.283  0.00  0.00    +0.144 HD
ATOM     16  H   UNL     1      -2.232  -4.915  -0.529  0.00  0.00    +0.144 HD
ENDBRANCH  11  14
ENDBRANCH   6  11
ENDBRANCH   1   8
BRANCH   1  17
ATOM     17  S   UNL     1      -3.044   0.904   0.091  0.00  0.00    +0.076 S 
ATOM     18  O   UNL     1      -4.041   1.892   0.308  0.00  0.00    -0.150 OA
ATOM     19  O   UNL     1      -1.655   1.190   0.184  0.00  0.00    -0.150 OA
BRANCH  17  20
ATOM     20  C   UNL     1      -3.367  -0.397   1.234  0.00  0.00    +0.151 A 
ATOM     21  C   UNL     1      -2.355  -0.876   2.036  0.00  0.00    +0.047 A 
ATOM     22  C   UNL     1      -2.611  -1.913   2.938  0.00  0.00    +0.065 A 
ATOM     23  C   UNL     1      -3.897  -2.455   3.026  0.00  0.00    +0.019 A 
ATOM     24  C   UNL     1      -4.904  -1.967   2.225  0.00  0.00    +0.048 A 
ATOM     25  C   UNL     1      -4.645  -0.936   1.329  0.00  0.00    +0.147 A 
BRANCH  22  26
ATOM     26  C   UNL     1      -1.529  -2.432   3.794  0.00  0.00    +0.387 C 
ATOM     27  O   UNL     1      -0.413  -1.959   3.716  0.00  0.00    -0.241 OA
ATOM     28  O   UNL     1      -1.779  -3.431   4.663  0.00  0.00    -0.241 OA
ENDBRANCH  22  26
BRANCH  25  29
ATOM     29  O   UNL     1      -5.641  -0.458   0.540  0.00  0.00    -0.493 OA
ATOM     30  C   UNL     1      -6.898  -1.136   0.601  0.00  0.00    +0.277 C 
ENDBRANCH  25  29
ENDBRANCH  17  20
ENDBRANCH   1  17
TORSDOF 7
