REMARK  Name = ZINC09599088
REMARK  8 active torsions:
REMARK  status: ('A' for Active; 'I' for Inactive)
REMARK    1  A    between atoms: C_1  and  C_2
REMARK    2  A    between atoms: C_4  and  C_32
REMARK    3  A    between atoms: C_5  and  C_9
REMARK    4  A    between atoms: C_6  and  C_8
REMARK    5  A    between atoms: C_9  and  N_10
REMARK    6  A    between atoms: C_13  and  C_17
REMARK    7  A    between atoms: C_14  and  C_16
REMARK    8  A    between atoms: N_20  and  C_23
REMARK                            x       y       z     vdW  Elec       q    Type
REMARK                         _______ _______ _______ _____ _____    ______ ____
ROOT
ATOM      1  N   UNL     1       1.241  -0.168  -1.510  0.00  0.00    -0.283 N 
ATOM      2  C   UNL     1       0.347  -0.538  -0.542  0.00  0.00    +0.097 A 
ATOM      3  C   UNL     1      -0.865   0.136  -0.378  0.00  0.00    +0.074 A 
ATOM      4  C   UNL     1      -1.711  -0.371   0.691  0.00  0.00    -0.026 A 
ATOM      5  C   UNL     1      -1.262  -1.414   1.405  0.00  0.00    -0.008 A 
ATOM      6  S   UNL     1       0.323  -1.763   0.669  0.00  0.00    -0.075 S 
ATOM      7  C   UNL     1      -1.935  -2.121   2.553  0.00  0.00    +0.052 C 
ATOM      8  C   UNL     1      -3.049   0.256   0.988  0.00  0.00    +0.045 C 
ATOM      9  C   UNL     1      -1.105   1.259  -1.310  0.00  0.00    +0.270 A 
ATOM     10  O   UNL     1      -2.137   1.902  -1.246  0.00  0.00    -0.266 OA
ATOM     11  N   UNL     1      -0.174   1.557  -2.233  0.00  0.00    -0.228 N 
ATOM     12  C   UNL     1       0.972   0.863  -2.334  0.00  0.00    +0.338 A 
ATOM     13  O   UNL     1       1.783   1.172  -3.185  0.00  0.00    -0.246 OA
ENDROOT
BRANCH  11  14
ATOM     14  C   UNL     1      -0.405   2.622  -3.116  0.00  0.00    +0.058 A 
ATOM     15  C   UNL     1      -1.009   2.388  -4.344  0.00  0.00    +0.030 A 
ATOM     16  C   UNL     1      -1.242   3.437  -5.213  0.00  0.00    +0.051 A 
ATOM     17  C   UNL     1      -0.864   4.724  -4.865  0.00  0.00    +0.166 A 
ATOM     18  C   UNL     1      -0.252   4.961  -3.637  0.00  0.00    +0.168 A 
ATOM     19  C   UNL     1      -0.024   3.910  -2.765  0.00  0.00    +0.076 A 
ATOM     20  O   UNL     1       0.020   6.295  -3.535  0.00  0.00    -0.453 OA
ATOM     21  C   UNL     1      -0.797   6.932  -4.535  0.00  0.00    +0.466 C 
ATOM     22  O   UNL     1      -0.974   5.910  -5.534  0.00  0.00    -0.453 OA
ENDBRANCH  11  14
BRANCH   1  23
ATOM     23  C   UNL     1       2.502  -0.900  -1.651  0.00  0.00    +0.163 C 
BRANCH  23  28
ATOM     24  C   UNL     1       2.153  -4.490  -6.165  0.00  0.00    +0.044 C 
ATOM     25  C   UNL     1       2.244  -3.554  -4.988  0.00  0.00    -0.050 A 
ATOM     26  C   UNL     1       3.044  -2.429  -5.060  0.00  0.00    +0.007 A 
ATOM     27  C   UNL     1       3.128  -1.570  -3.980  0.00  0.00    -0.045 A 
ATOM     28  C   UNL     1       2.411  -1.836  -2.828  0.00  0.00    -0.022 A 
ATOM     29  C   UNL     1       1.615  -2.964  -2.754  0.00  0.00    -0.045 A 
ATOM     30  C   UNL     1       1.528  -3.820  -3.836  0.00  0.00    +0.007 A 
ATOM     31  C   UNL     1       0.839  -3.257  -1.497  0.00  0.00    +0.044 C 
ATOM     32  C   UNL     1       4.000  -0.344  -4.058  0.00  0.00    +0.044 C 
ENDBRANCH  23  28
ENDBRANCH   1  23
TORSDOF 3
