REMARK  Name = ZINC63948603
REMARK  3 active torsions:
REMARK  status: ('A' for Active; 'I' for Inactive)
REMARK    1  A    between atoms: C_4  and  N_7
REMARK    2  A    between atoms: C_9  and  C_14
REMARK    3  A    between atoms: N_16  and  C_17
REMARK                            x       y       z     vdW  Elec       q    Type
REMARK                         _______ _______ _______ _____ _____    ______ ____
ROOT
ATOM      1  C   UNL     1       5.791  -3.559   0.348  0.00  0.00    +0.221 C 
ATOM      2  O   UNL     1       5.151  -4.094   1.228  0.00  0.00    -0.275 OA
ATOM      3  N   UNL     1       7.040  -3.982   0.070  0.00  0.00    -0.278 N 
ATOM      4  H   UNL     1       7.552  -3.554  -0.634  0.00  0.00    +0.152 HD
ENDROOT
BRANCH   3   5
ATOM      5  C   UNL     1       7.625  -5.088   0.832  0.00  0.00    +0.269 C 
ATOM      6  N   UNL     1       7.090  -6.369   0.352  0.00  0.00    -0.348 N 
ATOM      7  C   UNL     1       8.093  -7.072  -0.086  0.00  0.00    +0.061 A 
ATOM      8  C   UNL     1       8.191  -8.414  -0.678  0.00  0.00    +0.027 A 
ATOM      9  C   UNL     1       9.396  -8.892  -1.047  0.00  0.00    +0.002 A 
ATOM     10  C   UNL     1      10.584  -8.156  -0.891  0.00  0.00    +0.002 A 
ATOM     11  C   UNL     1      10.607  -6.917  -0.360  0.00  0.00    +0.027 A 
ATOM     12  C   UNL     1       9.351  -6.293   0.079  0.00  0.00    +0.061 A 
ATOM     13  N   UNL     1       9.076  -5.138   0.614  0.00  0.00    -0.348 N 
ATOM     14  H   UNL     1       6.159  -6.641   0.361  0.00  0.00    +0.163 HD
ATOM     15  H   UNL     1       9.713  -4.439   0.829  0.00  0.00    +0.163 HD
ENDBRANCH   3   5
BRANCH   1  18
ATOM     16  N   UNL     1       3.622  -0.651  -0.037  0.00  0.00    -0.271 N 
ATOM     17  C   UNL     1       3.757  -2.109   0.053  0.00  0.00    +0.127 C 
ATOM     18  C   UNL     1       5.189  -2.421  -0.436  0.00  0.00    +0.101 C 
ATOM     19  C   UNL     1       5.921  -1.092  -0.134  0.00  0.00    +0.110 C 
ATOM     20  C   UNL     1       4.821  -0.054  -0.144  0.00  0.00    +0.221 C 
ATOM     21  O   UNL     1       4.997   1.143  -0.232  0.00  0.00    -0.275 OA
BRANCH  16  25
ATOM     22  C   UNL     1      -0.017   1.379   0.010  0.00  0.00    +0.000 A 
ATOM     23  C   UNL     1       1.170   2.089   0.016  0.00  0.00    +0.002 A 
ATOM     24  C   UNL     1       2.377   1.419   0.001  0.00  0.00    +0.023 A 
ATOM     25  C   UNL     1       2.400   0.031  -0.021  0.00  0.00    +0.036 A 
ATOM     26  C   UNL     1       1.206  -0.680  -0.028  0.00  0.00    +0.023 A 
ATOM     27  C   UNL     1       0.002  -0.004  -0.012  0.00  0.00    +0.002 A 
ENDBRANCH  16  25
ENDBRANCH   1  18
TORSDOF 3
