REMARK  Name = ZINC40063540
REMARK  4 active torsions:
REMARK  status: ('A' for Active; 'I' for Inactive)
REMARK    1  A    between atoms: C_1  and  C_2
REMARK    2  A    between atoms: C_12  and  C_13
REMARK    3  A    between atoms: C_17  and  C_19
REMARK    4  A    between atoms: C_30  and  C_32
REMARK                            x       y       z     vdW  Elec       q    Type
REMARK                         _______ _______ _______ _____ _____    ______ ____
ROOT
ATOM      1  C   UNL     1      -0.018   1.503   0.010  0.00  0.00    +0.044 C 
ATOM      2  C   UNL     1       0.002  -0.004   0.002  0.00  0.00    -0.044 A 
ATOM      3  C   UNL     1       0.006  -0.683  -1.209  0.00  0.00    +0.004 A 
ATOM      4  C   UNL     1       0.021  -2.050  -1.231  0.00  0.00    +0.015 A 
ATOM      5  C   UNL     1       0.033  -2.761  -0.032  0.00  0.00    +0.065 A 
ATOM      6  C   UNL     1       0.036  -4.246  -0.038  0.00  0.00    +0.199 A 
ATOM      7  O   UNL     1       0.200  -4.908  -1.048  0.00  0.00    -0.287 OA
ATOM      8  C   UNL     1      -0.176  -4.839   1.286  0.00  0.00    +0.072 A 
ATOM      9  C   UNL     1      -0.158  -4.068   2.414  0.00  0.00    +0.199 A 
ATOM     10  O   UNL     1       0.060  -2.739   2.383  0.00  0.00    -0.449 OA
ATOM     11  C   UNL     1       0.036  -2.085   1.199  0.00  0.00    +0.143 A 
ATOM     12  C   UNL     1       0.023  -0.690   1.195  0.00  0.00    -0.005 A 
ATOM     13  C   UNL     1       0.025   0.066   2.499  0.00  0.00    +0.048 C 
ATOM     14  C   UNL     1      -0.407  -4.941   3.574  0.00  0.00    +0.289 C 
ATOM     15  O   UNL     1      -0.459  -4.566   4.729  0.00  0.00    -0.266 OA
ATOM     16  N   UNL     1      -0.570  -6.217   3.168  0.00  0.00    -0.230 N 
ATOM     17  C   UNL     1      -0.436  -6.249   1.702  0.00  0.00    +0.152 C 
ATOM     18  C   UNL     1      -0.821  -7.308   3.989  0.00  0.00    +0.191 A 
ATOM     19  N   UNL     1      -0.987  -8.588   3.681  0.00  0.00    -0.125 NA
ATOM     20  N   UNL     1      -1.209  -9.461   4.563  0.00  0.00    -0.145 NA
ATOM     21  C   UNL     1      -1.290  -9.160   5.844  0.00  0.00    +0.101 A 
ATOM     22  S   UNL     1      -1.003  -7.394   5.768  0.00  0.00    -0.035 S 
ATOM     23  C   UNL     1      -1.546 -10.049   7.034  0.00  0.00    +0.075 C 
ENDROOT
BRANCH  17  24
ATOM     24  C   UNL     1       0.721  -7.130   1.306  0.00  0.00    -0.021 A 
ATOM     25  C   UNL     1       1.863  -7.162   2.084  0.00  0.00    +0.007 A 
ATOM     26  C   UNL     1       2.925  -7.969   1.721  0.00  0.00    +0.022 A 
ATOM     27  C   UNL     1       2.845  -8.745   0.579  0.00  0.00    +0.059 A 
ATOM     28  C   UNL     1       1.701  -8.714  -0.200  0.00  0.00    +0.060 A 
ATOM     29  C   UNL     1       0.637  -7.910   0.168  0.00  0.00    +0.027 A 
ATOM     30 CL   UNL     1       1.599  -9.687  -1.634  0.00  0.00    -0.082 Cl
ATOM     31 CL   UNL     1       4.179  -9.759   0.122  0.00  0.00    -0.082 Cl
ENDBRANCH  17  24
TORSDOF 1
