REMARK  Name = ZINC05532461
REMARK  8 active torsions:
REMARK  status: ('A' for Active; 'I' for Inactive)
REMARK    1  A    between atoms: C_1  and  C_2
REMARK    2  A    between atoms: C_3  and  O_29
REMARK    3  A    between atoms: C_6  and  C_10
REMARK    4  A    between atoms: C_7  and  O_8
REMARK    5  A    between atoms: O_8  and  C_9
REMARK    6  A    between atoms: C_24  and  N_28
REMARK    7  A    between atoms: C_25  and  C_26
REMARK    8  A    between atoms: O_29  and  C_30
REMARK                            x       y       z     vdW  Elec       q    Type
REMARK                         _______ _______ _______ _____ _____    ______ ____
ROOT
ATOM      1  C   UNL     1      -0.202   5.396   0.077  0.00  0.00    +0.108 C 
ATOM      2  C   UNL     1      -0.125   3.900   0.221  0.00  0.00    +0.092 A 
ATOM      3  C   UNL     1       1.082   3.268   0.262  0.00  0.00    +0.152 A 
ATOM      4  C   UNL     1       1.096   1.803   0.404  0.00  0.00    +0.060 A 
ATOM      5  C   UNL     1       2.298   1.095   0.451  0.00  0.00    +0.015 A 
ATOM      6  C   UNL     1       2.275  -0.276   0.585  0.00  0.00    +0.001 A 
ATOM      7  C   UNL     1       1.067  -0.951   0.674  0.00  0.00    +0.004 A 
ATOM      8  C   UNL     1      -0.128  -0.263   0.630  0.00  0.00    +0.047 A 
ATOM      9  C   UNL     1      -0.127   1.119   0.494  0.00  0.00    +0.143 A 
ATOM     10  O   UNL     1      -1.287   1.809   0.442  0.00  0.00    -0.422 OA
ATOM     11  C   UNL     1      -1.307   3.145   0.315  0.00  0.00    +0.345 A 
ATOM     12  O   UNL     1      -2.381   3.720   0.276  0.00  0.00    -0.245 OA
ATOM     13  O   UNL     1       2.239   3.951   0.176  0.00  0.00    -0.440 OA
ATOM     14  C   UNL     1       2.247   5.199  -0.327  0.00  0.00    +0.199 C 
ATOM     15  C   UNL     1       1.115   5.940  -0.403  0.00  0.00    +0.098 C 
ENDROOT
BRANCH   1  21
ATOM     16  C   UNL     1       1.141   6.671   4.735  0.00  0.00    +0.051 C 
ATOM     17  C   UNL     1       0.105   6.620   3.642  0.00  0.00    +0.033 A 
ATOM     18  C   UNL     1      -1.163   7.138   3.863  0.00  0.00    +0.126 A 
ATOM     19  C   UNL     1      -2.115   7.090   2.855  0.00  0.00    +0.046 A 
ATOM     20  C   UNL     1      -1.802   6.527   1.633  0.00  0.00    +0.012 A 
ATOM     21  C   UNL     1      -0.540   6.010   1.411  0.00  0.00    +0.008 A 
ATOM     22  C   UNL     1       0.415   6.051   2.417  0.00  0.00    +0.131 A 
BRANCH  22  23
ATOM     23  O   UNL     1       1.654   5.538   2.200  0.00  0.00    -0.494 OA
ATOM     24  C   UNL     1       2.699   6.468   1.907  0.00  0.00    +0.277 C 
ENDBRANCH  22  23
BRANCH  18  25
ATOM     25  O   UNL     1      -1.471   7.692   5.065  0.00  0.00    -0.495 OA
ATOM     26  C   UNL     1      -2.796   8.205   5.221  0.00  0.00    +0.277 C 
ENDBRANCH  18  25
ENDBRANCH   1  21
BRANCH  14  27
ATOM     27  N   UNL     1       3.429   5.734  -0.773  0.00  0.00    -0.328 N 
ATOM     28  H   UNL     1       4.246   5.213  -0.724  0.00  0.00    +0.145 HD
ATOM     29  H   UNL     1       3.448   6.633  -1.138  0.00  0.00    +0.145 HD
ENDBRANCH  14  27
BRANCH  15  30
ATOM     30  C   UNL     1       1.175   7.263  -0.947  0.00  0.00    +0.101 C 
ATOM     31  N   UNL     1       1.222   8.312  -1.380  0.00  0.00    -0.191 NA
ENDBRANCH  15  30
TORSDOF 5
