REMARK  Name = ZINC39141019
REMARK  2 active torsions:
REMARK  status: ('A' for Active; 'I' for Inactive)
REMARK    1  A    between atoms: C_4  and  C_7
REMARK    2  A    between atoms: C_9  and  C_21
REMARK                            x       y       z     vdW  Elec       q    Type
REMARK                         _______ _______ _______ _____ _____    ______ ____
ROOT
ATOM      1  C   UNL     1       3.697  -0.687  -0.038  0.00  0.00    +0.036 C 
ATOM      2  C   UNL     1       3.709  -2.019  -0.051  0.00  0.00    +0.006 C 
ATOM      3  C   UNL     1       5.015  -2.774  -0.087  0.00  0.00    +0.062 C 
ATOM      4  C   UNL     1       6.020  -1.982  -0.917  0.00  0.00    +0.148 C 
ATOM      5  C   UNL     1       6.048  -0.577  -0.353  0.00  0.00    +0.106 C 
ATOM      6  N   UNL     1       7.215  -0.028  -0.129  0.00  0.00    -0.151 NA
ATOM      7  C   UNL     1       8.357  -0.702  -0.304  0.00  0.00    +0.331 C 
ATOM      8  O   UNL     1       9.399  -0.087  -0.169  0.00  0.00    -0.250 OA
ATOM      9  N   UNL     1       8.441  -2.001  -0.616  0.00  0.00    -0.238 N 
ATOM     10  C   UNL     1       7.332  -2.737  -0.942  0.00  0.00    +0.231 C 
ATOM     11  O   UNL     1       7.386  -3.916  -1.220  0.00  0.00    -0.275 OA
ATOM     12  N   UNL     1       4.891   0.039  -0.047  0.00  0.00    -0.304 N 
ATOM     13  H   UNL     1       9.309  -2.433  -0.622  0.00  0.00    +0.159 HD
ATOM     14  H   UNL     1       4.888   0.984   0.171  0.00  0.00    +0.153 HD
ENDROOT
BRANCH   3  15
ATOM     15  C   UNL     1       4.798  -4.129  -0.710  0.00  0.00    -0.039 A 
ATOM     16  C   UNL     1       4.327  -4.226  -2.006  0.00  0.00    +0.005 A 
ATOM     17  C   UNL     1       4.128  -5.468  -2.578  0.00  0.00    +0.015 A 
ATOM     18  C   UNL     1       4.400  -6.615  -1.854  0.00  0.00    +0.018 A 
ATOM     19  C   UNL     1       4.870  -6.517  -0.556  0.00  0.00    +0.015 A 
ATOM     20  C   UNL     1       5.074  -5.274   0.013  0.00  0.00    +0.005 A 
ATOM     21 BR   UNL     1       4.127  -8.315  -2.636  0.00  0.00    -0.050 Br
ENDBRANCH   3  15
BRANCH   1  25
ATOM     22  C   UNL     1      -0.017   1.379   0.010  0.00  0.00    +0.000 A 
ATOM     23  C   UNL     1       1.169   2.093   0.002  0.00  0.00    +0.001 A 
ATOM     24  C   UNL     1       2.377   1.427  -0.013  0.00  0.00    +0.010 A 
ATOM     25  C   UNL     1       2.403   0.033  -0.021  0.00  0.00    -0.004 A 
ATOM     26  C   UNL     1       1.205  -0.680  -0.013  0.00  0.00    +0.010 A 
ATOM     27  C   UNL     1       0.002  -0.004   0.002  0.00  0.00    +0.001 A 
ENDBRANCH   1  25
TORSDOF 2
