REMARK  Name = ZINC32508215
REMARK  4 active torsions:
REMARK  status: ('A' for Active; 'I' for Inactive)
REMARK    1  A    between atoms: C_6  and  C_7
REMARK    2  A    between atoms: C_7  and  C_8
REMARK    3  A    between atoms: C_8  and  N_10
REMARK    4  A    between atoms: N_12  and  C_23
REMARK                            x       y       z     vdW  Elec       q    Type
REMARK                         _______ _______ _______ _____ _____    ______ ____
ROOT
ATOM      1  N   UNL     1      -3.532  -0.967  -1.592  0.00  0.00    -0.159 NA
ATOM      2  C   UNL     1      -3.700  -1.585  -2.755  0.00  0.00    +0.154 C 
ATOM      3  N   UNL     1      -2.874  -1.531  -3.876  0.00  0.00    -0.276 N 
ATOM      4  C   UNL     1      -3.175  -2.486  -4.890  0.00  0.00    +0.116 C 
ATOM      5  C   UNL     1      -2.625  -2.448  -6.310  0.00  0.00    +0.190 C 
ATOM      6  S   UNL     1      -3.562  -3.904  -6.981  0.00  0.00    -0.028 S 
ATOM      7  O   UNL     1      -2.785  -5.079  -6.799  0.00  0.00    -0.174 OA
ATOM      8  O   UNL     1      -4.053  -3.583  -8.275  0.00  0.00    -0.174 OA
ATOM      9  C   UNL     1      -4.974  -3.922  -5.785  0.00  0.00    +0.182 C 
ATOM     10  C   UNL     1      -4.739  -2.597  -5.043  0.00  0.00    +0.097 C 
ATOM     11  S   UNL     1      -5.041  -2.686  -3.232  0.00  0.00    -0.086 S 
ENDROOT
BRANCH   3  12
ATOM     12  C   UNL     1      -1.829  -0.607  -3.997  0.00  0.00    +0.039 A 
ATOM     13  C   UNL     1      -0.579  -0.898  -3.465  0.00  0.00    +0.027 A 
ATOM     14  C   UNL     1       0.453   0.012  -3.584  0.00  0.00    +0.051 A 
ATOM     15  C   UNL     1       0.246   1.218  -4.235  0.00  0.00    +0.166 A 
ATOM     16  C   UNL     1      -1.006   1.513  -4.769  0.00  0.00    +0.168 A 
ATOM     17  C   UNL     1      -2.039   0.598  -4.654  0.00  0.00    +0.073 A 
ATOM     18  O   UNL     1      -0.952   2.746  -5.351  0.00  0.00    -0.453 OA
ATOM     19  C   UNL     1       0.226   3.375  -4.812  0.00  0.00    +0.466 C 
ATOM     20  O   UNL     1       1.084   2.267  -4.482  0.00  0.00    -0.453 OA
ENDBRANCH   3  12
BRANCH   1  21
ATOM     21  C   UNL     1      -2.483  -0.169  -1.408  0.00  0.00    +0.243 C 
ATOM     22  O   UNL     1      -2.307   0.782  -2.145  0.00  0.00    -0.273 OA
BRANCH  21  23
ATOM     23  C   UNL     1      -1.515  -0.443  -0.286  0.00  0.00    +0.133 C 
BRANCH  23  29
ATOM     24  C   UNL     1      -0.877   1.843   0.510  0.00  0.00    +0.005 A 
ATOM     25  C   UNL     1       0.023   2.887   0.607  0.00  0.00    +0.020 A 
ATOM     26  C   UNL     1       1.268   2.785   0.013  0.00  0.00    +0.041 A 
ATOM     27  C   UNL     1       1.612   1.637  -0.678  0.00  0.00    +0.020 A 
ATOM     28  C   UNL     1       0.711   0.593  -0.775  0.00  0.00    +0.005 A 
ATOM     29  C   UNL     1      -0.533   0.696  -0.181  0.00  0.00    -0.038 A 
ATOM     30 CL   UNL     1       2.399   4.096   0.135  0.00  0.00    -0.084 Cl
ENDBRANCH  23  29
ENDBRANCH  21  23
ENDBRANCH   1  21
TORSDOF 4
