REMARK  Name = ZINC10843823
REMARK  8 active torsions:
REMARK  status: ('A' for Active; 'I' for Inactive)
REMARK    1  A    between atoms: C_1  and  C_2
REMARK    2  A    between atoms: C_6  and  N_9
REMARK    3  A    between atoms: C_7  and  C_8
REMARK    4  A    between atoms: C_10  and  C_12
REMARK    5  A    between atoms: C_12  and  N_13
REMARK    6  A    between atoms: N_13  and  C_14
REMARK    7  A    between atoms: C_16  and  C_25
REMARK    8  A    between atoms: C_19  and  N_20
REMARK                            x       y       z     vdW  Elec       q    Type
REMARK                         _______ _______ _______ _____ _____    ______ ____
ROOT
ATOM      1  N   UNL     1       1.263  -2.045  -0.137  0.00  0.00    -0.334 N 
ATOM      2  H   UNL     1       0.372  -2.421  -0.053  0.00  0.00    +0.147 HD
ENDROOT
BRANCH   1   3
ATOM      3  C   UNL     1       2.372  -2.892  -0.248  0.00  0.00    +0.049 A 
ATOM      4  C   UNL     1       3.653  -2.360  -0.265  0.00  0.00    +0.037 A 
ATOM      5  C   UNL     1       4.747  -3.198  -0.375  0.00  0.00    +0.057 A 
ATOM      6  C   UNL     1       4.569  -4.566  -0.469  0.00  0.00    +0.014 A 
ATOM      7  C   UNL     1       3.296  -5.104  -0.454  0.00  0.00    +0.025 A 
ATOM      8  C   UNL     1       2.193  -4.272  -0.337  0.00  0.00    +0.051 A 
BRANCH   8   9
ATOM      9  N   UNL     1       0.902  -4.815  -0.315  0.00  0.00    -0.328 N 
ATOM     10  C   UNL     1       0.943  -6.289  -0.489  0.00  0.00    +0.105 C 
ATOM     11  C   UNL     1      -0.425  -6.750   0.075  0.00  0.00    +0.020 C 
ATOM     12  C   UNL     1      -0.639  -5.804   1.279  0.00  0.00    +0.020 C 
ATOM     13  C   UNL     1       0.251  -4.580   0.992  0.00  0.00    +0.105 C 
ENDBRANCH   8   9
BRANCH   5  14
ATOM     14  C   UNL     1       6.138  -2.619  -0.393  0.00  0.00    +0.417 C 
ATOM     15  F   UNL     1       6.626  -2.538   0.916  0.00  0.00    -0.166 F 
ATOM     16  F   UNL     1       6.977  -3.442  -1.152  0.00  0.00    -0.166 F 
ATOM     17  F   UNL     1       6.104  -1.339  -0.957  0.00  0.00    -0.166 F 
ENDBRANCH   5  14
ENDBRANCH   1   3
BRANCH   1  18
ATOM     18  C   UNL     1       1.446  -0.592  -0.146  0.00  0.00    +0.198 C 
BRANCH  18  20
ATOM     19  N   UNL     1       0.029   1.431   0.001  0.00  0.00    -0.284 N 
ATOM     20  C   UNL     1       0.106   0.085  -0.014  0.00  0.00    +0.234 C 
ATOM     21  O   UNL     1      -0.903  -0.581   0.080  0.00  0.00    -0.274 OA
ATOM     22  H   UNL     1       0.840   1.963   0.005  0.00  0.00    +0.155 HD
BRANCH  19  28
ATOM     23  C   UNL     1      -2.733   5.349   1.090  0.00  0.00    +0.044 C 
ATOM     24  C   UNL     1      -2.588   3.959   0.527  0.00  0.00    -0.046 A 
ATOM     25  C   UNL     1      -3.692   3.304   0.012  0.00  0.00    +0.004 A 
ATOM     26  C   UNL     1      -3.564   2.028  -0.505  0.00  0.00    +0.002 A 
ATOM     27  C   UNL     1      -2.331   1.404  -0.511  0.00  0.00    +0.023 A 
ATOM     28  C   UNL     1      -1.221   2.060   0.005  0.00  0.00    +0.037 A 
ATOM     29  C   UNL     1      -1.355   3.339   0.529  0.00  0.00    -0.026 A 
ATOM     30  C   UNL     1      -0.153   4.051   1.096  0.00  0.00    +0.046 C 
ENDBRANCH  19  28
ENDBRANCH  18  20
ENDBRANCH   1  18
TORSDOF 6
