REMARK  Name = ZINC51712542
REMARK  13 active torsions:
REMARK  status: ('A' for Active; 'I' for Inactive)
REMARK    1  A    between atoms: C_1  and  C_2
REMARK    2  A    between atoms: C_2  and  S_3
REMARK    3  A    between atoms: S_3  and  N_6
REMARK    4  A    between atoms: N_6  and  C_7
REMARK    5  A    between atoms: C_7  and  C_8
REMARK    6  A    between atoms: C_8  and  C_9
REMARK    7  A    between atoms: C_9  and  N_10
REMARK    8  A    between atoms: N_13  and  C_14
REMARK    9  A    between atoms: C_14  and  C_16
REMARK   10  A    between atoms: C_14  and  C_17
REMARK   11  A    between atoms: C_17  and  N_18
REMARK   12  A    between atoms: C_20  and  C_27
REMARK   13  A    between atoms: C_23  and  C_26
REMARK                            x       y       z     vdW  Elec       q    Type
REMARK                         _______ _______ _______ _____ _____    ______ ____
ROOT
ATOM      1  N   UNL     1      -1.335  -6.594  -1.997  0.00  0.00    -0.299 N 
ATOM      2  C   UNL     1      -2.377  -7.444  -2.086  0.00  0.00    +0.300 C 
ATOM      3  O   UNL     1      -3.513  -7.027  -1.961  0.00  0.00    -0.253 OA
ATOM      4  N   UNL     1      -2.161  -8.755  -2.313  0.00  0.00    -0.299 N 
ATOM      5  H   UNL     1      -0.429  -6.926  -2.097  0.00  0.00    +0.150 HD
ATOM      6  H   UNL     1      -1.256  -9.087  -2.413  0.00  0.00    +0.150 HD
ENDROOT
BRANCH   4   7
ATOM      7  C   UNL     1      -3.295  -9.678  -2.409  0.00  0.00    +0.055 C 
ATOM      8  C   UNL     1      -3.699 -10.138  -1.007  0.00  0.00    +0.026 C 
BRANCH   7   9
ATOM      9  C   UNL     1      -2.893 -10.893  -3.248  0.00  0.00    -0.057 C 
BRANCH   9  10
ATOM     10  N   UNL     1      -2.392 -10.442  -4.554  0.00  0.00    +0.381 N 
ATOM     11  C   UNL     1      -3.478  -9.790  -5.295  0.00  0.00    -0.076 C 
ATOM     12  C   UNL     1      -2.942  -9.247  -6.621  0.00  0.00    -0.031 C 
ATOM     13  C   UNL     1      -2.379 -10.405  -7.450  0.00  0.00    +0.003 C 
ATOM     14  C   UNL     1      -1.298 -11.124  -6.638  0.00  0.00    -0.031 C 
ATOM     15  C   UNL     1      -1.896 -11.598  -5.311  0.00  0.00    -0.076 C 
ATOM     16  C   UNL     1      -0.784 -12.330  -7.427  0.00  0.00    +0.005 C 
ATOM     17  C   UNL     1      -1.833  -8.229  -6.346  0.00  0.00    +0.005 C 
ATOM     18  H   UNL     1      -1.639  -9.784  -4.415  0.00  0.00    -0.082 HD
ENDBRANCH   9  10
ENDBRANCH   7   9
ENDBRANCH   4   7
BRANCH   1  19
ATOM     19  C   UNL     1      -1.570  -5.170  -1.750  0.00  0.00    +0.107 C 
BRANCH  19  20
ATOM     20  C   UNL     1      -0.230  -4.434  -1.695  0.00  0.00    +0.035 C 
BRANCH  20  21
ATOM     21  C   UNL     1      -0.475  -2.946  -1.437  0.00  0.00    +0.107 C 
BRANCH  21  22
ATOM     22  N   UNL     1       0.808  -2.241  -1.384  0.00  0.00    -0.194 NA
ATOM     23  H   UNL     1       1.633  -2.742  -1.287  0.00  0.00    +0.148 HD
BRANCH  22  24
ATOM     24  S   UNL     1       0.851  -0.589  -1.490  0.00  0.00    +0.029 S 
ATOM     25  O   UNL     1       0.082  -0.280  -2.644  0.00  0.00    -0.158 OA
ATOM     26  O   UNL     1       2.232  -0.257  -1.430  0.00  0.00    -0.158 OA
BRANCH  24  28
ATOM     27  C   UNL     1      -0.019   1.526   0.010  0.00  0.00    +0.029 C 
ATOM     28  C   UNL     1       0.002  -0.004   0.002  0.00  0.00    +0.181 C 
ENDBRANCH  24  28
ENDBRANCH  22  24
ENDBRANCH  21  22
ENDBRANCH  20  21
ENDBRANCH  19  20
ENDBRANCH   1  19
TORSDOF 9
