REMARK  Name = ZINC28313516
REMARK  10 active torsions:
REMARK  status: ('A' for Active; 'I' for Inactive)
REMARK    1  A    between atoms: C_1  and  C_2
REMARK    2  A    between atoms: C_2  and  O_3
REMARK    3  A    between atoms: O_3  and  C_4
REMARK    4  A    between atoms: C_7  and  N_10
REMARK    5  A    between atoms: C_11  and  C_13
REMARK    6  A    between atoms: C_13  and  N_18
REMARK    7  A    between atoms: C_14  and  C_15
REMARK    8  A    between atoms: C_15  and  C_16
REMARK    9  A    between atoms: C_15  and  C_17
REMARK   10  A    between atoms: C_19  and  C_21
REMARK                            x       y       z     vdW  Elec       q    Type
REMARK                         _______ _______ _______ _____ _____    ______ ____
ROOT
ATOM      1  C   UNL     1       2.645  -4.206  -0.108  0.00  0.00    +0.093 C 
ATOM      2  C   UNL     1       1.552  -4.971  -0.135  0.00  0.00    +0.004 C 
ENDROOT
BRANCH   1   4
ATOM      3  N   UNL     1       2.516  -2.126  -1.388  0.00  0.00    -0.280 N 
ATOM      4  C   UNL     1       2.521  -2.738  -0.188  0.00  0.00    +0.262 C 
ATOM      5  O   UNL     1       2.422  -2.080   0.831  0.00  0.00    -0.268 OA
ATOM      6  H   UNL     1       2.471  -2.724  -2.310  0.00  0.00    +0.155 HD
BRANCH   3  10
ATOM      7  C   UNL     1       2.671   2.034  -1.608  0.00  0.00    +0.121 A 
ATOM      8  C   UNL     1       3.155   1.266  -2.657  0.00  0.00    +0.047 A 
ATOM      9  C   UNL     1       3.104  -0.112  -2.585  0.00  0.00    +0.027 A 
ATOM     10  C   UNL     1       2.568  -0.729  -1.462  0.00  0.00    +0.034 A 
ATOM     11  C   UNL     1       2.084   0.041  -0.413  0.00  0.00    +0.027 A 
ATOM     12  C   UNL     1       2.136   1.419  -0.486  0.00  0.00    +0.047 A 
BRANCH   7  13
ATOM     13  O   UNL     1       2.722   3.391  -1.680  0.00  0.00    -0.492 OA
BRANCH  13  15
ATOM     14  C   UNL     1       2.348   5.621  -0.825  0.00  0.00    +0.048 C 
ATOM     15  C   UNL     1       2.206   4.120  -0.564  0.00  0.00    +0.225 C 
ENDBRANCH  13  15
ENDBRANCH   7  13
ENDBRANCH   3  10
ENDBRANCH   1   4
BRANCH   1  16
ATOM     16  N   UNL     1       3.911  -4.796  -0.005  0.00  0.00    -0.278 N 
ATOM     17  C   UNL     1       5.005  -4.023   0.147  0.00  0.00    +0.250 C 
ATOM     18  O   UNL     1       4.883  -2.828   0.332  0.00  0.00    -0.270 OA
ATOM     19  H   UNL     1       4.012  -5.891  -0.048  0.00  0.00    +0.155 HD
BRANCH  17  20
ATOM     20  C   UNL     1       6.351  -4.629   0.088  0.00  0.00    +0.055 A 
ATOM     21  C   UNL     1       6.494  -6.003  -0.118  0.00  0.00    +0.014 A 
ATOM     22  C   UNL     1       7.753  -6.561  -0.176  0.00  0.00    +0.001 A 
ATOM     23  C   UNL     1       8.875  -5.765  -0.020  0.00  0.00    +0.001 A 
ATOM     24  C   UNL     1       8.742  -4.405   0.190  0.00  0.00    +0.021 A 
ATOM     25  C   UNL     1       7.487  -3.831   0.245  0.00  0.00    +0.053 A 
ATOM     26 CL   UNL     1       7.321  -2.123   0.510  0.00  0.00    -0.083 Cl
ENDBRANCH  17  20
ENDBRANCH   1  16
BRANCH   2  27
ATOM     27  C   UNL     1       0.186  -4.335  -0.116  0.00  0.00    +0.007 C 
ATOM     28  C   UNL     1      -0.625  -4.833  -1.315  0.00  0.00    +0.011 C 
ATOM     29  C   UNL     1      -0.535  -4.712   1.179  0.00  0.00    +0.011 C 
ENDBRANCH   2  27
TORSDOF 7
