REMARK  Name = ZINC04354832
REMARK  9 active torsions:
REMARK  status: ('A' for Active; 'I' for Inactive)
REMARK    1  A    between atoms: C_1  and  C_2
REMARK    2  A    between atoms: C_2  and  C_4
REMARK    3  A    between atoms: C_2  and  N_12
REMARK    4  A    between atoms: N_6  and  C_7
REMARK    5  A    between atoms: N_12  and  C_13
REMARK    6  A    between atoms: C_13  and  C_14
REMARK    7  A    between atoms: C_23  and  C_25
REMARK    8  A    between atoms: C_26  and  N_33
REMARK    9  A    between atoms: C_27  and  C_30
REMARK                            x       y       z     vdW  Elec       q    Type
REMARK                         _______ _______ _______ _____ _____    ______ ____
ROOT
ATOM      1  N   UNL     1      -1.649  -1.123   0.807  0.00  0.00    -0.281 N 
ATOM      2  C   UNL     1      -2.545  -0.347   1.449  0.00  0.00    +0.257 C 
ATOM      3  O   UNL     1      -2.171   0.445   2.293  0.00  0.00    -0.269 OA
ENDROOT
BRANCH   2   4
ATOM      4  C   UNL     1      -3.970  -0.459   1.130  0.00  0.00    +0.115 A 
ATOM      5  C   UNL     1      -5.069   0.093   1.789  0.00  0.00    +0.076 A 
ATOM      6  C   UNL     1      -6.289  -0.227   1.196  0.00  0.00    +0.155 A 
ATOM      7  N   UNL     1      -6.309  -0.985   0.120  0.00  0.00    -0.203 NA
ATOM      8  S   UNL     1      -4.763  -1.329  -0.207  0.00  0.00    +0.019 S 
BRANCH   6   9
ATOM      9  C   UNL     1      -7.549   0.278   1.771  0.00  0.00    +0.262 C 
ATOM     10  O   UNL     1      -7.522   1.085   2.681  0.00  0.00    -0.269 OA
ATOM     11  N   UNL     1      -8.731  -0.153   1.288  0.00  0.00    -0.324 N 
ATOM     12  H   UNL     1      -8.753  -0.796   0.563  0.00  0.00    +0.145 HD
ATOM     13  H   UNL     1      -9.560   0.179   1.667  0.00  0.00    +0.145 HD
ENDBRANCH   6   9
BRANCH   5  14
ATOM     14  N   UNL     1      -4.958   0.885   2.924  0.00  0.00    -0.355 N 
ATOM     15  H   UNL     1      -4.084   1.170   3.233  0.00  0.00    +0.142 HD
ATOM     16  H   UNL     1      -5.755   1.153   3.408  0.00  0.00    +0.142 HD
ENDBRANCH   5  14
ENDBRANCH   2   4
BRANCH   1  18
ATOM     17  C   UNL     1       0.307   0.323   1.067  0.00  0.00    +0.038 C 
ATOM     18  C   UNL     1      -0.240  -1.099   1.209  0.00  0.00    +0.159 C 
BRANCH  18  19
ATOM     19  C   UNL     1      -0.119  -1.542   2.644  0.00  0.00    +0.234 C 
ATOM     20  O   UNL     1      -1.103  -1.578   3.353  0.00  0.00    -0.274 OA
ATOM     21  N   UNL     1       1.082  -1.900   3.140  0.00  0.00    -0.311 N 
ATOM     22  H   UNL     1       1.869  -1.872   2.573  0.00  0.00    +0.149 HD
BRANCH  21  23
ATOM     23  C   UNL     1       1.200  -2.332   4.535  0.00  0.00    +0.073 C 
ATOM     24  C   UNL     1       1.430  -1.110   5.449  0.00  0.00    +0.022 C 
ATOM     25  C   UNL     1       2.419  -1.622   6.525  0.00  0.00    +0.002 C 
ATOM     26  C   UNL     1       3.361  -2.545   5.713  0.00  0.00    +0.002 C 
ATOM     27  C   UNL     1       2.428  -3.244   4.703  0.00  0.00    +0.022 C 
ENDBRANCH  21  23
ENDBRANCH  18  19
ENDBRANCH   1  18
BRANCH   1  28
ATOM     28  C   UNL     1      -2.082  -1.989  -0.291  0.00  0.00    +0.144 C 
BRANCH  28  29
ATOM     29  C   UNL     1      -2.283  -3.391   0.224  0.00  0.00    -0.026 A 
ATOM     30  C   UNL     1      -1.274  -4.326   0.090  0.00  0.00    +0.009 A 
ATOM     31  C   UNL     1      -1.453  -5.613   0.561  0.00  0.00    +0.050 A 
ATOM     32  C   UNL     1      -2.646  -5.969   1.169  0.00  0.00    +0.166 A 
ATOM     33  C   UNL     1      -3.663  -5.027   1.304  0.00  0.00    +0.167 A 
ATOM     34  C   UNL     1      -3.474  -3.737   0.834  0.00  0.00    +0.054 A 
ATOM     35  O   UNL     1      -4.724  -5.617   1.928  0.00  0.00    -0.453 OA
ATOM     36  C   UNL     1      -4.502  -7.034   1.807  0.00  0.00    +0.466 C 
ATOM     37  O   UNL     1      -3.070  -7.149   1.709  0.00  0.00    -0.453 OA
ENDBRANCH  28  29
ENDBRANCH   1  28
TORSDOF 8
