REMARK  Name = ZINC08763049
REMARK  11 active torsions:
REMARK  status: ('A' for Active; 'I' for Inactive)
REMARK    1  A    between atoms: C_1  and  C_2
REMARK    2  A    between atoms: C_2  and  C_3
REMARK    3  A    between atoms: C_3  and  C_4
REMARK    4  A    between atoms: C_3  and  C_5
REMARK    5  A    between atoms: C_3  and  N_52
REMARK    6  A    between atoms: C_6  and  C_7
REMARK    7  A    between atoms: C_6  and  N_52
REMARK    8  A    between atoms: N_9  and  C_10
REMARK    9  A    between atoms: C_14  and  C_16
REMARK   10  A    between atoms: N_18  and  C_19
REMARK   11  A    between atoms: C_23  and  C_25
REMARK                            x       y       z     vdW  Elec       q    Type
REMARK                         _______ _______ _______ _____ _____    ______ ____
ROOT
ATOM      1  C   UNL     1       2.222   9.495   0.458  0.00  0.00    +0.034 A 
ATOM      2  C   UNL     1       1.001  10.159   0.460  0.00  0.00    +0.023 A 
ATOM      3  C   UNL     1      -0.179   9.446   0.369  0.00  0.00    +0.003 A 
ATOM      4  C   UNL     1      -0.153   8.069   0.276  0.00  0.00    +0.013 A 
ATOM      5  C   UNL     1       1.068   7.393   0.273  0.00  0.00    +0.039 A 
ATOM      6  C   UNL     1       2.259   8.113   0.370  0.00  0.00    +0.036 A 
ENDROOT
BRANCH   1   9
ATOM      7  C   UNL     1       4.509   9.810  -0.119  0.00  0.00    +0.200 C 
ATOM      8  O   UNL     1       4.486   8.764  -0.734  0.00  0.00    -0.278 OA
ATOM      9  N   UNL     1       3.414  10.222   0.550  0.00  0.00    -0.287 N 
ATOM     10  H   UNL     1       3.453  11.023   1.096  0.00  0.00    +0.155 HD
BRANCH   7  11
ATOM     11  C   UNL     1       5.762  10.647  -0.104  0.00  0.00    +0.016 C 
BRANCH  11  12
ATOM     12  N   UNL     1       6.802   9.976  -0.906  0.00  0.00    +0.388 N 
ATOM     13  H   UNL     1       6.996   9.051  -0.504  0.00  0.00    -0.084 HD
ATOM     14  H   UNL     1       6.467   9.866  -1.871  0.00  0.00    -0.084 HD
BRANCH  12  15
ATOM     15  C   UNL     1       8.042  10.775  -0.909  0.00  0.00    -0.074 C 
ATOM     16  C   UNL     1       7.764  12.153  -1.512  0.00  0.00    -0.010 C 
ATOM     17  C   UNL     1       8.551  10.938   0.524  0.00  0.00    -0.010 C 
BRANCH  15  19
ATOM     18  C   UNL     1      10.390  10.877  -1.755  0.00  0.00    +0.002 C 
ATOM     19  C   UNL     1       9.100  10.055  -1.747  0.00  0.00    -0.016 C 
ENDBRANCH  15  19
ENDBRANCH  12  15
ENDBRANCH  11  12
ENDBRANCH   7  11
ENDBRANCH   1   9
BRANCH   5  20
ATOM     20  C   UNL     1       1.098   5.918   0.174  0.00  0.00    +0.248 C 
ATOM     21  O   UNL     1       2.163   5.331   0.172  0.00  0.00    -0.270 OA
ATOM     22  N   UNL     1      -0.054   5.225   0.086  0.00  0.00    -0.281 N 
ATOM     23  H   UNL     1      -0.899   5.695   0.013  0.00  0.00    +0.155 HD
BRANCH  22  24
ATOM     24  C   UNL     1      -0.031   3.826   0.100  0.00  0.00    +0.034 A 
ATOM     25  C   UNL     1      -0.966   3.108  -0.635  0.00  0.00    +0.023 A 
ATOM     26  C   UNL     1      -0.941   1.727  -0.619  0.00  0.00    +0.002 A 
ATOM     27  C   UNL     1       0.013   1.060   0.128  0.00  0.00    +0.012 A 
ATOM     28  C   UNL     1       0.942   1.772   0.864  0.00  0.00    +0.057 A 
ATOM     29  C   UNL     1       0.926   3.153   0.848  0.00  0.00    +0.035 A 
BRANCH  28  30
ATOM     30  C   UNL     1       1.976   1.041   1.680  0.00  0.00    +0.417 C 
ATOM     31  F   UNL     1       1.796  -0.339   1.534  0.00  0.00    -0.166 F 
ATOM     32  F   UNL     1       3.255   1.393   1.236  0.00  0.00    -0.166 F 
ATOM     33  F   UNL     1       1.838   1.389   3.028  0.00  0.00    -0.166 F 
ENDBRANCH  28  30
ENDBRANCH  22  24
ENDBRANCH   5  20
TORSDOF 8
