REMARK  Name = ZINC38670493
REMARK  10 active torsions:
REMARK  status: ('A' for Active; 'I' for Inactive)
REMARK    1  A    between atoms: C_1  and  C_2
REMARK    2  A    between atoms: C_2  and  C_3
REMARK    3  A    between atoms: C_2  and  C_4
REMARK    4  A    between atoms: C_2  and  O_26
REMARK    5  A    between atoms: N_6  and  C_7
REMARK    6  A    between atoms: C_7  and  C_8
REMARK    7  A    between atoms: C_8  and  C_10
REMARK    8  A    between atoms: C_8  and  N_21
REMARK    9  A    between atoms: N_19  and  C_20
REMARK   10  A    between atoms: O_26  and  C_27
REMARK                            x       y       z     vdW  Elec       q    Type
REMARK                         _______ _______ _______ _____ _____    ______ ____
ROOT
ATOM      1  C   UNL     1      -5.218   0.127   2.430  0.00  0.00    -0.020 C 
ENDROOT
BRANCH   1   2
ATOM      2  C   UNL     1      -6.654  -0.321   2.351  0.00  0.00    -0.059 A 
ATOM      3  C   UNL     1      -7.033  -1.528   2.910  0.00  0.00    +0.004 A 
ATOM      4  C   UNL     1      -8.348  -1.938   2.836  0.00  0.00    +0.023 A 
ATOM      5  C   UNL     1      -9.292  -1.139   2.201  0.00  0.00    +0.033 A 
ATOM      6  C   UNL     1      -8.913   0.072   1.644  0.00  0.00    -0.026 A 
ATOM      7  C   UNL     1      -7.591   0.478   1.725  0.00  0.00    +0.007 A 
ATOM      8  C   UNL     1      -9.909   0.969   0.958  0.00  0.00    +0.038 C 
ATOM      9  C   UNL     1     -11.142   0.172   0.532  0.00  0.00    +0.024 C 
ATOM     10  C   UNL     1     -11.663  -0.619   1.739  0.00  0.00    +0.105 C 
ATOM     11  N   UNL     1     -10.620  -1.575   2.133  0.00  0.00    -0.333 N 
ATOM     12  C   UNL     1     -10.964  -2.964   2.448  0.00  0.00    +0.129 C 
ENDBRANCH   1   2
BRANCH   1  13
ATOM     13  N   UNL     1      -4.672  -0.210   3.752  0.00  0.00    +0.385 N 
ATOM     14  C   UNL     1      -3.316   0.376   3.911  0.00  0.00    -0.078 C 
ATOM     15  C   UNL     1      -3.134   0.435   5.449  0.00  0.00    -0.020 C 
ATOM     16  C   UNL     1      -4.546   0.814   5.950  0.00  0.00    -0.020 C 
ATOM     17  C   UNL     1      -5.501   0.398   4.816  0.00  0.00    -0.078 C 
ATOM     18  H   UNL     1      -4.635  -1.211   3.869  0.00  0.00    -0.081 HD
ENDBRANCH   1  13
BRANCH   1  19
ATOM     19  C   UNL     1      -4.402  -0.581   1.347  0.00  0.00    +0.093 C 
BRANCH  19  22
ATOM     20  C   UNL     1      -4.263  -0.607  -1.086  0.00  0.00    +0.256 C 
ATOM     21  O   UNL     1      -3.285  -1.319  -0.993  0.00  0.00    -0.271 OA
ATOM     22  N   UNL     1      -4.895  -0.183   0.026  0.00  0.00    -0.313 N 
ATOM     23  H   UNL     1      -5.677   0.387  -0.048  0.00  0.00    +0.149 HD
BRANCH  20  25
ATOM     24  C   UNL     1      -6.206  -0.694  -2.624  0.00  0.00    +0.065 C 
ATOM     25  C   UNL     1      -4.770  -0.197  -2.444  0.00  0.00    +0.180 C 
ATOM     26  C   UNL     1      -4.739   1.328  -2.561  0.00  0.00    +0.065 C 
BRANCH  25  27
ATOM     27  O   UNL     1      -3.938  -0.769  -3.456  0.00  0.00    -0.477 OA
BRANCH  27  28
ATOM     28  C   UNL     1      -2.627  -0.410  -3.453  0.00  0.00    +0.122 A 
ATOM     29  C   UNL     1      -2.124   0.371  -2.424  0.00  0.00    +0.047 A 
ATOM     30  C   UNL     1      -0.791   0.736  -2.422  0.00  0.00    +0.023 A 
ATOM     31  C   UNL     1       0.041   0.322  -3.448  0.00  0.00    +0.041 A 
ATOM     32  C   UNL     1      -0.460  -0.457  -4.476  0.00  0.00    +0.023 A 
ATOM     33  C   UNL     1      -1.790  -0.829  -4.477  0.00  0.00    +0.047 A 
ATOM     34 CL   UNL     1       1.715   0.781  -3.445  0.00  0.00    -0.084 Cl
ENDBRANCH  27  28
ENDBRANCH  25  27
ENDBRANCH  20  25
ENDBRANCH  19  22
ENDBRANCH   1  19
TORSDOF 7
