REMARK  Name = ZINC01430515
REMARK  3 active torsions:
REMARK  status: ('A' for Active; 'I' for Inactive)
REMARK    1  A    between atoms: C_12  and  C_20
REMARK    2  A    between atoms: C_14  and  C_18
REMARK    3  A    between atoms: C_15  and  N_17
REMARK                            x       y       z     vdW  Elec       q    Type
REMARK                         _______ _______ _______ _____ _____    ______ ____
ROOT
ATOM      1  C   UNL     1       1.133   3.183   0.008  0.00  0.00    +0.001 A 
ATOM      2  C   UNL     1       1.168   1.795   0.001  0.00  0.00    +0.001 A 
ATOM      3  C   UNL     1      -0.013   1.076   0.008  0.00  0.00    +0.016 A 
ATOM      4  C   UNL     1      -1.209   1.761   0.017  0.00  0.00    +0.026 A 
ATOM      5  C   UNL     1      -1.267   3.165   0.031  0.00  0.00    +0.032 A 
ATOM      6  C   UNL     1      -0.046   3.866   0.024  0.00  0.00    +0.012 A 
ATOM      7  C   UNL     1      -2.523   3.926   0.048  0.00  0.00    +0.147 A 
ATOM      8  C   UNL     1      -3.790   3.454   0.050  0.00  0.00    +0.062 A 
ATOM      9  C   UNL     1      -4.146   2.077   0.048  0.00  0.00    +0.225 A 
ATOM     10  O   UNL     1      -5.307   1.704   0.055  0.00  0.00    -0.280 OA
ATOM     11  S   UNL     1      -2.779   0.933   0.033  0.00  0.00    -0.047 S 
ATOM     12  C   UNL     1      -4.968   4.408   0.055  0.00  0.00    +0.102 C 
ATOM     13  C   UNL     1      -4.557   5.754  -0.468  0.00  0.00    +0.098 C 
ATOM     14  C   UNL     1      -3.249   6.115  -0.435  0.00  0.00    +0.199 C 
ATOM     15  O   UNL     1      -2.329   5.282   0.068  0.00  0.00    -0.440 OA
ENDROOT
BRANCH  12  16
ATOM     16  C   UNL     1      -5.483   4.557   1.464  0.00  0.00    -0.034 A 
ATOM     17  C   UNL     1      -4.656   5.058   2.452  0.00  0.00    +0.005 A 
ATOM     18  C   UNL     1      -5.129   5.200   3.743  0.00  0.00    +0.015 A 
ATOM     19  C   UNL     1      -6.426   4.829   4.048  0.00  0.00    +0.018 A 
ATOM     20  C   UNL     1      -7.251   4.322   3.060  0.00  0.00    +0.015 A 
ATOM     21  C   UNL     1      -6.779   4.187   1.768  0.00  0.00    +0.005 A 
ATOM     22 BR   UNL     1      -7.071   5.015   5.816  0.00  0.00    -0.050 Br
ENDBRANCH  12  16
BRANCH  14  23
ATOM     23  N   UNL     1      -2.868   7.341  -0.919  0.00  0.00    -0.328 N 
ATOM     24  H   UNL     1      -1.934   7.602  -0.896  0.00  0.00    +0.145 HD
ATOM     25  H   UNL     1      -3.532   7.947  -1.284  0.00  0.00    +0.145 HD
ENDBRANCH  14  23
BRANCH  13  26
ATOM     26  C   UNL     1      -5.539   6.651  -0.999  0.00  0.00    +0.101 C 
ATOM     27  N   UNL     1      -6.317   7.363  -1.421  0.00  0.00    -0.191 NA
ENDBRANCH  13  26
TORSDOF 3
