REMARK  Name = ZINC14955271
REMARK  8 active torsions:
REMARK  status: ('A' for Active; 'I' for Inactive)
REMARK    1  A    between atoms: C_1  and  C_2
REMARK    2  A    between atoms: C_4  and  C_7
REMARK    3  A    between atoms: C_7  and  C_8
REMARK    4  A    between atoms: C_17  and  C_29
REMARK    5  A    between atoms: C_19  and  O_20
REMARK    6  A    between atoms: O_20  and  C_21
REMARK    7  A    between atoms: C_21  and  C_22
REMARK    8  A    between atoms: C_28  and  N_68
REMARK                            x       y       z     vdW  Elec       q    Type
REMARK                         _______ _______ _______ _____ _____    ______ ____
ROOT
ATOM      1  C   UNL     1       3.295  -5.098  -1.494  0.00  0.00    +0.222 C 
ATOM      2  O   UNL     1       3.748  -5.010  -2.615  0.00  0.00    -0.275 OA
ATOM      3  N   UNL     1       2.039  -4.679  -1.240  0.00  0.00    -0.293 N 
ATOM      4  C   UNL     1       1.496  -4.787   0.116  0.00  0.00    +0.149 C 
ATOM      5  C   UNL     1       1.185  -3.415   0.695  0.00  0.00    +0.248 C 
ATOM      6  O   UNL     1       0.195  -2.754  -0.101  0.00  0.00    -0.486 OA
ATOM      7  C   UNL     1       0.667  -1.998  -1.126  0.00  0.00    +0.167 A 
ATOM      8  C   UNL     1       1.251  -2.606  -2.226  0.00  0.00    +0.016 A 
ATOM      9  C   UNL     1       1.825  -1.852  -3.224  0.00  0.00    +0.017 A 
ATOM     10  C   UNL     1       1.786  -0.460  -3.148  0.00  0.00    -0.014 A 
ATOM     11  C   UNL     1       1.167   0.158  -2.063  0.00  0.00    +0.058 A 
ATOM     12  C   UNL     1       0.606  -0.608  -1.056  0.00  0.00    +0.163 A 
ATOM     13  C   UNL     1       1.213  -4.118  -2.328  0.00  0.00    +0.146 C 
ENDROOT
BRANCH  10  14
ATOM     14  C   UNL     1       2.401   0.361  -4.220  0.00  0.00    -0.016 A 
ATOM     15  C   UNL     1       3.025  -0.256  -5.303  0.00  0.00    +0.008 A 
ATOM     16  C   UNL     1       3.592   0.512  -6.300  0.00  0.00    +0.002 A 
ATOM     17  C   UNL     1       3.550   1.892  -6.221  0.00  0.00    +0.020 A 
ATOM     18  C   UNL     1       2.936   2.511  -5.146  0.00  0.00    +0.042 A 
ATOM     19  C   UNL     1       2.362   1.752  -4.145  0.00  0.00    +0.028 A 
ATOM     20 CL   UNL     1       2.889   4.244  -5.055  0.00  0.00    -0.084 Cl
ENDBRANCH  10  14
BRANCH   1  21
ATOM     21  C   UNL     1       4.136  -5.675  -0.385  0.00  0.00    +0.151 C 
BRANCH  21  25
ATOM     22  C   UNL     1       7.075  -8.135  -3.599  0.00  0.00    +0.073 C 
ATOM     23  C   UNL     1       6.761  -7.224  -2.441  0.00  0.00    +0.076 A 
ATOM     24  N   UNL     1       5.591  -6.878  -1.957  0.00  0.00    -0.249 NA
ATOM     25  C   UNL     1       5.487  -6.063  -0.928  0.00  0.00    +0.057 A 
ATOM     26  C   UNL     1       6.625  -5.576  -0.373  0.00  0.00    +0.070 A 
ATOM     27  S   UNL     1       7.856  -6.363  -1.403  0.00  0.00    -0.081 S 
ENDBRANCH  21  25
ENDBRANCH   1  21
BRANCH  12  28
ATOM     28  O   UNL     1       0.002  -0.004   0.002  0.00  0.00    -0.488 OA
BRANCH  28  29
ATOM     29  C   UNL     1      -0.017   1.425   0.010  0.00  0.00    +0.231 C 
BRANCH  29  30
ATOM     30  C   UNL     1      -0.733   1.918   1.269  0.00  0.00    +0.010 C 
ATOM     31  C   UNL     1      -0.646   3.445   1.341  0.00  0.00    +0.003 C 
ATOM     32  C   UNL     1      -1.416   3.935   2.571  0.00  0.00    -0.018 C 
ATOM     33  C   UNL     1      -2.867   3.456   2.482  0.00  0.00    -0.079 C 
ATOM     34  C   UNL     1      -2.204   1.498   1.218  0.00  0.00    -0.072 C 
ATOM     35  C   UNL     1      -4.277   1.488   2.469  0.00  0.00    -0.096 C 
ATOM     36  N   UNL     1      -2.883   1.979   2.440  0.00  0.00    +0.378 N 
ATOM     37  H   UNL     1      -2.385   1.616   3.261  0.00  0.00    -0.082 HD
ENDBRANCH  29  30
ENDBRANCH  28  29
ENDBRANCH  12  28
TORSDOF 6
