REMARK  Name = ZINC02663186
REMARK  7 active torsions:
REMARK  status: ('A' for Active; 'I' for Inactive)
REMARK    1  A    between atoms: C_1  and  C_2
REMARK    2  A    between atoms: C_7  and  C_9
REMARK    3  A    between atoms: C_7  and  C_10
REMARK    4  A    between atoms: N_13  and  C_17
REMARK    5  A    between atoms: C_17  and  C_18
REMARK    6  A    between atoms: N_20  and  C_21
REMARK    7  A    between atoms: C_24  and  C_28
REMARK                            x       y       z     vdW  Elec       q    Type
REMARK                         _______ _______ _______ _____ _____    ______ ____
ROOT
ATOM      1  C   UNL     1       0.060   1.387  -0.443  0.00  0.00    +0.007 C 
ATOM      2  C   UNL     1       0.119  -0.136  -0.307  0.00  0.00    -0.011 C 
ATOM      3  C   UNL     1      -1.299  -0.709  -0.370  0.00  0.00    +0.038 C 
ATOM      4  C   UNL     1      -1.243  -2.225  -0.214  0.00  0.00    +0.113 C 
ATOM      5  C   UNL     1      -0.590  -2.607   1.109  0.00  0.00    +0.041 C 
ATOM      6  C   UNL     1       0.826  -2.027   1.167  0.00  0.00    -0.032 C 
ATOM      7  C   UNL     1       0.757  -0.504   1.034  0.00  0.00    +0.009 C 
ATOM      8  C   UNL     1       1.473  -2.394   2.504  0.00  0.00    +0.011 C 
ATOM      9  C   UNL     1       1.661  -2.602   0.021  0.00  0.00    +0.011 C 
ATOM     10  C   UNL     1      -2.631  -2.817  -0.308  0.00  0.00    +0.247 C 
ATOM     11  O   UNL     1      -3.573  -2.599   0.423  0.00  0.00    -0.273 OA
ATOM     12  N   UNL     1      -2.600  -3.639  -1.377  0.00  0.00    -0.215 N 
ATOM     13  C   UNL     1      -1.395  -3.644  -1.961  0.00  0.00    +0.310 C 
ATOM     14  O   UNL     1      -1.123  -4.306  -2.943  0.00  0.00    -0.252 OA
ATOM     15  N   UNL     1      -0.520  -2.831  -1.339  0.00  0.00    -0.285 N 
ATOM     16  H   UNL     1       0.406  -2.677  -1.585  0.00  0.00    +0.151 HD
ENDROOT
BRANCH  12  17
ATOM     17  C   UNL     1      -3.743  -4.429  -1.842  0.00  0.00    +0.214 C 
BRANCH  17  18
ATOM     18  C   UNL     1      -4.537  -3.625  -2.839  0.00  0.00    +0.235 C 
ATOM     19  O   UNL     1      -4.184  -2.503  -3.133  0.00  0.00    -0.274 OA
ATOM     20  N   UNL     1      -5.641  -4.154  -3.404  0.00  0.00    -0.284 N 
ATOM     21  H   UNL     1      -5.967  -5.020  -3.114  0.00  0.00    +0.155 HD
BRANCH  20  22
ATOM     22  C   UNL     1      -6.315  -3.454  -4.406  0.00  0.00    +0.035 A 
ATOM     23  C   UNL     1      -5.599  -2.675  -5.310  0.00  0.00    +0.024 A 
ATOM     24  C   UNL     1      -6.259  -1.983  -6.300  0.00  0.00    +0.022 A 
ATOM     25  C   UNL     1      -7.652  -2.063  -6.397  0.00  0.00    +0.070 A 
ATOM     26  C   UNL     1      -8.368  -2.847  -5.487  0.00  0.00    +0.060 A 
ATOM     27  C   UNL     1      -7.699  -3.542  -4.502  0.00  0.00    +0.044 A 
ATOM     28 CL   UNL     1     -10.097  -2.951  -5.602  0.00  0.00    -0.082 Cl
BRANCH  25  29
ATOM     29  C   UNL     1      -8.342  -1.344  -7.425  0.00  0.00    +0.101 C 
ATOM     30  N   UNL     1      -8.890  -0.774  -8.241  0.00  0.00    -0.191 NA
ENDBRANCH  25  29
ENDBRANCH  20  22
ENDBRANCH  17  18
ENDBRANCH  12  17
TORSDOF 4
