REMARK  Name = ZINC09359301
REMARK  5 active torsions:
REMARK  status: ('A' for Active; 'I' for Inactive)
REMARK    1  A    between atoms: C_1  and  O_2
REMARK    2  A    between atoms: O_2  and  C_3
REMARK    3  A    between atoms: C_6  and  C_9
REMARK    4  A    between atoms: C_9  and  C_11
REMARK    5  A    between atoms: N_29  and  C_32
REMARK                            x       y       z     vdW  Elec       q    Type
REMARK                         _______ _______ _______ _____ _____    ______ ____
ROOT
ATOM      1  C   UNL     1      -2.116   1.666  -0.648  0.00  0.00    +0.141 C 
ATOM      2  C   UNL     1      -3.373   2.475  -0.269  0.00  0.00    +0.116 C 
ATOM      3  C   UNL     1      -2.795   3.774   0.373  0.00  0.00    +0.113 C 
ATOM      4  C   UNL     1      -1.432   3.351   0.914  0.00  0.00    +0.100 C 
ATOM      5  C   UNL     1       0.290   1.642   0.281  0.00  0.00    +0.054 C 
ATOM      6  C   UNL     1       1.274   2.554   0.410  0.00  0.00    +0.022 C 
ATOM      7  C   UNL     1       0.933   3.991   0.421  0.00  0.00    -0.019 A 
ATOM      8  C   UNL     1      -0.383   4.404   0.670  0.00  0.00    -0.021 A 
ATOM      9  C   UNL     1      -0.697   5.742   0.684  0.00  0.00    +0.006 A 
ATOM     10  C   UNL     1       0.288   6.687   0.449  0.00  0.00    +0.000 A 
ATOM     11  C   UNL     1       1.590   6.290   0.200  0.00  0.00    +0.001 A 
ATOM     12  C   UNL     1       1.919   4.950   0.184  0.00  0.00    +0.008 A 
ATOM     13  C   UNL     1      -2.640   4.678  -0.832  0.00  0.00    +0.232 C 
ATOM     14  O   UNL     1      -1.927   5.656  -0.899  0.00  0.00    -0.274 OA
ATOM     15  N   UNL     1      -3.429   4.210  -1.813  0.00  0.00    -0.210 N 
ATOM     16  C   UNL     1      -3.987   3.019  -1.548  0.00  0.00    +0.232 C 
ATOM     17  O   UNL     1      -4.838   2.471  -2.216  0.00  0.00    -0.274 OA
ATOM     18  N   UNL     1      -1.173   2.007   0.469  0.00  0.00    -0.384 NA
ATOM     19  H   UNL     1      -1.470   1.414   1.253  0.00  0.00    +0.127 HD
ENDROOT
BRANCH  15  20
ATOM     20  C   UNL     1      -3.649   4.906  -3.010  0.00  0.00    +0.044 A 
ATOM     21  C   UNL     1      -2.606   5.097  -3.906  0.00  0.00    +0.025 A 
ATOM     22  C   UNL     1      -2.827   5.778  -5.087  0.00  0.00    +0.022 A 
ATOM     23  C   UNL     1      -4.085   6.280  -5.373  0.00  0.00    +0.041 A 
ATOM     24  C   UNL     1      -5.125   6.096  -4.478  0.00  0.00    +0.022 A 
ATOM     25  C   UNL     1      -4.910   5.411  -3.299  0.00  0.00    +0.025 A 
ATOM     26 CL   UNL     1      -4.358   7.142  -6.854  0.00  0.00    -0.084 Cl
ENDBRANCH  15  20
BRANCH   1  27
ATOM     27  C   UNL     1      -1.796   1.874  -2.106  0.00  0.00    +0.183 C 
ATOM     28  O   UNL     1      -0.869   2.586  -2.428  0.00  0.00    -0.290 OA
BRANCH  27  32
ATOM     29  C   UNL     1      -4.135  -0.030  -5.080  0.00  0.00    +0.120 A 
ATOM     30  C   UNL     1      -3.072   0.786  -5.451  0.00  0.00    +0.046 A 
ATOM     31  C   UNL     1      -2.312   1.405  -4.492  0.00  0.00    +0.015 A 
ATOM     32  C   UNL     1      -2.607   1.213  -3.137  0.00  0.00    +0.019 A 
ATOM     33  C   UNL     1      -3.675   0.386  -2.768  0.00  0.00    +0.015 A 
ATOM     34  C   UNL     1      -4.432  -0.223  -3.735  0.00  0.00    +0.046 A 
BRANCH  29  36
ATOM     35  C   UNL     1      -5.961  -1.464  -5.581  0.00  0.00    +0.277 C 
ATOM     36  O   UNL     1      -4.884  -0.640  -6.032  0.00  0.00    -0.495 OA
ENDBRANCH  29  36
ENDBRANCH  27  32
ENDBRANCH   1  27
TORSDOF 4
