REMARK  Name = ZINC63572230
REMARK  7 active torsions:
REMARK  status: ('A' for Active; 'I' for Inactive)
REMARK    1  A    between atoms: C_1  and  C_2
REMARK    2  A    between atoms: C_5  and  O_35
REMARK    3  A    between atoms: C_6  and  N_8
REMARK    4  A    between atoms: C_24  and  C_26
REMARK    5  A    between atoms: C_29  and  O_32
REMARK    6  A    between atoms: O_32  and  C_33
REMARK    7  A    between atoms: O_35  and  C_36
REMARK                            x       y       z     vdW  Elec       q    Type
REMARK                         _______ _______ _______ _____ _____    ______ ____
ROOT
ATOM      1  N   UNL     1      -1.719  -2.838   2.995  0.00  0.00    -0.266 N 
ATOM      2  C   UNL     1      -1.014  -2.164   3.926  0.00  0.00    +0.307 C 
ATOM      3  O   UNL     1      -0.927  -0.953   3.864  0.00  0.00    -0.252 OA
ATOM      4  N   UNL     1      -0.406  -2.834   4.925  0.00  0.00    -0.276 N 
ATOM      5  C   UNL     1      -0.409  -4.300   4.923  0.00  0.00    +0.114 C 
ATOM      6  C   UNL     1       1.041  -4.816   4.947  0.00  0.00    +0.052 C 
ATOM      7  C   UNL     1       1.770  -4.009   5.993  0.00  0.00    -0.035 C 
ATOM      8  C   UNL     1       2.511  -4.380   7.029  0.00  0.00    +0.001 A 
ATOM      9  C   UNL     1       2.983  -5.702   7.473  0.00  0.00    +0.030 A 
ATOM     10  C   UNL     1       3.724  -5.722   8.614  0.00  0.00    +0.042 A 
ATOM     11  C   UNL     1       4.037  -4.573   9.349  0.00  0.00    +0.022 A 
ATOM     12  C   UNL     1       3.651  -3.318   9.010  0.00  0.00    +0.027 A 
ATOM     13  C   UNL     1       2.875  -3.167   7.824  0.00  0.00    +0.043 A 
ATOM     14  N   UNL     1       2.399  -2.096   7.261  0.00  0.00    -0.375 N 
ATOM     15  C   UNL     1       1.733  -2.485   6.017  0.00  0.00    +0.131 C 
ATOM     16  C   UNL     1       0.259  -2.086   6.003  0.00  0.00    +0.134 C 
ATOM     17 CL   UNL     1       4.310  -7.253   9.188  0.00  0.00    -0.084 Cl
ATOM     18  H   UNL     1      -1.849  -3.795   3.083  0.00  0.00    +0.156 HD
ATOM     19  H   UNL     1       2.473  -1.192   7.606  0.00  0.00    +0.160 HD
ENDROOT
BRANCH   1  25
ATOM     20  C   UNL     1      -3.551   1.301   1.072  0.00  0.00    +0.044 C 
ATOM     21  C   UNL     1      -3.162  -0.149   0.939  0.00  0.00    -0.048 A 
ATOM     22  C   UNL     1      -3.344  -0.804  -0.265  0.00  0.00    +0.007 A 
ATOM     23  C   UNL     1      -2.988  -2.134  -0.393  0.00  0.00    +0.048 A 
ATOM     24  C   UNL     1      -2.448  -2.814   0.686  0.00  0.00    +0.141 A 
ATOM     25  C   UNL     1      -2.265  -2.155   1.899  0.00  0.00    +0.077 A 
ATOM     26  C   UNL     1      -2.618  -0.819   2.018  0.00  0.00    +0.030 A 
BRANCH  24  27
ATOM     27  O   UNL     1      -2.099  -4.122   0.562  0.00  0.00    -0.493 OA
ATOM     28  C   UNL     1      -2.316  -4.734  -0.711  0.00  0.00    +0.277 C 
ENDBRANCH  24  27
ENDBRANCH   1  25
BRANCH  16  29
ATOM     29  C   UNL     1       0.137  -0.605   5.748  0.00  0.00    -0.024 A 
ATOM     30  C   UNL     1       0.899  -0.010   4.759  0.00  0.00    +0.009 A 
ATOM     31  C   UNL     1       0.789   1.346   4.524  0.00  0.00    +0.046 A 
ATOM     32  C   UNL     1      -0.087   2.112   5.279  0.00  0.00    +0.120 A 
ATOM     33  C   UNL     1      -0.851   1.512   6.270  0.00  0.00    +0.046 A 
ATOM     34  C   UNL     1      -0.741   0.154   6.499  0.00  0.00    +0.009 A 
BRANCH  32  35
ATOM     35  O   UNL     1      -0.197   3.447   5.050  0.00  0.00    -0.495 OA
ATOM     36  C   UNL     1      -1.119   4.172   5.866  0.00  0.00    +0.277 C 
ENDBRANCH  32  35
ENDBRANCH  16  29
TORSDOF 4
