REMARK  Name = ZINC14792399
REMARK  8 active torsions:
REMARK  status: ('A' for Active; 'I' for Inactive)
REMARK    1  A    between atoms: C_1  and  C_2
REMARK    2  A    between atoms: C_4  and  C_34
REMARK    3  A    between atoms: C_5  and  C_33
REMARK    4  A    between atoms: C_6  and  S_9
REMARK    5  A    between atoms: C_7  and  C_8
REMARK    6  A    between atoms: S_9  and  N_12
REMARK    7  A    between atoms: C_15  and  C_18
REMARK    8  A    between atoms: N_20  and  N_21
REMARK                            x       y       z     vdW  Elec       q    Type
REMARK                         _______ _______ _______ _____ _____    ______ ____
ROOT
ATOM      1  N   UNL     1       0.693   2.103  -0.458  0.00  0.00    -0.177 NA
ATOM      2  C   UNL     1      -0.635   1.904  -1.055  0.00  0.00    +0.110 C 
ATOM      3  C   UNL     1      -0.874   0.401  -1.233  0.00  0.00    +0.030 C 
ATOM      4  C   UNL     1      -0.676  -0.306   0.110  0.00  0.00    +0.079 C 
ATOM      5  C   UNL     1       0.762  -0.099   0.590  0.00  0.00    +0.030 C 
ATOM      6  C   UNL     1       1.020   1.398   0.788  0.00  0.00    +0.110 C 
ENDROOT
BRANCH   4   7
ATOM      7  C   UNL     1      -0.945  -1.780  -0.054  0.00  0.00    +0.233 C 
ATOM      8  O   UNL     1      -1.262  -2.221  -1.138  0.00  0.00    -0.274 OA
ATOM      9  N   UNL     1      -0.831  -2.607   1.004  0.00  0.00    -0.223 N 
ATOM     10  H   UNL     1      -0.577  -2.254   1.870  0.00  0.00    +0.174 HD
BRANCH   9  11
ATOM     11  N   UNL     1      -1.080  -3.977   0.851  0.00  0.00    -0.137 N 
ATOM     12  C   UNL     1      -2.193  -4.599   1.292  0.00  0.00    +0.263 C 
ATOM     13  O   UNL     1      -3.132  -4.099   1.873  0.00  0.00    -0.271 OA
ATOM     14  C   UNL     1      -2.025  -6.050   0.905  0.00  0.00    +0.114 C 
ATOM     15  C   UNL     1      -2.018  -6.930   2.151  0.00  0.00    +0.035 C 
ATOM     16  C   UNL     1      -1.808  -8.391   1.744  0.00  0.00    +0.003 C 
ATOM     17  C   UNL     1      -2.932  -8.822   0.799  0.00  0.00    +0.000 C 
ATOM     18  C   UNL     1      -2.913  -7.945  -0.454  0.00  0.00    +0.003 C 
ATOM     19  C   UNL     1      -3.127  -6.483  -0.055  0.00  0.00    +0.035 C 
ATOM     20  N   UNL     1      -0.717  -6.092   0.239  0.00  0.00    -0.284 N 
ATOM     21  C   UNL     1      -0.241  -4.833   0.255  0.00  0.00    +0.326 C 
ATOM     22  O   UNL     1       0.831  -4.509  -0.219  0.00  0.00    -0.251 OA
ATOM     23  H   UNL     1      -0.281  -6.873  -0.138  0.00  0.00    +0.151 HD
ENDBRANCH   9  11
ENDBRANCH   4   7
BRANCH   1  24
ATOM     24  S   UNL     1       1.799   3.105  -1.176  0.00  0.00    +0.061 S 
ATOM     25  O   UNL     1       3.080   2.677  -0.736  0.00  0.00    -0.153 OA
ATOM     26  O   UNL     1       1.450   3.175  -2.552  0.00  0.00    -0.153 OA
BRANCH  24  32
ATOM     27  C   UNL     1       3.061   6.948   2.135  0.00  0.00    +0.044 C 
ATOM     28  C   UNL     1       2.172   6.444   1.027  0.00  0.00    -0.045 A 
ATOM     29  C   UNL     1       1.161   7.248   0.533  0.00  0.00    +0.007 A 
ATOM     30  C   UNL     1       0.345   6.786  -0.483  0.00  0.00    -0.045 A 
ATOM     31  C   UNL     1       0.540   5.521  -1.005  0.00  0.00    -0.021 A 
ATOM     32  C   UNL     1       1.551   4.718  -0.511  0.00  0.00    +0.112 A 
ATOM     33  C   UNL     1       2.364   5.177   0.508  0.00  0.00    -0.021 A 
ATOM     34  C   UNL     1       3.462   4.299   1.051  0.00  0.00    +0.046 C 
ATOM     35  C   UNL     1      -0.350   5.017  -2.112  0.00  0.00    +0.046 C 
ATOM     36  C   UNL     1      -0.756   7.662  -1.021  0.00  0.00    +0.044 C 
ENDBRANCH  24  32
ENDBRANCH   1  24
TORSDOF 4
