REMARK  Name = ZINC67371829
REMARK  6 active torsions:
REMARK  status: ('A' for Active; 'I' for Inactive)
REMARK    1  A    between atoms: C_1  and  C_2
REMARK    2  A    between atoms: C_2  and  C_4
REMARK    3  A    between atoms: C_2  and  N_14
REMARK    4  A    between atoms: C_8  and  S_10
REMARK    5  A    between atoms: S_10  and  N_13
REMARK    6  A    between atoms: N_14  and  C_15
REMARK                            x       y       z     vdW  Elec       q    Type
REMARK                         _______ _______ _______ _____ _____    ______ ____
ROOT
ATOM      1  C   UNL     1       0.848  -1.012   1.032  0.00  0.00    -0.025 A 
ATOM      2  C   UNL     1       2.228  -0.953   1.110  0.00  0.00    +0.005 A 
ATOM      3  C   UNL     1       2.901  -1.736   2.029  0.00  0.00    +0.002 A 
ATOM      4  C   UNL     1       2.196  -2.578   2.869  0.00  0.00    +0.028 A 
ATOM      5  C   UNL     1       0.817  -2.636   2.791  0.00  0.00    +0.105 A 
ATOM      6  C   UNL     1       0.143  -1.849   1.875  0.00  0.00    +0.034 A 
ENDROOT
BRANCH   5   7
ATOM      7  S   UNL     1      -0.082  -3.708   3.861  0.00  0.00    +0.056 S 
ATOM      8  O   UNL     1      -1.318  -3.982   3.217  0.00  0.00    -0.153 OA
ATOM      9  O   UNL     1       0.817  -4.737   4.253  0.00  0.00    -0.153 OA
BRANCH   7  10
ATOM     10  N   UNL     1      -0.441  -2.847   5.229  0.00  0.00    -0.204 NA
ATOM     11  H   UNL     1      -0.154  -1.924   5.310  0.00  0.00    +0.144 HD
ATOM     12  H   UNL     1      -0.938  -3.265   5.949  0.00  0.00    +0.144 HD
ENDBRANCH   7  10
ENDBRANCH   5   7
BRANCH   1  14
ATOM     13  C   UNL     1       0.303   1.319   0.383  0.00  0.00    +0.033 C 
ATOM     14  C   UNL     1       0.114  -0.158   0.030  0.00  0.00    +0.103 C 
BRANCH  14  15
ATOM     15  N   UNL     1       0.645  -0.412  -1.311  0.00  0.00    -0.296 N 
ATOM     16  C   UNL     1       2.024  -0.036  -1.636  0.00  0.00    +0.133 C 
ATOM     17  C   UNL     1      -0.155  -1.007  -2.272  0.00  0.00    +0.218 A 
ATOM     18  N   UNL     1      -1.400  -1.336  -1.962  0.00  0.00    -0.222 NA
ATOM     19  C   UNL     1      -2.191  -1.906  -2.856  0.00  0.00    +0.131 A 
ATOM     20  C   UNL     1      -1.702  -2.158  -4.129  0.00  0.00    +0.054 A 
ATOM     21  C   UNL     1      -0.393  -1.801  -4.419  0.00  0.00    +0.131 A 
ATOM     22  N   UNL     1       0.342  -1.230  -3.479  0.00  0.00    -0.222 NA
ATOM     23 BR   UNL     1      -2.794  -2.971  -5.441  0.00  0.00    -0.047 Br
ENDBRANCH  14  15
ENDBRANCH   1  14
TORSDOF 4
