REMARK  Name = ZINC34934613
REMARK  11 active torsions:
REMARK  status: ('A' for Active; 'I' for Inactive)
REMARK    1  A    between atoms: C_1  and  C_2
REMARK    2  A    between atoms: C_2  and  C_3
REMARK    3  A    between atoms: C_2  and  C_4
REMARK    4  A    between atoms: C_4  and  C_6
REMARK    5  A    between atoms: C_4  and  N_19
REMARK    6  A    between atoms: N_8  and  C_9
REMARK    7  A    between atoms: C_9  and  C_10
REMARK    8  A    between atoms: C_10  and  C_11
REMARK    9  A    between atoms: N_22  and  C_23
REMARK   10  A    between atoms: C_26  and  O_29
REMARK   11  A    between atoms: O_29  and  C_30
REMARK                            x       y       z     vdW  Elec       q    Type
REMARK                         _______ _______ _______ _____ _____    ______ ____
ROOT
ATOM      1  C   UNL     1       0.654  -0.729   1.087  0.00  0.00    +0.163 C 
ENDROOT
BRANCH   1   2
ATOM      2  N   UNL     1       0.793  -2.160   1.367  0.00  0.00    -0.288 N 
ATOM      3  C   UNL     1      -0.258  -2.859   1.839  0.00  0.00    +0.304 C 
ATOM      4  O   UNL     1      -1.321  -2.302   2.032  0.00  0.00    -0.252 OA
ATOM      5  N   UNL     1      -0.131  -4.176   2.096  0.00  0.00    -0.269 N 
ATOM      6  H   UNL     1       1.641  -2.604   1.213  0.00  0.00    +0.151 HD
ATOM      7  H   UNL     1       0.736  -4.604   2.016  0.00  0.00    +0.156 HD
BRANCH   5   8
ATOM      8  C   UNL     1      -1.250  -4.926   2.481  0.00  0.00    +0.035 A 
ATOM      9  C   UNL     1      -1.098  -6.019   3.324  0.00  0.00    +0.027 A 
ATOM     10  C   UNL     1      -2.201  -6.758   3.703  0.00  0.00    +0.047 A 
ATOM     11  C   UNL     1      -3.462  -6.408   3.241  0.00  0.00    +0.120 A 
ATOM     12  C   UNL     1      -3.615  -5.317   2.399  0.00  0.00    +0.047 A 
ATOM     13  C   UNL     1      -2.513  -4.574   2.024  0.00  0.00    +0.027 A 
BRANCH  11  14
ATOM     14  O   UNL     1      -4.548  -7.136   3.615  0.00  0.00    -0.495 OA
ATOM     15  C   UNL     1      -5.816  -6.719   3.103  0.00  0.00    +0.277 C 
ENDBRANCH  11  14
ENDBRANCH   5   8
ENDBRANCH   1   2
BRANCH   1  16
ATOM     16  C   UNL     1       2.005  -0.067   1.175  0.00  0.00    +0.234 C 
ATOM     17  O   UNL     1       3.014  -0.740   1.142  0.00  0.00    -0.274 OA
ATOM     18  N   UNL     1       2.093   1.273   1.290  0.00  0.00    -0.313 N 
ATOM     19  H   UNL     1       1.291   1.818   1.243  0.00  0.00    +0.149 HD
BRANCH  18  20
ATOM     20  C   UNL     1       3.399   1.908   1.486  0.00  0.00    +0.109 C 
BRANCH  20  21
ATOM     21  C   UNL     1       3.219   3.424   1.585  0.00  0.00    +0.055 C 
BRANCH  21  22
ATOM     22  C   UNL     1       4.562   4.077   1.787  0.00  0.00    -0.027 A 
ATOM     23  C   UNL     1       5.003   4.372   3.063  0.00  0.00    +0.006 A 
ATOM     24  C   UNL     1       6.235   4.970   3.249  0.00  0.00    +0.020 A 
ATOM     25  C   UNL     1       7.028   5.274   2.157  0.00  0.00    +0.042 A 
ATOM     26  C   UNL     1       6.588   4.979   0.879  0.00  0.00    +0.040 A 
ATOM     27  C   UNL     1       5.357   4.376   0.694  0.00  0.00    +0.046 A 
ATOM     28 CL   UNL     1       4.807   3.999  -0.908  0.00  0.00    -0.083 Cl
ATOM     29 CL   UNL     1       8.575   6.027   2.390  0.00  0.00    -0.083 Cl
ENDBRANCH  21  22
ENDBRANCH  20  21
ENDBRANCH  18  20
ENDBRANCH   1  16
BRANCH   1  31
ATOM     30  C   UNL     1       0.955  -1.285  -1.330  0.00  0.00    +0.009 C 
ATOM     31  C   UNL     1       0.083  -0.537  -0.319  0.00  0.00    +0.012 C 
ATOM     32  C   UNL     1      -1.343  -1.088  -0.370  0.00  0.00    +0.009 C 
ENDBRANCH   1  31
TORSDOF 8
