REMARK  Name = ZINC13564715
REMARK  6 active torsions:
REMARK  status: ('A' for Active; 'I' for Inactive)
REMARK    1  A    between atoms: C_4  and  N_7
REMARK    2  A    between atoms: C_12  and  C_24
REMARK    3  A    between atoms: C_15  and  C_17
REMARK    4  A    between atoms: C_24  and  N_25
REMARK    5  A    between atoms: N_25  and  C_26
REMARK    6  A    between atoms: C_26  and  C_27
REMARK                            x       y       z     vdW  Elec       q    Type
REMARK                         _______ _______ _______ _____ _____    ______ ____
ROOT
ATOM      1  N   UNL     1       3.620  -0.651  -0.053  0.00  0.00    -0.215 N 
ATOM      2  C   UNL     1       3.784  -2.016   0.061  0.00  0.00    +0.145 A 
ATOM      3  N   UNL     1       2.928  -3.013   0.191  0.00  0.00    -0.307 N 
ATOM      4  C   UNL     1       3.343  -4.278   0.285  0.00  0.00    +0.252 A 
ATOM      5  O   UNL     1       2.518  -5.174   0.405  0.00  0.00    -0.268 OA
ATOM      6  C   UNL     1       4.715  -4.600   0.249  0.00  0.00    +0.001 A 
ATOM      7  C   UNL     1       5.634  -3.605   0.116  0.00  0.00    +0.020 A 
ATOM      8  C   UNL     1       5.175  -2.275   0.018  0.00  0.00    +0.045 A 
ATOM      9  C   UNL     1       5.831  -1.039  -0.123  0.00  0.00    +0.102 A 
ATOM     10  N   UNL     1       4.885  -0.062  -0.172  0.00  0.00    -0.164 NA
ATOM     11  H   UNL     1       1.978  -2.822   0.220  0.00  0.00    +0.170 HD
ENDROOT
BRANCH   9  12
ATOM     12  C   UNL     1       7.285  -0.837  -0.209  0.00  0.00    +0.003 A 
ATOM     13  C   UNL     1       7.904   0.159   0.556  0.00  0.00    +0.013 A 
ATOM     14  C   UNL     1       9.266   0.342   0.471  0.00  0.00    +0.039 A 
ATOM     15  C   UNL     1      10.025  -0.458  -0.371  0.00  0.00    +0.123 A 
ATOM     16  C   UNL     1       9.419  -1.446  -1.133  0.00  0.00    +0.039 A 
ATOM     17  C   UNL     1       8.058  -1.644  -1.053  0.00  0.00    +0.013 A 
ATOM     18  F   UNL     1      11.361  -0.273  -0.450  0.00  0.00    -0.205 F 
ENDBRANCH   9  12
BRANCH   1  22
ATOM     19  C   UNL     1      -0.021   1.372  -0.062  0.00  0.00    +0.000 A 
ATOM     20  C   UNL     1       0.935   1.668  -1.016  0.00  0.00    +0.002 A 
ATOM     21  C   UNL     1       2.144   0.999  -1.016  0.00  0.00    +0.028 A 
ATOM     22  C   UNL     1       2.398   0.028  -0.056  0.00  0.00    +0.068 A 
ATOM     23  C   UNL     1       1.436  -0.266   0.901  0.00  0.00    +0.028 A 
ATOM     24  C   UNL     1       0.229   0.406   0.895  0.00  0.00    +0.002 A 
ENDBRANCH   1  22
BRANCH   6  25
ATOM     25  C   UNL     1       5.161  -6.035   0.357  0.00  0.00    -0.041 C 
BRANCH  25  26
ATOM     26  N   UNL     1       5.256  -6.413   1.773  0.00  0.00    +0.384 N 
ATOM     27  H   UNL     1       5.926  -5.817   2.236  0.00  0.00    -0.085 HD
ATOM     28  H   UNL     1       4.354  -6.308   2.211  0.00  0.00    -0.085 HD
BRANCH  26  29
ATOM     29  C   UNL     1       5.691  -7.813   1.878  0.00  0.00    -0.046 C 
BRANCH  29  30
ATOM     30  C   UNL     1       5.789  -8.200   3.331  0.00  0.00    -0.064 A 
ATOM     31  C   UNL     1       6.975  -8.017   4.017  0.00  0.00    +0.003 A 
ATOM     32  C   UNL     1       7.065  -8.372   5.349  0.00  0.00    +0.020 A 
ATOM     33  C   UNL     1       5.968  -8.912   5.997  0.00  0.00    +0.041 A 
ATOM     34  C   UNL     1       4.781  -9.096   5.310  0.00  0.00    +0.020 A 
ATOM     35  C   UNL     1       4.691  -8.735   3.979  0.00  0.00    +0.003 A 
ATOM     36 CL   UNL     1       6.081  -9.359   7.671  0.00  0.00    -0.084 Cl
ENDBRANCH  29  30
ENDBRANCH  26  29
ENDBRANCH  25  26
ENDBRANCH   6  25
TORSDOF 6
