REMARK  Name = ZINC67225276
REMARK  6 active torsions:
REMARK  status: ('A' for Active; 'I' for Inactive)
REMARK    1  A    between atoms: C_1  and  C_2
REMARK    2  A    between atoms: C_3  and  C_30
REMARK    3  A    between atoms: N_19  and  C_20
REMARK    4  A    between atoms: C_20  and  C_21
REMARK    5  A    between atoms: N_32  and  C_33
REMARK    6  A    between atoms: N_32  and  C_34
REMARK                            x       y       z     vdW  Elec       q    Type
REMARK                         _______ _______ _______ _____ _____    ______ ____
ROOT
ATOM      1  C   UNL     1       1.100   1.536  -0.605  0.00  0.00    +0.079 C 
ATOM      2  C   UNL     1       0.473   0.211  -0.166  0.00  0.00    +0.190 C 
ATOM      3  C   UNL     1       0.432  -0.753  -1.359  0.00  0.00    +0.162 C 
ATOM      4  C   UNL     1      -0.324  -2.008  -0.892  0.00  0.00    +0.123 C 
ATOM      5  C   UNL     1       0.356  -2.535   0.352  0.00  0.00    +0.018 A 
ATOM      6  C   UNL     1       0.209  -3.871   0.680  0.00  0.00    +0.029 A 
ATOM      7  C   UNL     1       0.814  -4.378   1.815  0.00  0.00    +0.043 A 
ATOM      8  C   UNL     1       1.568  -3.547   2.625  0.00  0.00    +0.043 A 
ATOM      9  C   UNL     1       1.718  -2.214   2.299  0.00  0.00    +0.084 A 
ATOM     10  C   UNL     1       1.112  -1.701   1.154  0.00  0.00    +0.147 A 
ATOM     11  O   UNL     1       1.269  -0.369   0.864  0.00  0.00    -0.466 OA
ATOM     12 CL   UNL     1       2.664  -1.175   3.318  0.00  0.00    -0.080 Cl
ATOM     13 CL   UNL     1       0.628  -6.055   2.224  0.00  0.00    -0.083 Cl
ATOM     14  N   UNL     1      -1.688  -1.594  -0.525  0.00  0.00    -0.318 N 
ATOM     15  C   UNL     1      -1.886  -0.409   0.077  0.00  0.00    +0.137 C 
ATOM     16  S   UNL     1      -3.470   0.009   0.575  0.00  0.00    -0.019 S 
ATOM     17  N   UNL     1      -0.889   0.451   0.302  0.00  0.00    -0.270 N 
ATOM     18  H   UNL     1      -2.442  -2.173  -0.719  0.00  0.00    +0.148 HD
ENDROOT
BRANCH   3  19
ATOM     19  C   UNL     1      -0.294  -0.113  -2.514  0.00  0.00    +0.226 C 
ATOM     20  O   UNL     1      -1.094   0.776  -2.310  0.00  0.00    -0.275 OA
ATOM     21  N   UNL     1      -0.054  -0.527  -3.774  0.00  0.00    -0.307 N 
ATOM     22  C   UNL     1      -0.760   0.096  -4.897  0.00  0.00    +0.131 C 
ATOM     23  C   UNL     1       0.912  -1.599  -4.021  0.00  0.00    +0.131 C 
ENDBRANCH   3  19
BRANCH  17  24
ATOM     24  C   UNL     1      -1.180   1.681   1.042  0.00  0.00    +0.145 C 
BRANCH  24  25
ATOM     25  C   UNL     1      -0.878   1.472   2.504  0.00  0.00    -0.026 A 
ATOM     26  C   UNL     1      -1.861   0.991   3.349  0.00  0.00    +0.009 A 
ATOM     27  C   UNL     1      -1.590   0.796   4.690  0.00  0.00    +0.050 A 
ATOM     28  C   UNL     1      -0.330   1.083   5.191  0.00  0.00    +0.166 A 
ATOM     29  C   UNL     1       0.660   1.568   4.340  0.00  0.00    +0.167 A 
ATOM     30  C   UNL     1       0.382   1.755   2.996  0.00  0.00    +0.054 A 
ATOM     31  O   UNL     1       1.798   1.770   5.066  0.00  0.00    -0.453 OA
ATOM     32  C   UNL     1       1.377   1.794   6.443  0.00  0.00    +0.466 C 
ATOM     33  O   UNL     1       0.188   0.983   6.450  0.00  0.00    -0.453 OA
ENDBRANCH  24  25
ENDBRANCH  17  24
TORSDOF 3
