REMARK  Name = ZINC57724713
REMARK  7 active torsions:
REMARK  status: ('A' for Active; 'I' for Inactive)
REMARK    1  A    between atoms: C_1  and  N_2
REMARK    2  A    between atoms: N_2  and  C_3
REMARK    3  A    between atoms: N_2  and  C_4
REMARK    4  A    between atoms: C_7  and  C_10
REMARK    5  A    between atoms: C_10  and  C_12
REMARK    6  A    between atoms: C_10  and  C_21
REMARK    7  A    between atoms: C_12  and  C_13
REMARK                            x       y       z     vdW  Elec       q    Type
REMARK                         _______ _______ _______ _____ _____    ______ ____
ROOT
ATOM      1  C   UNL     1      -0.006  -2.813  -4.924  0.00  0.00    +0.126 C 
ENDROOT
BRANCH   1   5
ATOM      2  C   UNL     1       0.000  -0.696  -1.211  0.00  0.00    +0.029 A 
ATOM      3  C   UNL     1       0.013  -2.085  -1.221  0.00  0.00    +0.023 A 
ATOM      4  C   UNL     1       0.010  -2.766  -2.422  0.00  0.00    +0.007 A 
ATOM      5  C   UNL     1      -0.005  -2.066  -3.615  0.00  0.00    -0.030 A 
ATOM      6  C   UNL     1      -0.018  -0.684  -3.609  0.00  0.00    +0.007 A 
ATOM      7  C   UNL     1      -0.021   0.004  -2.411  0.00  0.00    +0.023 A 
BRANCH   2   9
ATOM      8  C   UNL     1      -0.018   1.461   0.010  0.00  0.00    +0.129 C 
ATOM      9  N   UNL     1       0.002  -0.004   0.002  0.00  0.00    -0.336 N 
ATOM     10  C   UNL     1       0.024  -0.743   1.267  0.00  0.00    +0.129 C 
ENDBRANCH   2   9
ENDBRANCH   1   5
BRANCH   1  11
ATOM     11  C   UNL     1       1.187  -2.441  -5.702  0.00  0.00    +0.071 C 
ATOM     12  N   UNL     1       2.107  -2.155  -6.303  0.00  0.00    -0.196 NA
ENDBRANCH   1  11
BRANCH   1  13
ATOM     13  C   UNL     1      -1.265  -2.451  -5.716  0.00  0.00    +0.061 C 
BRANCH  13  14
ATOM     14  C   UNL     1      -1.329  -3.288  -6.968  0.00  0.00    -0.009 A 
ATOM     15  C   UNL     1      -0.739  -2.835  -8.134  0.00  0.00    +0.046 A 
ATOM     16  C   UNL     1      -0.798  -3.604  -9.283  0.00  0.00    +0.020 A 
ATOM     17  C   UNL     1      -1.447  -4.824  -9.265  0.00  0.00    +0.003 A 
ATOM     18  C   UNL     1      -2.036  -5.277  -8.100  0.00  0.00    +0.020 A 
ATOM     19  C   UNL     1      -1.973  -4.512  -6.949  0.00  0.00    +0.046 A 
ATOM     20 CL   UNL     1      -2.707  -5.085  -5.484  0.00  0.00    -0.083 Cl
ATOM     21 CL   UNL     1       0.075  -1.302  -8.156  0.00  0.00    -0.083 Cl
ENDBRANCH  13  14
ENDBRANCH   1  13
TORSDOF 5
