REMARK  Name = ZINC14684625
REMARK  10 active torsions:
REMARK  status: ('A' for Active; 'I' for Inactive)
REMARK    1  A    between atoms: C_3  and  O_35
REMARK    2  A    between atoms: C_4  and  O_34
REMARK    3  A    between atoms: C_6  and  C_7
REMARK    4  A    between atoms: C_8  and  O_20
REMARK    5  A    between atoms: C_12  and  O_19
REMARK    6  A    between atoms: C_14  and  O_18
REMARK    7  A    between atoms: O_20  and  C_21
REMARK    8  A    between atoms: C_23  and  O_33
REMARK    9  A    between atoms: C_25  and  O_32
REMARK   10  A    between atoms: C_27  and  O_31
REMARK                            x       y       z     vdW  Elec       q    Type
REMARK                         _______ _______ _______ _____ _____    ______ ____
ROOT
ATOM      1  C   UNL     1       3.654   2.168  -0.040  0.00  0.00    +0.181 A 
ATOM      2  C   UNL     1       3.605   3.528  -0.116  0.00  0.00    +0.214 A 
ATOM      3  C   UNL     1       4.814   4.271  -0.103  0.00  0.00    +0.238 A 
ATOM      4  O   UNL     1       4.810   5.490  -0.169  0.00  0.00    -0.283 OA
ATOM      5  C   UNL     1       6.073   3.515  -0.006  0.00  0.00    +0.109 A 
ATOM      6  C   UNL     1       7.313   4.167   0.013  0.00  0.00    +0.135 A 
ATOM      7  C   UNL     1       8.473   3.421   0.106  0.00  0.00    +0.091 A 
ATOM      8  C   UNL     1       8.408   2.034   0.179  0.00  0.00    +0.124 A 
ATOM      9  C   UNL     1       7.185   1.382   0.160  0.00  0.00    +0.092 A 
ATOM     10  C   UNL     1       6.010   2.112   0.068  0.00  0.00    +0.147 A 
ATOM     11  O   UNL     1       4.812   1.492   0.054  0.00  0.00    -0.451 OA
ENDROOT
BRANCH   1  17
ATOM     12  C   UNL     1       1.417   1.689  -1.018  0.00  0.00    +0.015 A 
ATOM     13  C   UNL     1       0.234   0.980  -1.029  0.00  0.00    +0.050 A 
ATOM     14  C   UNL     1       0.006  -0.010  -0.085  0.00  0.00    +0.158 A 
ATOM     15  C   UNL     1       0.971  -0.293   0.881  0.00  0.00    +0.159 A 
ATOM     16  C   UNL     1       2.158   0.413   0.898  0.00  0.00    +0.060 A 
ATOM     17  C   UNL     1       2.389   1.411  -0.054  0.00  0.00    +0.025 A 
BRANCH  15  18
ATOM     18  O   UNL     1       0.744  -1.264   1.805  0.00  0.00    -0.503 OA
ATOM     19  H   UNL     1       1.042  -2.143   1.534  0.00  0.00    +0.292 HD
ENDBRANCH  15  18
BRANCH  14  20
ATOM     20  O   UNL     1      -1.161  -0.706  -0.100  0.00  0.00    -0.503 OA
ATOM     21  H   UNL     1      -1.135  -1.505  -0.644  0.00  0.00    +0.292 HD
ENDBRANCH  14  20
ENDBRANCH   1  17
BRANCH   8  22
ATOM     22  O   UNL     1       9.554   1.311   0.270  0.00  0.00    -0.507 OA
ATOM     23  H   UNL     1       9.925   1.054  -0.585  0.00  0.00    +0.292 HD
ENDBRANCH   8  22
BRANCH   6  24
ATOM     24  O   UNL     1       7.374   5.521  -0.059  0.00  0.00    -0.506 OA
ATOM     25  H   UNL     1       7.353   5.962   0.802  0.00  0.00    +0.292 HD
ENDBRANCH   6  24
BRANCH   2  26
ATOM     26  O   UNL     1       2.408   4.168  -0.204  0.00  0.00    -0.453 OA
BRANCH  26  27
ATOM     27  C   UNL     1       1.843   4.658   1.014  0.00  0.00    +0.339 C 
ATOM     28  C   UNL     1       0.570   5.449   0.704  0.00  0.00    +0.214 C 
ATOM     29  C   UNL     1      -0.061   5.921   2.018  0.00  0.00    +0.180 C 
ATOM     30  C   UNL     1      -0.335   4.703   2.906  0.00  0.00    +0.171 C 
ATOM     31  C   UNL     1       0.974   3.941   3.131  0.00  0.00    +0.198 C 
ATOM     32  O   UNL     1       1.524   3.558   1.868  0.00  0.00    -0.337 OA
BRANCH  30  33
ATOM     33  O   UNL     1      -1.282   3.847   2.264  0.00  0.00    -0.387 OA
ATOM     34  H   UNL     1      -1.498   3.051   2.770  0.00  0.00    +0.210 HD
ENDBRANCH  30  33
BRANCH  29  35
ATOM     35  O   UNL     1       0.834   6.810   2.688  0.00  0.00    -0.386 OA
ATOM     36  H   UNL     1       0.499   7.143   3.533  0.00  0.00    +0.210 HD
ENDBRANCH  29  35
BRANCH  28  37
ATOM     37  O   UNL     1      -0.353   4.613   0.004  0.00  0.00    -0.383 OA
ATOM     38  H   UNL     1      -0.017   4.274  -0.837  0.00  0.00    +0.210 HD
ENDBRANCH  28  37
ENDBRANCH  26  27
ENDBRANCH   2  26
TORSDOF 10
