REMARK  Name = ZINC50912712
REMARK  4 active torsions:
REMARK  status: ('A' for Active; 'I' for Inactive)
REMARK    1  A    between atoms: N_8  and  S_10
REMARK    2  A    between atoms: S_10  and  C_13
REMARK    3  A    between atoms: C_18  and  N_19
REMARK    4  A    between atoms: N_19  and  N_20
REMARK                            x       y       z     vdW  Elec       q    Type
REMARK                         _______ _______ _______ _____ _____    ______ ____
ROOT
ATOM      1  S   UNL     1       3.791  -3.241  -0.251  0.00  0.00    +0.063 S 
ATOM      2  O   UNL     1       5.107  -2.874   0.141  0.00  0.00    -0.153 OA
ATOM      3  O   UNL     1       2.962  -4.075   0.547  0.00  0.00    -0.153 OA
ENDROOT
BRANCH   1  11
ATOM      4  C   UNL     1      -0.001   1.848  -1.000  0.00  0.00    +0.000 A 
ATOM      5  C   UNL     1       1.182   2.497  -1.302  0.00  0.00    +0.000 A 
ATOM      6  C   UNL     1       2.375   1.801  -1.283  0.00  0.00    +0.005 A 
ATOM      7  C   UNL     1       2.388   0.454  -0.963  0.00  0.00    -0.027 A 
ATOM      8  C   UNL     1       1.207  -0.194  -0.661  0.00  0.00    -0.027 A 
ATOM      9  C   UNL     1       0.012   0.504  -0.680  0.00  0.00    +0.005 A 
ATOM     10  C   UNL     1       1.509  -1.639  -0.353  0.00  0.00    +0.145 C 
ATOM     11  N   UNL     1       2.957  -1.830  -0.486  0.00  0.00    -0.168 NA
ATOM     12  C   UNL     1       3.524  -0.532  -0.867  0.00  0.00    +0.145 C 
ENDBRANCH   1  11
BRANCH   1  13
ATOM     13  C   UNL     1       3.934  -4.028  -1.821  0.00  0.00    +0.127 A 
ATOM     14  C   UNL     1       5.177  -4.186  -2.404  0.00  0.00    +0.030 A 
ATOM     15  C   UNL     1       5.290  -4.804  -3.636  0.00  0.00    +0.002 A 
ATOM     16  C   UNL     1       4.161  -5.265  -4.288  0.00  0.00    +0.002 A 
ATOM     17  C   UNL     1       2.917  -5.111  -3.711  0.00  0.00    +0.026 A 
ATOM     18  C   UNL     1       2.799  -4.496  -2.470  0.00  0.00    +0.067 A 
BRANCH  18  19
ATOM     19  N   UNL     1       1.542  -4.343  -1.881  0.00  0.00    -0.281 N 
ATOM     20  H   UNL     1       1.469  -3.991  -0.980  0.00  0.00    +0.166 HD
BRANCH  19  21
ATOM     21  N   UNL     1       0.417  -4.689  -2.573  0.00  0.00    -0.256 NA
ATOM     22  H   UNL     1       0.462  -5.649  -2.879  0.00  0.00    +0.140 HD
ATOM     23  H   UNL     1      -0.412  -4.523  -2.022  0.00  0.00    +0.140 HD
ENDBRANCH  19  21
ENDBRANCH  18  19
ENDBRANCH   1  13
TORSDOF 4
