REMARK  Name = ZINC12477266
REMARK  12 active torsions:
REMARK  status: ('A' for Active; 'I' for Inactive)
REMARK    1  A    between atoms: C_1  and  C_2
REMARK    2  A    between atoms: C_5  and  N_8
REMARK    3  A    between atoms: N_8  and  C_9
REMARK    4  A    between atoms: C_9  and  C_11
REMARK    5  A    between atoms: C_9  and  C_18
REMARK    6  A    between atoms: N_20  and  C_21
REMARK    7  A    between atoms: C_21  and  C_22
REMARK    8  A    between atoms: C_21  and  C_23
REMARK    9  A    between atoms: C_21  and  C_24
REMARK   10  A    between atoms: C_25  and  C_27
REMARK   11  A    between atoms: C_28  and  N_35
REMARK   12  A    between atoms: C_29  and  C_32
REMARK                            x       y       z     vdW  Elec       q    Type
REMARK                         _______ _______ _______ _____ _____    ______ ____
ROOT
ATOM      1  N   UNL     1      -1.367   3.348   1.024  0.00  0.00    -0.251 N 
ATOM      2  C   UNL     1      -1.818   3.026   2.252  0.00  0.00    +0.262 C 
ATOM      3  O   UNL     1      -2.394   1.968   2.432  0.00  0.00    -0.269 OA
ENDROOT
BRANCH   1   8
ATOM      4  C   UNL     1       1.709   8.055   0.276  0.00  0.00    +0.044 C 
ATOM      5  C   UNL     1       0.892   6.804   0.475  0.00  0.00    -0.050 A 
ATOM      6  C   UNL     1      -0.480   6.893   0.622  0.00  0.00    +0.005 A 
ATOM      7  C   UNL     1      -1.232   5.749   0.804  0.00  0.00    +0.024 A 
ATOM      8  C   UNL     1      -0.609   4.508   0.839  0.00  0.00    +0.038 A 
ATOM      9  C   UNL     1       0.770   4.423   0.696  0.00  0.00    +0.024 A 
ATOM     10  C   UNL     1       1.516   5.570   0.509  0.00  0.00    +0.005 A 
ENDBRANCH   1   8
BRANCH   2  11
ATOM     11  C   UNL     1      -1.615   3.947   3.371  0.00  0.00    +0.116 A 
ATOM     12  C   UNL     1      -2.099   3.873   4.679  0.00  0.00    +0.076 A 
ATOM     13  C   UNL     1      -1.685   4.948   5.464  0.00  0.00    +0.155 A 
ATOM     14  N   UNL     1      -0.929   5.882   4.929  0.00  0.00    -0.203 NA
ATOM     15  S   UNL     1      -0.690   5.468   3.428  0.00  0.00    +0.019 S 
BRANCH  13  16
ATOM     16  C   UNL     1      -2.094   5.040   6.878  0.00  0.00    +0.262 C 
ATOM     17  O   UNL     1      -2.793   4.173   7.366  0.00  0.00    -0.269 OA
ATOM     18  N   UNL     1      -1.694   6.085   7.629  0.00  0.00    -0.324 N 
ATOM     19  H   UNL     1      -1.136   6.777   7.239  0.00  0.00    +0.145 HD
ATOM     20  H   UNL     1      -1.964   6.146   8.559  0.00  0.00    +0.145 HD
ENDBRANCH  13  16
BRANCH  12  21
ATOM     21  N   UNL     1      -2.902   2.841   5.146  0.00  0.00    -0.355 N 
ATOM     22  H   UNL     1      -3.156   2.117   4.552  0.00  0.00    +0.142 HD
ATOM     23  H   UNL     1      -3.209   2.843   6.066  0.00  0.00    +0.142 HD
ENDBRANCH  12  21
ENDBRANCH   2  11
BRANCH   1  24
ATOM     24  C   UNL     1      -1.671   2.482  -0.118  0.00  0.00    +0.197 C 
BRANCH  24  25
ATOM     25  C   UNL     1      -0.920   2.968  -1.331  0.00  0.00    -0.018 A 
ATOM     26  C   UNL     1      -1.116   4.255  -1.795  0.00  0.00    +0.007 A 
ATOM     27  C   UNL     1      -0.431   4.699  -2.911  0.00  0.00    +0.020 A 
ATOM     28  C   UNL     1       0.450   3.855  -3.563  0.00  0.00    +0.041 A 
ATOM     29  C   UNL     1       0.646   2.567  -3.098  0.00  0.00    +0.020 A 
ATOM     30  C   UNL     1      -0.039   2.124  -1.982  0.00  0.00    +0.007 A 
ATOM     31 CL   UNL     1       1.311   4.412  -4.964  0.00  0.00    -0.084 Cl
ENDBRANCH  24  25
BRANCH  24  32
ATOM     32  C   UNL     1      -3.152   2.519  -0.397  0.00  0.00    +0.239 C 
ATOM     33  O   UNL     1      -3.881   3.202   0.291  0.00  0.00    -0.273 OA
ATOM     34  N   UNL     1      -3.666   1.794  -1.410  0.00  0.00    -0.309 N 
ATOM     35  H   UNL     1      -3.082   1.248  -1.960  0.00  0.00    +0.149 HD
BRANCH  34  36
ATOM     36  C   UNL     1      -5.105   1.831  -1.680  0.00  0.00    +0.026 C 
ATOM     37  C   UNL     1      -5.528   3.266  -2.001  0.00  0.00    +0.031 C 
ATOM     38  C   UNL     1      -5.423   0.926  -2.873  0.00  0.00    +0.031 C 
ATOM     39  C   UNL     1      -5.868   1.337  -0.449  0.00  0.00    +0.031 C 
ENDBRANCH  34  36
ENDBRANCH  24  32
ENDBRANCH   1  24
TORSDOF 8
