REMARK  Name = ZINC24270174
REMARK  9 active torsions:
REMARK  status: ('A' for Active; 'I' for Inactive)
REMARK    1  A    between atoms: C_1  and  C_2
REMARK    2  A    between atoms: C_5  and  C_8
REMARK    3  A    between atoms: C_11  and  S_13
REMARK    4  A    between atoms: S_13  and  C_14
REMARK    5  A    between atoms: C_14  and  C_16
REMARK    6  A    between atoms: C_14  and  C_17
REMARK    7  A    between atoms: N_19  and  C_20
REMARK    8  A    between atoms: C_24  and  S_26
REMARK    9  A    between atoms: S_26  and  N_29
REMARK                            x       y       z     vdW  Elec       q    Type
REMARK                         _______ _______ _______ _____ _____    ______ ____
ROOT
ATOM      1  C   UNL     1      -3.559   6.411  -0.051  0.00  0.00    +0.230 C 
ATOM      2  O   UNL     1      -2.988   7.442   0.237  0.00  0.00    -0.274 OA
ATOM      3  N   UNL     1      -4.842   6.444  -0.462  0.00  0.00    -0.285 N 
ATOM      4  H   UNL     1      -5.336   5.519  -0.795  0.00  0.00    +0.155 HD
ENDROOT
BRANCH   3   5
ATOM      5  C   UNL     1      -5.546   7.653  -0.464  0.00  0.00    +0.035 A 
ATOM      6  C   UNL     1      -4.890   8.839  -0.766  0.00  0.00    +0.023 A 
ATOM      7  C   UNL     1      -5.587  10.031  -0.767  0.00  0.00    +0.004 A 
ATOM      8  C   UNL     1      -6.937  10.045  -0.467  0.00  0.00    +0.028 A 
ATOM      9  C   UNL     1      -7.593   8.866  -0.166  0.00  0.00    +0.107 A 
ATOM     10  C   UNL     1      -6.903   7.669  -0.168  0.00  0.00    +0.051 A 
BRANCH   9  11
ATOM     11  S   UNL     1      -9.313   8.888   0.215  0.00  0.00    +0.056 S 
ATOM     12  O   UNL     1      -9.572   7.728   0.994  0.00  0.00    -0.153 OA
ATOM     13  O   UNL     1      -9.610  10.198   0.678  0.00  0.00    -0.153 OA
BRANCH  11  14
ATOM     14  N   UNL     1     -10.133   8.693  -1.211  0.00  0.00    -0.204 NA
ATOM     15  H   UNL     1     -11.216   8.701  -1.015  0.00  0.00    +0.144 HD
ATOM     16  H   UNL     1      -9.850   7.733  -1.668  0.00  0.00    +0.144 HD
ENDBRANCH  11  14
ENDBRANCH   9  11
ENDBRANCH   3   5
BRANCH   1  17
ATOM     17  C   UNL     1      -2.833   5.095   0.050  0.00  0.00    +0.136 C 
ATOM     18  C   UNL     1      -3.227   4.394   1.352  0.00  0.00    +0.029 C 
BRANCH  17  19
ATOM     19  S   UNL     1      -1.047   5.388   0.040  0.00  0.00    -0.086 S 
BRANCH  19  23
ATOM     20  C   UNL     1       1.036   1.970  -0.020  0.00  0.00    +0.079 A 
ATOM     21  C   UNL     1      -0.003   1.082  -0.022  0.00  0.00    +0.076 A 
ATOM     22  S   UNL     1      -1.397   2.200  -0.005  0.00  0.00    -0.069 S 
ATOM     23  C   UNL     1      -0.465   3.725   0.014  0.00  0.00    +0.136 A 
ATOM     24  N   UNL     1       0.777   3.275  -0.002  0.00  0.00    -0.233 NA
BRANCH  20  29
ATOM     25  C   UNL     1       6.476   0.081  -0.088  0.00  0.00    +0.044 C 
ATOM     26  C   UNL     1       5.052   0.576  -0.071  0.00  0.00    -0.050 A 
ATOM     27  C   UNL     1       4.795   1.935  -0.051  0.00  0.00    +0.004 A 
ATOM     28  C   UNL     1       3.493   2.393  -0.035  0.00  0.00    +0.010 A 
ATOM     29  C   UNL     1       2.437   1.483  -0.038  0.00  0.00    +0.001 A 
ATOM     30  C   UNL     1       2.702   0.115  -0.051  0.00  0.00    +0.010 A 
ATOM     31  C   UNL     1       4.008  -0.332  -0.073  0.00  0.00    +0.004 A 
ENDBRANCH  20  29
ENDBRANCH  19  23
ENDBRANCH  17  19
ENDBRANCH   1  17
TORSDOF 7
