REMARK  Name = ZINC41084822
REMARK  1 active torsions:
REMARK  status: ('A' for Active; 'I' for Inactive)
REMARK    1  A    between atoms: C_6  and  C_7
REMARK                            x       y       z     vdW  Elec       q    Type
REMARK                         _______ _______ _______ _____ _____    ______ ____
ROOT
ATOM      1  C   UNL     1      -1.256  -0.759   0.011  0.00  0.00    +0.024 C 
ATOM      2  C   UNL     1      -1.236  -2.119  -0.100  0.00  0.00    +0.081 C 
ATOM      3  C   UNL     1      -2.491  -2.917  -0.212  0.00  0.00    +0.153 C 
ATOM      4  N   UNL     1      -3.566  -2.482  -0.815  0.00  0.00    -0.283 NA
ATOM      5  N   UNL     1      -2.404  -4.187   0.394  0.00  0.00    -0.150 N 
ATOM      6  C   UNL     1      -1.150  -4.732   0.550  0.00  0.00    +0.182 C 
ATOM      7  N   UNL     1       0.005  -4.170   0.288  0.00  0.00    -0.152 NA
ATOM      8  C   UNL     1       0.036  -2.885  -0.121  0.00  0.00    +0.273 C 
ATOM      9  O   UNL     1       1.076  -2.366  -0.493  0.00  0.00    -0.268 OA
ATOM     10  S   UNL     1      -1.518  -6.340   1.203  0.00  0.00    -0.018 S 
ATOM     11  C   UNL     1      -3.291  -6.145   1.320  0.00  0.00    +0.182 C 
ATOM     12  N   UNL     1      -3.470  -4.940   0.838  0.00  0.00    -0.149 NA
ATOM     13  N   UNL     1      -4.235  -7.040   1.798  0.00  0.00    -0.308 N 
ATOM     14  C   UNL     1      -5.662  -6.690   1.804  0.00  0.00    +0.107 C 
ATOM     15  C   UNL     1      -6.443  -7.790   1.079  0.00  0.00    +0.019 C 
ATOM     16  C   UNL     1      -6.124  -9.143   1.719  0.00  0.00    +0.003 C 
ATOM     17  C   UNL     1      -4.629  -9.437   1.577  0.00  0.00    +0.019 C 
ATOM     18  C   UNL     1      -3.829  -8.358   2.302  0.00  0.00    +0.107 C 
ATOM     19  H   UNL     1      -4.357  -3.042  -0.860  0.00  0.00    +0.188 HD
ENDROOT
BRANCH   1  25
ATOM     20  C   UNL     1       0.223   1.217  -0.293  0.00  0.00    +0.009 A 
ATOM     21  C   UNL     1       1.388   1.896  -0.015  0.00  0.00    +0.020 A 
ATOM     22  C   UNL     1       2.322   1.351   0.852  0.00  0.00    +0.041 A 
ATOM     23  C   UNL     1       2.093   0.119   1.444  0.00  0.00    +0.020 A 
ATOM     24  C   UNL     1       0.932  -0.573   1.176  0.00  0.00    +0.009 A 
ATOM     25  C   UNL     1      -0.017  -0.029   0.301  0.00  0.00    -0.024 A 
ATOM     26 CL   UNL     1       3.788   2.215   1.196  0.00  0.00    -0.084 Cl
ENDBRANCH   1  25
TORSDOF 1
