REMARK  Name = ZINC12993063
REMARK  7 active torsions:
REMARK  status: ('A' for Active; 'I' for Inactive)
REMARK    1  A    between atoms: C_1  and  C_2
REMARK    2  A    between atoms: C_2  and  C_4
REMARK    3  A    between atoms: C_2  and  N_14
REMARK    4  A    between atoms: C_15  and  C_17
REMARK    5  A    between atoms: C_17  and  N_67
REMARK    6  A    between atoms: C_20  and  C_23
REMARK    7  A    between atoms: N_25  and  C_26
REMARK                            x       y       z     vdW  Elec       q    Type
REMARK                         _______ _______ _______ _____ _____    ______ ____
ROOT
ATOM      1  C   UNL     1       8.539   2.055   0.307  0.00  0.00    -0.077 C 
ATOM      2  C   UNL     1       7.228   1.266   0.260  0.00  0.00    -0.006 C 
ATOM      3  C   UNL     1       6.053   2.244   0.174  0.00  0.00    +0.072 C 
ATOM      4  C   UNL     1       6.224   3.127  -1.064  0.00  0.00    -0.006 C 
ATOM      5  C   UNL     1       7.563   3.862  -0.979  0.00  0.00    -0.077 C 
ATOM      6  N   UNL     1       8.654   2.866  -0.924  0.00  0.00    +0.385 N 
ATOM      7  H   UNL     1       8.581   2.247  -1.739  0.00  0.00    -0.081 HD
ENDROOT
BRANCH   3   8
ATOM      8  C   UNL     1       4.763   1.472   0.068  0.00  0.00    +0.220 C 
ATOM      9  O   UNL     1       4.780   0.259   0.061  0.00  0.00    -0.275 OA
ATOM     10  N   UNL     1       3.589   2.129  -0.020  0.00  0.00    -0.285 N 
ATOM     11  H   UNL     1       3.579   3.096  -0.092  0.00  0.00    +0.155 HD
BRANCH  10  12
ATOM     12  C   UNL     1       2.384   1.415  -0.007  0.00  0.00    +0.037 A 
ATOM     13  C   UNL     1       2.275   0.249   0.738  0.00  0.00    +0.027 A 
ATOM     14  C   UNL     1       1.087  -0.456   0.752  0.00  0.00    +0.051 A 
ATOM     15  C   UNL     1       0.000  -0.001   0.023  0.00  0.00    +0.166 A 
ATOM     16  C   UNL     1       0.106   1.169  -0.726  0.00  0.00    +0.168 A 
ATOM     17  C   UNL     1       1.298   1.874  -0.740  0.00  0.00    +0.072 A 
ATOM     18  O   UNL     1      -1.086   1.397  -1.351  0.00  0.00    -0.453 OA
ATOM     19  C   UNL     1      -1.795   0.146  -1.298  0.00  0.00    +0.466 C 
ATOM     20  O   UNL     1      -1.261  -0.503  -0.129  0.00  0.00    -0.453 OA
ENDBRANCH  10  12
ENDBRANCH   3   8
BRANCH   6  21
ATOM     21  C   UNL     1       9.964   3.550  -0.956  0.00  0.00    +0.019 C 
BRANCH  21  23
ATOM     22  N   UNL     1      11.278   4.859  -2.592  0.00  0.00    -0.310 N 
ATOM     23  C   UNL     1      10.145   4.188  -2.310  0.00  0.00    +0.197 C 
ATOM     24  O   UNL     1       9.270   4.097  -3.145  0.00  0.00    -0.278 OA
ATOM     25  H   UNL     1      11.978   4.932  -1.924  0.00  0.00    +0.149 HD
BRANCH  22  27
ATOM     26  C   UNL     1      10.807   6.865  -3.909  0.00  0.00    +0.033 C 
ATOM     27  C   UNL     1      11.454   5.479  -3.908  0.00  0.00    +0.100 C 
BRANCH  27  28
ATOM     28  C   UNL     1      12.925   5.612  -4.208  0.00  0.00    -0.027 A 
ATOM     29  C   UNL     1      13.806   5.985  -3.210  0.00  0.00    +0.006 A 
ATOM     30  C   UNL     1      15.150   6.106  -3.493  0.00  0.00    +0.004 A 
ATOM     31  C   UNL     1      15.627   5.857  -4.774  0.00  0.00    -0.044 A 
ATOM     32  C   UNL     1      14.751   5.480  -5.766  0.00  0.00    -0.044 A 
ATOM     33  C   UNL     1      13.398   5.356  -5.478  0.00  0.00    +0.009 A 
ATOM     34  C   UNL     1      15.198   5.184  -7.174  0.00  0.00    +0.035 C 
ATOM     35  C   UNL     1      16.585   5.771  -7.431  0.00  0.00    +0.005 C 
ATOM     36  C   UNL     1      17.520   5.315  -6.305  0.00  0.00    +0.005 C 
ATOM     37  C   UNL     1      17.105   6.022  -5.017  0.00  0.00    +0.035 C 
ENDBRANCH  27  28
ENDBRANCH  22  27
ENDBRANCH  21  23
ENDBRANCH   6  21
TORSDOF 6
