REMARK  Name = ZINC16532661
REMARK  4 active torsions:
REMARK  status: ('A' for Active; 'I' for Inactive)
REMARK    1  A    between atoms: C_3  and  C_8
REMARK    2  A    between atoms: C_8  and  C_9
REMARK    3  A    between atoms: C_13  and  N_15
REMARK    4  A    between atoms: N_27  and  C_28
REMARK                            x       y       z     vdW  Elec       q    Type
REMARK                         _______ _______ _______ _____ _____    ______ ____
ROOT
ATOM      1  C   UNL     1      -3.314   4.250   4.222  0.00  0.00    +0.136 A 
ATOM      2  N   UNL     1      -2.877   3.408   5.134  0.00  0.00    -0.236 NA
ATOM      3  C   UNL     1      -1.744   2.729   4.963  0.00  0.00    +0.053 A 
ATOM      4  C   UNL     1      -1.034   2.910   3.801  0.00  0.00    +0.031 A 
ATOM      5  C   UNL     1      -1.518   3.821   2.856  0.00  0.00    +0.130 A 
ATOM      6  N   UNL     1      -2.655   4.463   3.101  0.00  0.00    -0.217 NA
ATOM      7  C   UNL     1       0.244   2.171   3.507  0.00  0.00    +0.149 C 
ATOM      8  N   UNL     1       0.707   1.487   4.721  0.00  0.00    -0.281 N 
ATOM      9  C   UNL     1      -0.301   0.770   5.520  0.00  0.00    +0.116 C 
ATOM     10  C   UNL     1      -1.298   1.797   6.056  0.00  0.00    +0.075 C 
ATOM     11  C   UNL     1       2.003   1.515   5.089  0.00  0.00    +0.307 C 
ATOM     12  O   UNL     1       2.375   0.870   6.050  0.00  0.00    -0.252 OA
ATOM     13  N   UNL     1       2.886   2.257   4.392  0.00  0.00    -0.269 N 
ATOM     14  H   UNL     1       2.572   2.864   3.703  0.00  0.00    +0.156 HD
ENDROOT
BRANCH  13  15
ATOM     15  C   UNL     1       4.256   2.152   4.662  0.00  0.00    +0.036 A 
ATOM     16  C   UNL     1       4.696   1.988   5.969  0.00  0.00    +0.026 A 
ATOM     17  C   UNL     1       6.048   1.880   6.234  0.00  0.00    +0.041 A 
ATOM     18  C   UNL     1       6.964   1.945   5.198  0.00  0.00    +0.142 A 
ATOM     19  C   UNL     1       6.528   2.114   3.894  0.00  0.00    +0.078 A 
ATOM     20  C   UNL     1       5.176   2.217   3.625  0.00  0.00    +0.046 A 
ATOM     21 CL   UNL     1       7.679   2.195   2.597  0.00  0.00    -0.081 Cl
ATOM     22  F   UNL     1       8.286   1.845   5.460  0.00  0.00    -0.204 F 
ENDBRANCH  13  15
BRANCH   5  23
ATOM     23  N   UNL     1      -0.825   4.046   1.678  0.00  0.00    -0.310 N 
ATOM     24  C   UNL     1      -1.315   3.172   0.602  0.00  0.00    +0.134 C 
ATOM     25  C   UNL     1      -0.485   3.412  -0.661  0.00  0.00    +0.178 C 
ATOM     26  O   UNL     1      -0.550   4.796  -1.015  0.00  0.00    -0.377 OA
ATOM     27  C   UNL     1      -0.079   5.675   0.010  0.00  0.00    +0.178 C 
ATOM     28  C   UNL     1      -0.906   5.459   1.280  0.00  0.00    +0.134 C 
ENDBRANCH   5  23
BRANCH   1  29
ATOM     29  C   UNL     1      -4.605   4.989   4.466  0.00  0.00    +0.111 C 
BRANCH  29  32
ATOM     30  C   UNL     1      -7.225   3.623   2.116  0.00  0.00    +0.003 A 
ATOM     31  C   UNL     1      -6.173   4.366   2.618  0.00  0.00    +0.004 A 
ATOM     32  C   UNL     1      -5.756   4.182   3.923  0.00  0.00    -0.037 A 
ATOM     33  C   UNL     1      -6.398   3.264   4.731  0.00  0.00    +0.042 A 
ATOM     34  C   UNL     1      -7.456   2.523   4.232  0.00  0.00    +0.124 A 
ATOM     35  C   UNL     1      -7.869   2.704   2.922  0.00  0.00    +0.038 A 
ATOM     36  F   UNL     1      -8.085   1.625   5.021  0.00  0.00    -0.205 F 
ENDBRANCH  29  32
ENDBRANCH   1  29
TORSDOF 4
