REMARK  Name = ZINC48300034
REMARK  8 active torsions:
REMARK  status: ('A' for Active; 'I' for Inactive)
REMARK    1  A    between atoms: C_4  and  C_7
REMARK    2  A    between atoms: C_7  and  C_9
REMARK    3  A    between atoms: C_7  and  N_23
REMARK    4  A    between atoms: C_9  and  C_10
REMARK    5  A    between atoms: N_12  and  C_13
REMARK    6  A    between atoms: C_13  and  C_14
REMARK    7  A    between atoms: C_17  and  S_19
REMARK    8  A    between atoms: S_19  and  N_22
REMARK                            x       y       z     vdW  Elec       q    Type
REMARK                         _______ _______ _______ _____ _____    ______ ____
ROOT
ATOM      1  C   UNL     1       5.286  -1.781   1.548  0.00  0.00    +0.215 C 
ATOM      2  O   UNL     1       5.966  -1.968   0.562  0.00  0.00    -0.276 OA
ATOM      3  N   UNL     1       5.716  -2.203   2.754  0.00  0.00    -0.311 N 
ATOM      4  H   UNL     1       5.172  -2.054   3.543  0.00  0.00    +0.149 HD
ENDROOT
BRANCH   1   5
ATOM      5  C   UNL     1       3.959  -1.078   1.426  0.00  0.00    +0.123 C 
BRANCH   5   6
ATOM      6  C   UNL     1       3.711  -0.707  -0.038  0.00  0.00    +0.113 C 
BRANCH   6   7
ATOM      7  N   UNL     1       3.577  -1.929  -0.835  0.00  0.00    -0.292 N 
ATOM      8  C   UNL     1       3.832  -1.902  -2.158  0.00  0.00    +0.298 C 
ATOM      9  O   UNL     1       4.260  -0.888  -2.674  0.00  0.00    -0.253 OA
ATOM     10  N   UNL     1       3.611  -2.999  -2.909  0.00  0.00    -0.313 N 
ATOM     11  H   UNL     1       3.304  -2.757  -0.410  0.00  0.00    +0.151 HD
ATOM     12  H   UNL     1       3.269  -3.808  -2.497  0.00  0.00    +0.146 HD
ATOM     13  H   UNL     1       3.795  -2.980  -3.861  0.00  0.00    +0.146 HD
ENDBRANCH   6   7
BRANCH   6  17
ATOM     14  C   UNL     1       0.122   1.590  -0.339  0.00  0.00    +0.000 A 
ATOM     15  C   UNL     1       1.352   2.218  -0.399  0.00  0.00    +0.000 A 
ATOM     16  C   UNL     1       2.514   1.475  -0.301  0.00  0.00    +0.005 A 
ATOM     17  C   UNL     1       2.445   0.103  -0.143  0.00  0.00    -0.027 A 
ATOM     18  C   UNL     1       1.215  -0.525  -0.083  0.00  0.00    +0.005 A 
ATOM     19  C   UNL     1       0.054   0.218  -0.182  0.00  0.00    +0.000 A 
ENDBRANCH   6  17
ENDBRANCH   5   6
ENDBRANCH   1   5
BRANCH   3  20
ATOM     20  C   UNL     1       7.006  -2.887   2.873  0.00  0.00    +0.146 C 
BRANCH  20  21
ATOM     21  C   UNL     1       7.250  -3.252   4.314  0.00  0.00    +0.009 A 
ATOM     22  C   UNL     1       6.917  -4.387   4.976  0.00  0.00    +0.015 A 
ATOM     23  C   UNL     1       7.246  -4.505   6.313  0.00  0.00    +0.036 A 
ATOM     24  C   UNL     1       7.893  -3.482   6.924  0.00  0.00    +0.142 A 
ATOM     25  S   UNL     1       8.061  -2.305   5.592  0.00  0.00    -0.072 S 
BRANCH  24  26
ATOM     26  S   UNL     1       8.432  -3.351   8.596  0.00  0.00    +0.062 S 
ATOM     27  O   UNL     1       8.528  -1.963   8.884  0.00  0.00    -0.153 OA
ATOM     28  O   UNL     1       7.617  -4.232   9.356  0.00  0.00    -0.153 OA
BRANCH  26  29
ATOM     29  N   UNL     1       9.973  -3.956   8.662  0.00  0.00    -0.203 NA
ATOM     30  H   UNL     1      10.601  -3.611   9.315  0.00  0.00    +0.144 HD
ATOM     31  H   UNL     1      10.246  -4.654   8.047  0.00  0.00    +0.144 HD
ENDBRANCH  26  29
ENDBRANCH  24  26
ENDBRANCH  20  21
ENDBRANCH   3  20
TORSDOF 8
