REMARK  Name = ZINC13718532
REMARK  3 active torsions:
REMARK  status: ('A' for Active; 'I' for Inactive)
REMARK    1  A    between atoms: C_4  and  C_7
REMARK    2  A    between atoms: C_7  and  C_9
REMARK    3  A    between atoms: N_28  and  C_31
REMARK                            x       y       z     vdW  Elec       q    Type
REMARK                         _______ _______ _______ _____ _____    ______ ____
ROOT
ATOM      1  C   UNL     1       3.674  -2.199  -0.041  0.00  0.00    +0.158 C 
ATOM      2  C   UNL     1       3.384  -2.742   1.374  0.00  0.00    +0.118 C 
ATOM      3  C   UNL     1       4.791  -2.824   2.034  0.00  0.00    +0.114 C 
ATOM      4  C   UNL     1       5.778  -2.884   0.868  0.00  0.00    +0.110 C 
ATOM      5  N   UNL     1       5.015  -2.663  -0.380  0.00  0.00    -0.311 N 
ATOM      6  C   UNL     1       5.559  -2.955  -1.627  0.00  0.00    +0.038 A 
ATOM      7  C   UNL     1       5.213  -2.294  -2.785  0.00  0.00    +0.024 A 
ATOM      8  C   UNL     1       5.823  -2.643  -3.978  0.00  0.00    +0.002 A 
ATOM      9  C   UNL     1       6.774  -3.648  -4.011  0.00  0.00    +0.001 A 
ATOM     10  C   UNL     1       7.125  -4.324  -2.858  0.00  0.00    +0.010 A 
ATOM     11  C   UNL     1       6.515  -3.990  -1.654  0.00  0.00    -0.004 A 
ATOM     12  C   UNL     1       6.820  -4.707  -0.400  0.00  0.00    +0.007 C 
ATOM     13  C   UNL     1       6.469  -4.219   0.793  0.00  0.00    -0.003 C 
ATOM     14  C   UNL     1       4.889  -1.488   2.744  0.00  0.00    +0.232 C 
ATOM     15  O   UNL     1       5.911  -0.978   3.150  0.00  0.00    -0.274 OA
ATOM     16  N   UNL     1       3.659  -0.966   2.846  0.00  0.00    -0.210 N 
ATOM     17  C   UNL     1       2.692  -1.660   2.181  0.00  0.00    +0.232 C 
ATOM     18  O   UNL     1       1.497  -1.463   2.223  0.00  0.00    -0.274 OA
ENDROOT
BRANCH  16  19
ATOM     19  C   UNL     1       3.384   0.200   3.578  0.00  0.00    +0.048 A 
ATOM     20  C   UNL     1       2.114   0.759   3.540  0.00  0.00    +0.028 A 
ATOM     21  C   UNL     1       1.841   1.906   4.261  0.00  0.00    +0.051 A 
ATOM     22  C   UNL     1       2.835   2.501   5.022  0.00  0.00    +0.166 A 
ATOM     23  C   UNL     1       4.110   1.942   5.061  0.00  0.00    +0.168 A 
ATOM     24  C   UNL     1       4.380   0.789   4.343  0.00  0.00    +0.073 A 
ATOM     25  O   UNL     1       4.897   2.707   5.872  0.00  0.00    -0.453 OA
ATOM     26  C   UNL     1       4.207   3.964   6.004  0.00  0.00    +0.466 C 
ATOM     27  O   UNL     1       2.824   3.617   5.810  0.00  0.00    -0.453 OA
ENDBRANCH  16  19
BRANCH   1  28
ATOM     28  C   UNL     1       3.631  -0.693  -0.040  0.00  0.00    +0.184 C 
ATOM     29  O   UNL     1       4.662  -0.057  -0.070  0.00  0.00    -0.290 OA
BRANCH  28  33
ATOM     30  C   UNL     1      -0.101   1.320   0.073  0.00  0.00    +0.000 A 
ATOM     31  C   UNL     1       1.074   2.050   0.038  0.00  0.00    +0.001 A 
ATOM     32  C   UNL     1       2.291   1.403   0.002  0.00  0.00    +0.011 A 
ATOM     33  C   UNL     1       2.336   0.005  -0.000  0.00  0.00    +0.019 A 
ATOM     34  C   UNL     1       1.144  -0.725   0.035  0.00  0.00    +0.011 A 
ATOM     35  C   UNL     1      -0.065  -0.063   0.071  0.00  0.00    +0.001 A 
ENDBRANCH  28  33
ENDBRANCH   1  28
TORSDOF 3
