REMARK  Name = ZINC39016600
REMARK  11 active torsions:
REMARK  status: ('A' for Active; 'I' for Inactive)
REMARK    1  A    between atoms: C_1  and  C_2
REMARK    2  A    between atoms: C_5  and  C_35
REMARK    3  A    between atoms: C_6  and  N_8
REMARK    4  A    between atoms: C_9  and  C_11
REMARK    5  A    between atoms: C_11  and  S_12
REMARK    6  A    between atoms: S_12  and  C_13
REMARK    7  A    between atoms: C_17  and  C_21
REMARK    8  A    between atoms: N_19  and  N_20
REMARK    9  A    between atoms: C_24  and  C_27
REMARK   10  A    between atoms: C_30  and  O_33
REMARK   11  A    between atoms: O_33  and  C_34
REMARK                            x       y       z     vdW  Elec       q    Type
REMARK                         _______ _______ _______ _____ _____    ______ ____
ROOT
ATOM      1  C   UNL     1       0.541  -2.801   7.699  0.00  0.00    +0.214 C 
ATOM      2  N   UNL     1       1.700  -3.721   7.562  0.00  0.00    -0.228 NA
ATOM      3  N   UNL     1       1.377  -4.851   8.436  0.00  0.00    -0.234 NA
ATOM      4  C   UNL     1      -0.093  -4.872   8.584  0.00  0.00    +0.185 C 
ATOM      5  N   UNL     1      -0.615  -3.732   7.792  0.00  0.00    -0.197 NA
ATOM      6  H   UNL     1       2.555  -3.271   7.854  0.00  0.00    +0.143 HD
ATOM      7  H   UNL     1       1.829  -4.756   9.333  0.00  0.00    +0.143 HD
ENDROOT
BRANCH   4   8
ATOM      8  C   UNL     1      -0.656  -6.189   8.047  0.00  0.00    +0.187 C 
ATOM      9  C   UNL     1      -0.156  -7.362   8.872  0.00  0.00    +0.034 C 
ATOM     10  C   UNL     1       0.536  -8.106   7.988  0.00  0.00    +0.091 C 
ATOM     11  N   UNL     1       0.510  -7.529   6.758  0.00  0.00    -0.154 NA
ATOM     12  N   UNL     1      -0.127  -6.470   6.702  0.00  0.00    -0.176 NA
BRANCH  10  13
ATOM     13  C   UNL     1       1.230  -9.377   8.312  0.00  0.00    +0.002 A 
ATOM     14  C   UNL     1       1.189  -9.884   9.610  0.00  0.00    +0.013 A 
ATOM     15  C   UNL     1       1.834 -11.066   9.907  0.00  0.00    +0.046 A 
ATOM     16  C   UNL     1       2.525 -11.750   8.916  0.00  0.00    +0.120 A 
ATOM     17  C   UNL     1       2.568 -11.247   7.623  0.00  0.00    +0.046 A 
ATOM     18  C   UNL     1       1.920 -10.069   7.318  0.00  0.00    +0.013 A 
BRANCH  16  19
ATOM     19  O   UNL     1       3.161 -12.913   9.213  0.00  0.00    -0.495 OA
ATOM     20  C   UNL     1       3.852 -13.565   8.146  0.00  0.00    +0.277 C 
ENDBRANCH  16  19
ENDBRANCH  10  13
ENDBRANCH   4   8
BRANCH   5  21
ATOM     21  N   UNL     1      -1.741  -3.099   8.461  0.00  0.00    -0.264 NA
ATOM     22  H   UNL     1      -2.042  -2.276   7.961  0.00  0.00    +0.137 HD
ATOM     23  H   UNL     1      -2.503  -3.750   8.580  0.00  0.00    +0.137 HD
ENDBRANCH   5  21
BRANCH   1  24
ATOM     24  S   UNL     1       0.391  -1.734   6.239  0.00  0.00    -0.115 S 
BRANCH  24  25
ATOM     25  C   UNL     1       0.280  -2.900   4.854  0.00  0.00    +0.168 C 
BRANCH  25  27
ATOM     26  N   UNL     1       0.052  -2.797   2.393  0.00  0.00    -0.285 N 
ATOM     27  C   UNL     1       0.150  -2.135   3.562  0.00  0.00    +0.227 C 
ATOM     28  O   UNL     1       0.134  -0.922   3.575  0.00  0.00    -0.275 OA
ATOM     29  H   UNL     1      -0.016  -3.765   2.388  0.00  0.00    +0.155 HD
BRANCH  26  35
ATOM     30  C   UNL     1       1.264   1.227  -0.158  0.00  0.00    +0.044 C 
ATOM     31  C   UNL     1       0.628  -0.137  -0.079  0.00  0.00    -0.049 A 
ATOM     32  C   UNL     1       0.039  -0.690  -1.201  0.00  0.00    +0.004 A 
ATOM     33  C   UNL     1      -0.546  -1.941  -1.133  0.00  0.00    +0.005 A 
ATOM     34  C   UNL     1      -0.543  -2.643   0.057  0.00  0.00    -0.029 A 
ATOM     35  C   UNL     1       0.048  -2.090   1.185  0.00  0.00    +0.037 A 
ATOM     36  C   UNL     1       0.639  -0.835   1.112  0.00  0.00    +0.027 A 
ATOM     37  C   UNL     1      -1.181  -4.006   0.131  0.00  0.00    +0.045 C 
ENDBRANCH  26  35
ENDBRANCH  25  27
ENDBRANCH  24  25
ENDBRANCH   1  24
TORSDOF 8
