REMARK  Name = ZINC14113310
REMARK  4 active torsions:
REMARK  status: ('A' for Active; 'I' for Inactive)
REMARK    1  A    between atoms: C_3  and  C_24
REMARK    2  A    between atoms: C_5  and  N_7
REMARK    3  A    between atoms: C_8  and  C_10
REMARK    4  A    between atoms: N_13  and  C_16
REMARK                            x       y       z     vdW  Elec       q    Type
REMARK                         _______ _______ _______ _____ _____    ______ ____
ROOT
ATOM      1  N   UNL     1       1.202  -2.402   0.011  0.00  0.00    -0.285 N 
ATOM      2  C   UNL     1       0.103  -3.161  -0.167  0.00  0.00    +0.220 C 
ATOM      3  O   UNL     1      -0.961  -2.638  -0.423  0.00  0.00    -0.275 OA
ATOM      4  H   UNL     1       2.067  -2.822   0.137  0.00  0.00    +0.155 HD
ENDROOT
BRANCH   1   9
ATOM      5  C   UNL     1       2.021   1.149  -0.510  0.00  0.00    +0.002 A 
ATOM      6  C   UNL     1       0.901   1.763   0.014  0.00  0.00    +0.012 A 
ATOM      7  C   UNL     1      -0.134   0.992   0.544  0.00  0.00    +0.021 A 
ATOM      8  C   UNL     1      -0.033  -0.399   0.543  0.00  0.00    +0.035 A 
ATOM      9  C   UNL     1       1.095  -1.006   0.014  0.00  0.00    +0.034 A 
ATOM     10  C   UNL     1       2.121  -0.230  -0.511  0.00  0.00    +0.023 A 
BRANCH   7  11
ATOM     11  C   UNL     1      -1.335   1.648   1.107  0.00  0.00    +0.164 A 
ATOM     12  N   UNL     1      -2.511   1.091   1.310  0.00  0.00    -0.129 NA
ATOM     13  N   UNL     1      -3.318   1.955   1.819  0.00  0.00    -0.134 NA
ATOM     14  C   UNL     1      -2.709   3.098   1.970  0.00  0.00    +0.134 A 
ATOM     15  N   UNL     1      -1.436   2.944   1.520  0.00  0.00    -0.311 N 
ATOM     16  C   UNL     1      -0.398   3.974   1.474  0.00  0.00    +0.125 C 
ATOM     17  C   UNL     1      -0.649   4.997   2.585  0.00  0.00    +0.022 C 
ATOM     18  C   UNL     1      -1.560   6.108   2.065  0.00  0.00    +0.002 C 
ATOM     19  C   UNL     1      -2.912   5.541   1.645  0.00  0.00    +0.008 C 
ATOM     20  C   UNL     1      -3.283   4.367   2.546  0.00  0.00    +0.076 C 
ENDBRANCH   7  11
ENDBRANCH   1   9
BRANCH   2  21
ATOM     21  C   UNL     1       0.196  -4.661  -0.049  0.00  0.00    +0.078 C 
ATOM     22  C   UNL     1       1.180  -5.196  -1.092  0.00  0.00    +0.028 C 
ATOM     23  C   UNL     1       1.224  -6.724  -1.008  0.00  0.00    +0.085 C 
ATOM     24  N   UNL     1      -0.118  -7.268  -1.251  0.00  0.00    -0.298 NA
ATOM     25  C   UNL     1      -1.071  -6.805  -0.233  0.00  0.00    +0.085 C 
ATOM     26  C   UNL     1      -1.183  -5.280  -0.294  0.00  0.00    +0.028 C 
BRANCH  24  27
ATOM     27  C   UNL     1      -0.088  -8.735  -1.315  0.00  0.00    +0.079 C 
ATOM     28  C   UNL     1       0.182  -9.302   0.089  0.00  0.00    +0.043 C 
ATOM     29  C   UNL     1      -0.100 -10.831   0.057  0.00  0.00    +0.167 C 
ATOM     30  S   UNL     1      -1.623 -10.870  -0.980  0.00  0.00    -0.029 S 
ATOM     31  O   UNL     1      -2.761 -10.821  -0.131  0.00  0.00    -0.174 OA
ATOM     32  O   UNL     1      -1.506 -11.918  -1.933  0.00  0.00    -0.174 OA
ATOM     33  C   UNL     1      -1.448  -9.255  -1.839  0.00  0.00    +0.184 C 
ENDBRANCH  24  27
ENDBRANCH   2  21
TORSDOF 4
