REMARK  Name = ZINC04149462
REMARK  9 active torsions:
REMARK  status: ('A' for Active; 'I' for Inactive)
REMARK    1  A    between atoms: C_1  and  C_2
REMARK    2  A    between atoms: C_2  and  C_3
REMARK    3  A    between atoms: C_2  and  C_4
REMARK    4  A    between atoms: C_2  and  C_5
REMARK    5  A    between atoms: C_13  and  C_25
REMARK    6  A    between atoms: C_15  and  C_21
REMARK    7  A    between atoms: C_15  and  C_23
REMARK    8  A    between atoms: C_16  and  N_20
REMARK    9  A    between atoms: C_17  and  C_18
REMARK                            x       y       z     vdW  Elec       q    Type
REMARK                         _______ _______ _______ _____ _____    ______ ____
ROOT
ATOM      1  C   UNL     1       0.767  -0.991  -1.504  0.00  0.00    -0.001 C 
ATOM      2  C   UNL     1       0.914  -2.501  -1.739  0.00  0.00    +0.031 C 
ATOM      3  C   UNL     1       1.644  -2.692  -3.044  0.00  0.00    -0.021 C 
ATOM      4  C   UNL     1       2.557  -1.829  -3.442  0.00  0.00    -0.029 C 
ATOM      5  C   UNL     1       2.988  -0.638  -2.637  0.00  0.00    +0.031 C 
ATOM      6  C   UNL     1       2.163  -0.381  -1.399  0.00  0.00    +0.013 C 
ATOM      7  C   UNL     1       3.030   0.578  -3.564  0.00  0.00    +0.066 C 
ATOM      8  C   UNL     1       4.088   0.340  -4.643  0.00  0.00    +0.188 C 
ATOM      9  C   UNL     1       3.913  -0.992  -5.308  0.00  0.00    +0.054 C 
ATOM     10  C   UNL     1       3.215  -2.019  -4.761  0.00  0.00    +0.074 C 
ENDROOT
BRANCH   7  11
ATOM     11  C   UNL     1       1.682   0.768  -4.209  0.00  0.00    -0.041 A 
ATOM     12  C   UNL     1       1.361   0.072  -5.360  0.00  0.00    +0.004 A 
ATOM     13  C   UNL     1       0.124   0.246  -5.951  0.00  0.00    +0.000 A 
ATOM     14  C   UNL     1      -0.793   1.117  -5.392  0.00  0.00    +0.000 A 
ATOM     15  C   UNL     1      -0.473   1.812  -4.241  0.00  0.00    +0.000 A 
ATOM     16  C   UNL     1       0.763   1.634  -3.647  0.00  0.00    +0.004 A 
ENDBRANCH   7  11
BRANCH   1  18
ATOM     17  C   UNL     1      -0.136   0.762   0.030  0.00  0.00    +0.011 C 
ATOM     18  C   UNL     1      -0.003  -0.744  -0.206  0.00  0.00    -0.035 C 
ATOM     19  C   UNL     1       0.752  -1.378   0.964  0.00  0.00    +0.011 C 
ATOM     20  C   UNL     1      -1.396  -1.368  -0.312  0.00  0.00    +0.011 C 
ENDBRANCH   1  18
BRANCH   9  21
ATOM     21  N   UNL     1       4.488  -1.182  -6.533  0.00  0.00    -0.358 N 
ATOM     22  H   UNL     1       4.993  -0.466  -6.949  0.00  0.00    +0.142 HD
ATOM     23  H   UNL     1       4.392  -2.034  -6.987  0.00  0.00    +0.142 HD
ENDBRANCH   9  21
BRANCH  10  24
ATOM     24  C   UNL     1       3.113  -3.272  -5.447  0.00  0.00    +0.101 C 
ATOM     25  N   UNL     1       3.032  -4.266  -5.992  0.00  0.00    -0.191 NA
ENDBRANCH  10  24
BRANCH   8  26
ATOM     26  C   UNL     1       5.423   0.397  -4.027  0.00  0.00    +0.091 C 
ATOM     27  N   UNL     1       6.454   0.441  -3.551  0.00  0.00    -0.194 NA
ENDBRANCH   8  26
BRANCH   8  28
ATOM     28  C   UNL     1       3.984   1.401  -5.659  0.00  0.00    +0.091 C 
ATOM     29  N   UNL     1       3.904   2.219  -6.442  0.00  0.00    -0.194 NA
ENDBRANCH   8  28
TORSDOF 6
