REMARK  Name = ZINC16663478
REMARK  7 active torsions:
REMARK  status: ('A' for Active; 'I' for Inactive)
REMARK    1  A    between atoms: C_1  and  C_2
REMARK    2  A    between atoms: N_11  and  S_12
REMARK    3  A    between atoms: S_12  and  C_15
REMARK    4  A    between atoms: C_18  and  N_22
REMARK    5  A    between atoms: C_20  and  C_21
REMARK    6  A    between atoms: C_25  and  C_30
REMARK    7  A    between atoms: C_25  and  C_31
REMARK                            x       y       z     vdW  Elec       q    Type
REMARK                         _______ _______ _______ _____ _____    ______ ____
ROOT
ATOM      1  C   UNL     1       5.903   3.871   1.473  0.00  0.00    +0.112 A 
ATOM      2  C   UNL     1       6.782   4.473   2.354  0.00  0.00    +0.031 A 
ATOM      3  C   UNL     1       6.340   4.895   3.593  0.00  0.00    +0.027 A 
ATOM      4  C   UNL     1       5.013   4.706   3.956  0.00  0.00    +0.060 A 
ATOM      5  C   UNL     1       4.134   4.097   3.071  0.00  0.00    +0.030 A 
ATOM      6  C   UNL     1       4.581   3.681   1.832  0.00  0.00    -0.022 A 
ATOM      7  C   UNL     1       3.628   3.020   0.870  0.00  0.00    +0.046 C 
ENDROOT
BRANCH   4   8
ATOM      8  N   UNL     1       4.563   5.128   5.212  0.00  0.00    -0.143 N 
ATOM      9  C   UNL     1       3.301   5.456   5.529  0.00  0.00    +0.246 C 
ATOM     10  O   UNL     1       2.414   5.373   4.707  0.00  0.00    -0.273 OA
ATOM     11  C   UNL     1       3.013   5.921   6.924  0.00  0.00    +0.064 C 
ATOM     12  C   UNL     1       4.179   5.481   7.848  0.00  0.00    +0.205 C 
ATOM     13  S   UNL     1       5.505   5.322   6.582  0.00  0.00    +0.053 S 
ATOM     14  O   UNL     1       6.212   4.099   6.739  0.00  0.00    -0.155 OA
ATOM     15  O   UNL     1       6.190   6.555   6.407  0.00  0.00    -0.155 OA
ATOM     16  C   UNL     1       1.704   5.301   7.417  0.00  0.00    +0.022 C 
ATOM     17  C   UNL     1       2.895   7.447   6.935  0.00  0.00    +0.022 C 
ENDBRANCH   4   8
BRANCH   1  18
ATOM     18  S   UNL     1       6.469   3.340  -0.109  0.00  0.00    +0.074 S 
ATOM     19  O   UNL     1       6.019   2.002  -0.273  0.00  0.00    -0.150 OA
ATOM     20  O   UNL     1       7.843   3.696  -0.189  0.00  0.00    -0.150 OA
BRANCH  18  31
ATOM     21  C   UNL     1       6.827  11.913  -1.690  0.00  0.00    +0.044 C 
ATOM     22  C   UNL     1       6.788  10.445  -1.351  0.00  0.00    -0.049 A 
ATOM     23  C   UNL     1       7.480   9.961  -0.250  0.00  0.00    +0.005 A 
ATOM     24  C   UNL     1       7.460   8.630   0.080  0.00  0.00    +0.029 A 
ATOM     25  C   UNL     1       6.729   7.704  -0.698  0.00  0.00    +0.080 A 
ATOM     26  C   UNL     1       6.037   8.233  -1.811  0.00  0.00    +0.041 A 
ATOM     27  C   UNL     1       6.062   9.566  -2.134  0.00  0.00    +0.020 A 
ATOM     28  S   UNL     1       5.268   6.787  -2.501  0.00  0.00    -0.051 S 
ATOM     29  C   UNL     1       5.892   5.610  -1.309  0.00  0.00    +0.179 A 
ATOM     30  N   UNL     1       6.606   6.371  -0.512  0.00  0.00    -0.224 NA
ATOM     31  N   UNL     1       5.677   4.249  -1.244  0.00  0.00    -0.194 N 
ATOM     32  H   UNL     1       5.062   3.824  -1.862  0.00  0.00    +0.176 HD
ENDBRANCH  18  31
ENDBRANCH   1  18
TORSDOF 3
