REMARK  Name = ZINC12039632
REMARK  8 active torsions:
REMARK  status: ('A' for Active; 'I' for Inactive)
REMARK    1  A    between atoms: C_4  and  N_7
REMARK    2  A    between atoms: C_8  and  C_10
REMARK    3  A    between atoms: C_10  and  C_11
REMARK    4  A    between atoms: C_11  and  C_12
REMARK    5  A    between atoms: N_14  and  N_15
REMARK    6  A    between atoms: C_16  and  C_18
REMARK    7  A    between atoms: C_18  and  O_19
REMARK    8  A    between atoms: O_19  and  C_20
REMARK                            x       y       z     vdW  Elec       q    Type
REMARK                         _______ _______ _______ _____ _____    ______ ____
ROOT
ATOM      1  N   UNL     1       3.160  10.292   0.039  0.00  0.00    -0.232 N 
ATOM      2  C   UNL     1       2.101   9.457   0.044  0.00  0.00    +0.267 C 
ATOM      3  O   UNL     1       0.975   9.907   0.048  0.00  0.00    -0.271 OA
ATOM      4  H   UNL     1       4.061   9.932   0.036  0.00  0.00    +0.173 HD
ENDROOT
BRANCH   1   7
ATOM      5  C   UNL     1       4.017  12.512   0.035  0.00  0.00    +0.230 C 
ATOM      6  O   UNL     1       5.144  12.063   0.031  0.00  0.00    -0.274 OA
ATOM      7  N   UNL     1       2.959  11.678   0.040  0.00  0.00    -0.234 N 
ATOM      8  H   UNL     1       2.058  12.038   0.043  0.00  0.00    +0.173 HD
BRANCH   5   9
ATOM      9  C   UNL     1       3.801  14.004   0.036  0.00  0.00    +0.106 C 
BRANCH   9  10
ATOM     10  C   UNL     1       5.155  14.716   0.030  0.00  0.00    +0.105 C 
BRANCH  10  12
ATOM     11  N   UNL     1       5.997  17.041   0.026  0.00  0.00    -0.285 N 
ATOM     12  C   UNL     1       4.939  16.207   0.031  0.00  0.00    +0.218 C 
ATOM     13  O   UNL     1       3.812  16.657   0.035  0.00  0.00    -0.275 OA
ATOM     14  H   UNL     1       6.897  16.684   0.090  0.00  0.00    +0.155 HD
BRANCH  11  18
ATOM     15  C   UNL     1       5.406  21.155  -0.264  0.00  0.00    +0.000 A 
ATOM     16  C   UNL     1       4.502  20.376   0.436  0.00  0.00    +0.002 A 
ATOM     17  C   UNL     1       4.696  19.012   0.533  0.00  0.00    +0.023 A 
ATOM     18  C   UNL     1       5.799  18.423  -0.071  0.00  0.00    +0.033 A 
ATOM     19  C   UNL     1       6.707  19.209  -0.768  0.00  0.00    +0.023 A 
ATOM     20  C   UNL     1       6.505  20.572  -0.866  0.00  0.00    +0.002 A 
ENDBRANCH  11  18
ENDBRANCH  10  12
ENDBRANCH   9  10
ENDBRANCH   5   9
ENDBRANCH   1   7
BRANCH   2  21
ATOM     21  C   UNL     1       2.317   7.966   0.043  0.00  0.00    +0.326 C 
BRANCH  21  22
ATOM     22  O   UNL     1       1.052   7.301   0.049  0.00  0.00    -0.482 OA
BRANCH  22  23
ATOM     23  C   UNL     1       1.070   5.942   0.049  0.00  0.00    +0.136 A 
ATOM     24  C   UNL     1       2.294   5.268   0.044  0.00  0.00    +0.047 A 
ATOM     25  C   UNL     1       2.344   3.908   0.044  0.00  0.00    +0.012 A 
ATOM     26  C   UNL     1       1.150   3.167   0.049  0.00  0.00    -0.017 A 
ATOM     27  C   UNL     1       1.165   1.762   0.049  0.00  0.00    +0.008 A 
ATOM     28  C   UNL     1      -0.011   1.075   0.054  0.00  0.00    +0.001 A 
ATOM     29  C   UNL     1      -1.233   1.745   0.053  0.00  0.00    +0.001 A 
ATOM     30  C   UNL     1      -1.287   3.105   0.059  0.00  0.00    +0.010 A 
ATOM     31  C   UNL     1      -0.093   3.848   0.054  0.00  0.00    -0.000 A 
ATOM     32  C   UNL     1      -0.110   5.253   0.054  0.00  0.00    +0.067 A 
ATOM     33 BR   UNL     1      -1.756   6.184   0.060  0.00  0.00    -0.046 Br
ENDBRANCH  22  23
ENDBRANCH  21  22
ENDBRANCH   2  21
TORSDOF 8
