REMARK  Name = ZINC01752906
REMARK  2 active torsions:
REMARK  status: ('A' for Active; 'I' for Inactive)
REMARK    1  A    between atoms: C_4  and  C_7
REMARK    2  A    between atoms: C_9  and  C_17
REMARK                            x       y       z     vdW  Elec       q    Type
REMARK                         _______ _______ _______ _____ _____    ______ ____
ROOT
ATOM      1  C   UNL     1       3.691  -0.679  -0.037  0.00  0.00    +0.055 C 
ATOM      2  C   UNL     1       3.681  -2.182  -0.052  0.00  0.00    +0.088 C 
ATOM      3  C   UNL     1       4.863  -2.737  -0.854  0.00  0.00    +0.151 C 
ATOM      4  N   UNL     1       6.049  -1.951  -0.517  0.00  0.00    -0.222 N 
ATOM      5  C   UNL     1       5.982  -0.637  -0.144  0.00  0.00    +0.249 A 
ATOM      6  N   UNL     1       7.207  -0.225   0.073  0.00  0.00    -0.198 NA
ATOM      7  C   UNL     1       8.061  -1.228  -0.139  0.00  0.00    +0.247 A 
ATOM      8  N   UNL     1       7.395  -2.301  -0.497  0.00  0.00    -0.156 NA
ATOM      9  N   UNL     1       4.795   0.018  -0.045  0.00  0.00    -0.215 NA
ENDROOT
BRANCH   3  10
ATOM     10  C   UNL     1       4.577  -2.620  -2.329  0.00  0.00    +0.031 A 
ATOM     11  C   UNL     1       4.354  -1.376  -2.895  0.00  0.00    +0.130 A 
ATOM     12  C   UNL     1       4.091  -1.270  -4.250  0.00  0.00    +0.039 A 
ATOM     13  C   UNL     1       4.050  -2.406  -5.037  0.00  0.00    +0.004 A 
ATOM     14  C   UNL     1       4.272  -3.647  -4.472  0.00  0.00    +0.020 A 
ATOM     15  C   UNL     1       4.541  -3.755  -3.119  0.00  0.00    +0.049 A 
ATOM     16 CL   UNL     1       4.827  -5.314  -2.412  0.00  0.00    -0.083 Cl
ATOM     17  F   UNL     1       4.394  -0.267  -2.126  0.00  0.00    -0.205 F 
ENDBRANCH   3  10
BRANCH   1  21
ATOM     18  C   UNL     1      -0.017   1.380   0.010  0.00  0.00    +0.000 A 
ATOM     19  C   UNL     1       1.168   2.095   0.002  0.00  0.00    +0.001 A 
ATOM     20  C   UNL     1       2.377   1.433  -0.013  0.00  0.00    +0.010 A 
ATOM     21  C   UNL     1       2.405   0.035  -0.021  0.00  0.00    -0.004 A 
ATOM     22  C   UNL     1       1.203  -0.681  -0.013  0.00  0.00    +0.010 A 
ATOM     23  C   UNL     1       0.002  -0.004   0.002  0.00  0.00    +0.001 A 
ENDBRANCH   1  21
TORSDOF 2
