REMARK  Name = ZINC08717693
REMARK  4 active torsions:
REMARK  status: ('A' for Active; 'I' for Inactive)
REMARK    1  A    between atoms: C_1  and  N_52
REMARK    2  A    between atoms: C_11  and  C_13
REMARK    3  A    between atoms: C_24  and  O_27
REMARK    4  A    between atoms: O_27  and  C_28
REMARK                            x       y       z     vdW  Elec       q    Type
REMARK                         _______ _______ _______ _____ _____    ______ ____
ROOT
ATOM      1  C   UNL     1      -3.564   0.379   2.947  0.00  0.00    -0.096 C 
ATOM      2  C   UNL     1      -1.747  -1.008   2.151  0.00  0.00    -0.074 C 
ATOM      3  C   UNL     1      -1.272  -1.861   0.972  0.00  0.00    +0.052 C 
ATOM      4  C   UNL     1      -1.072  -0.968  -0.251  0.00  0.00    +0.190 C 
ATOM      5  C   UNL     1      -2.371  -0.231  -0.572  0.00  0.00    +0.052 C 
ATOM      6  C   UNL     1      -2.814   0.572   0.654  0.00  0.00    -0.074 C 
ATOM      7  N   UNL     1       0.002  -0.004   0.002  0.00  0.00    -0.207 N 
ATOM      8  C   UNL     1       1.391  -0.463   0.232  0.00  0.00    +0.136 C 
ATOM      9  C   UNL     1       2.210   0.818   0.026  0.00  0.00    +0.086 C 
ATOM     10  C   UNL     1       1.161   1.912   0.001  0.00  0.00    +0.068 C 
ATOM     11  N   UNL     1      -0.017   1.379   0.010  0.00  0.00    -0.185 NA
ATOM     12  C   UNL     1       1.680  -1.495  -0.827  0.00  0.00    +0.021 A 
ATOM     13  C   UNL     1       2.991  -1.863  -1.070  0.00  0.00    +0.024 A 
ATOM     14  C   UNL     1       3.283  -2.839  -2.004  0.00  0.00    +0.022 A 
ATOM     15  C   UNL     1       2.256  -3.449  -2.702  0.00  0.00    +0.064 A 
ATOM     16  C   UNL     1       0.946  -3.078  -2.471  0.00  0.00    +0.163 A 
ATOM     17  C   UNL     1       0.644  -2.085  -1.532  0.00  0.00    +0.170 A 
ATOM     18  O   UNL     1      -0.664  -1.755  -1.371  0.00  0.00    -0.463 OA
ATOM     19 BR   UNL     1       5.079  -3.337  -2.328  0.00  0.00    -0.050 Br
ATOM     20  N   UNL     1      -3.023  -0.356   1.786  0.00  0.00    +0.378 N 
ATOM     21  H   UNL     1      -3.697  -1.077   1.504  0.00  0.00    -0.082 HD
ENDROOT
BRANCH  10  22
ATOM     22  C   UNL     1       1.441   3.359  -0.028  0.00  0.00    -0.002 A 
ATOM     23  C   UNL     1       2.760   3.819  -0.029  0.00  0.00    +0.011 A 
ATOM     24  C   UNL     1       3.015   5.174  -0.062  0.00  0.00    +0.020 A 
ATOM     25  C   UNL     1       1.966   6.079  -0.083  0.00  0.00    +0.041 A 
ATOM     26  C   UNL     1       0.656   5.630  -0.076  0.00  0.00    +0.020 A 
ATOM     27  C   UNL     1       0.388   4.277  -0.049  0.00  0.00    +0.011 A 
ATOM     28 CL   UNL     1       2.296   7.783  -0.116  0.00  0.00    -0.084 Cl
ENDBRANCH  10  22
BRANCH  16  29
ATOM     29  O   UNL     1      -0.059  -3.681  -3.162  0.00  0.00    -0.491 OA
ATOM     30  C   UNL     1       0.316  -4.686  -4.107  0.00  0.00    +0.277 C 
ENDBRANCH  16  29
TORSDOF 2
