REMARK  Name = ZINC00064298
REMARK  3 active torsions:
REMARK  status: ('A' for Active; 'I' for Inactive)
REMARK    1  A    between atoms: C_3  and  O_19
REMARK    2  A    between atoms: C_4  and  C_8
REMARK    3  A    between atoms: N_9  and  C_10
REMARK                            x       y       z     vdW  Elec       q    Type
REMARK                         _______ _______ _______ _____ _____    ______ ____
ROOT
ATOM      1  C   UNL     1       3.688  -0.687  -0.038  0.00  0.00    +0.125 C 
ATOM      2  N   UNL     1       4.810  -0.018  -0.046  0.00  0.00    -0.229 NA
ENDROOT
BRANCH   2   3
ATOM      3  C   UNL     1       5.997  -0.680  -0.062  0.00  0.00    +0.193 A 
ATOM      4  N   UNL     1       6.233  -1.985  -0.077  0.00  0.00    -0.226 NA
ATOM      5  C   UNL     1       7.462  -2.485  -0.092  0.00  0.00    +0.054 A 
ATOM      6  C   UNL     1       8.495  -1.595  -0.090  0.00  0.00    +0.015 A 
ATOM      7  S   UNL     1       7.663  -0.028  -0.075  0.00  0.00    -0.053 S 
ATOM      8  C   UNL     1       9.957  -1.887  -0.102  0.00  0.00    +0.044 C 
ATOM      9  C   UNL     1      10.155  -3.370   0.247  0.00  0.00    +0.006 C 
ATOM     10  C   UNL     1       9.184  -4.205  -0.592  0.00  0.00    +0.006 C 
ATOM     11  C   UNL     1       7.749  -3.984  -0.111  0.00  0.00    +0.056 C 
ENDBRANCH   2   3
BRANCH   1  15
ATOM     12  C   UNL     1      -0.017   1.382   0.010  0.00  0.00    +0.019 A 
ATOM     13  C   UNL     1       1.165   2.098   0.002  0.00  0.00    +0.047 A 
ATOM     14  C   UNL     1       2.381   1.433  -0.013  0.00  0.00    +0.125 A 
ATOM     15  C   UNL     1       2.406   0.029  -0.021  0.00  0.00    +0.036 A 
ATOM     16  C   UNL     1       1.202  -0.683  -0.013  0.00  0.00    +0.028 A 
ATOM     17  C   UNL     1       0.002  -0.004   0.002  0.00  0.00    +0.019 A 
ATOM     18 BR   UNL     1      -1.625  -0.968   0.013  0.00  0.00    -0.050 Br
BRANCH  14  19
ATOM     19  O   UNL     1       3.542   2.136  -0.022  0.00  0.00    -0.506 OA
ATOM     20  H   UNL     1       3.887   2.335   0.859  0.00  0.00    +0.292 HD
ENDBRANCH  14  19
ENDBRANCH   1  15
TORSDOF 3
