REMARK  Name = ZINC64892725
REMARK  7 active torsions:
REMARK  status: ('A' for Active; 'I' for Inactive)
REMARK    1  A    between atoms: C_1  and  C_2
REMARK    2  A    between atoms: C_2  and  C_24
REMARK    3  A    between atoms: N_14  and  C_15
REMARK    4  A    between atoms: C_18  and  O_22
REMARK    5  A    between atoms: O_22  and  C_23
REMARK    6  A    between atoms: N_26  and  C_27
REMARK    7  A    between atoms: C_27  and  C_28
REMARK                            x       y       z     vdW  Elec       q    Type
REMARK                         _______ _______ _______ _____ _____    ______ ____
ROOT
ATOM      1  C   UNL     1      -0.704   1.282   0.385  0.00  0.00    +0.044 C 
ATOM      2  C   UNL     1      -0.311  -0.189   0.234  0.00  0.00    +0.133 C 
ATOM      3  C   UNL     1       0.018  -0.464  -1.232  0.00  0.00    +0.158 C 
ATOM      4  N   UNL     1       0.666  -1.776  -1.343  0.00  0.00    -0.328 N 
ATOM      5  C   UNL     1       1.441  -2.296  -0.304  0.00  0.00    +0.106 A 
ATOM      6  C   UNL     1       1.930  -3.493  -0.682  0.00  0.00    +0.041 A 
ATOM      7  C   UNL     1       1.450  -3.771  -2.000  0.00  0.00    +0.008 A 
ATOM      8  C   UNL     1       0.666  -2.665  -2.354  0.00  0.00    +0.088 A 
ATOM      9  S   UNL     1       0.097  -3.071  -3.986  0.00  0.00    -0.079 S 
ATOM     10  C   UNL     1       0.892  -4.656  -4.173  0.00  0.00    +0.048 A 
ATOM     11  C   UNL     1       1.543  -4.814  -3.013  0.00  0.00    +0.017 A 
ATOM     12  C   UNL     1       1.602  -1.556   0.954  0.00  0.00    +0.268 C 
ATOM     13  O   UNL     1       2.405  -1.900   1.802  0.00  0.00    -0.268 OA
ATOM     14  N   UNL     1       0.811  -0.471   1.122  0.00  0.00    -0.250 N 
ENDROOT
BRANCH  14  15
ATOM     15  C   UNL     1       1.077   0.407   2.180  0.00  0.00    +0.039 A 
ATOM     16  C   UNL     1       0.765   0.041   3.482  0.00  0.00    +0.027 A 
ATOM     17  C   UNL     1       1.028   0.907   4.525  0.00  0.00    +0.049 A 
ATOM     18  C   UNL     1       1.605   2.143   4.273  0.00  0.00    +0.138 A 
ATOM     19  C   UNL     1       1.919   2.510   2.971  0.00  0.00    +0.084 A 
ATOM     20  C   UNL     1       1.660   1.642   1.927  0.00  0.00    +0.047 A 
ATOM     21 CL   UNL     1       2.640   4.057   2.656  0.00  0.00    -0.080 Cl
BRANCH  18  22
ATOM     22  O   UNL     1       1.864   2.995   5.300  0.00  0.00    -0.494 OA
ATOM     23  C   UNL     1       1.516   2.552   6.614  0.00  0.00    +0.277 C 
ENDBRANCH  18  22
ENDBRANCH  14  15
BRANCH   2  24
ATOM     24  C   UNL     1      -1.481  -1.048   0.639  0.00  0.00    +0.239 C 
ATOM     25  O   UNL     1      -2.250  -1.461  -0.203  0.00  0.00    -0.273 OA
ATOM     26  N   UNL     1      -1.672  -1.359   1.936  0.00  0.00    -0.309 N 
ATOM     27  H   UNL     1      -1.057  -1.029   2.610  0.00  0.00    +0.149 HD
BRANCH  26  28
ATOM     28  C   UNL     1      -2.809  -2.195   2.329  0.00  0.00    +0.139 C 
BRANCH  28  29
ATOM     29  C   UNL     1      -2.795  -2.391   3.823  0.00  0.00    -0.030 A 
ATOM     30  C   UNL     1      -2.110  -3.459   4.373  0.00  0.00    +0.008 A 
ATOM     31  C   UNL     1      -2.096  -3.640   5.743  0.00  0.00    +0.038 A 
ATOM     32  C   UNL     1      -2.769  -2.752   6.565  0.00  0.00    +0.123 A 
ATOM     33  C   UNL     1      -3.455  -1.683   6.013  0.00  0.00    +0.038 A 
ATOM     34  C   UNL     1      -3.463  -1.501   4.643  0.00  0.00    +0.008 A 
ATOM     35  F   UNL     1      -2.757  -2.928   7.905  0.00  0.00    -0.205 F 
ENDBRANCH  28  29
ENDBRANCH  26  28
ENDBRANCH   2  24
TORSDOF 5
