REMARK  Name = ZINC43536946
REMARK  12 active torsions:
REMARK  status: ('A' for Active; 'I' for Inactive)
REMARK    1  A    between atoms: C_1  and  C_2
REMARK    2  A    between atoms: C_2  and  N_3
REMARK    3  A    between atoms: N_3  and  C_4
REMARK    4  A    between atoms: C_4  and  N_6
REMARK    5  A    between atoms: N_6  and  C_7
REMARK    6  A    between atoms: C_10  and  C_18
REMARK    7  A    between atoms: C_10  and  O_27
REMARK    8  A    between atoms: C_12  and  O_17
REMARK    9  A    between atoms: C_14  and  O_16
REMARK   10  A    between atoms: N_20  and  C_21
REMARK   11  A    between atoms: C_21  and  C_23
REMARK   12  A    between atoms: C_21  and  C_24
REMARK                            x       y       z     vdW  Elec       q    Type
REMARK                         _______ _______ _______ _____ _____    ______ ____
ROOT
ATOM      1  C   UNL     1      -3.116  -3.744   0.021  0.00  0.00    +0.106 C 
ATOM      2  C   UNL     1      -4.486  -4.034   0.638  0.00  0.00    +0.069 C 
ATOM      3  C   UNL     1      -4.741  -5.542   0.627  0.00  0.00    +0.146 C 
ATOM      4  C   UNL     1      -4.713  -6.054  -0.814  0.00  0.00    +0.078 C 
ATOM      5  C   UNL     1      -3.344  -5.764  -1.432  0.00  0.00    +0.148 C 
ATOM      6  C   UNL     1      -3.088  -4.256  -1.421  0.00  0.00    +0.163 C 
ENDROOT
BRANCH   3   7
ATOM      7  C   UNL     1      -3.672  -6.239   1.428  0.00  0.00    +0.245 C 
ATOM      8  O   UNL     1      -2.743  -6.776   0.862  0.00  0.00    -0.273 OA
ATOM      9  N   UNL     1      -3.747  -6.265   2.774  0.00  0.00    -0.302 N 
ATOM     10  H   UNL     1      -4.489  -5.835   3.226  0.00  0.00    +0.150 HD
BRANCH   9  11
ATOM     11  C   UNL     1      -2.707  -6.942   3.552  0.00  0.00    +0.156 C 
ATOM     12  C   UNL     1      -3.034  -8.433   3.651  0.00  0.00    +0.038 C 
BRANCH  11  13
ATOM     13  C   UNL     1      -2.648  -6.348   4.936  0.00  0.00    +0.231 C 
ATOM     14  O   UNL     1      -3.401  -5.447   5.241  0.00  0.00    -0.274 OA
ATOM     15  N   UNL     1      -1.759  -6.817   5.834  0.00  0.00    -0.328 N 
ATOM     16  H   UNL     1      -1.157  -7.537   5.590  0.00  0.00    +0.145 HD
ATOM     17  H   UNL     1      -1.721  -6.434   6.724  0.00  0.00    +0.145 HD
ENDBRANCH  11  13
ENDBRANCH   9  11
ENDBRANCH   3   7
BRANCH   1  18
ATOM     18  N   UNL     1      -2.871  -2.300   0.031  0.00  0.00    -0.321 N 
ATOM     19  H   UNL     1      -3.619  -1.681   0.042  0.00  0.00    +0.148 HD
BRANCH  18  20
ATOM     20  C   UNL     1      -1.608  -1.830   0.026  0.00  0.00    +0.131 C 
ATOM     21  S   UNL     1      -0.289  -2.922   0.006  0.00  0.00    -0.019 S 
BRANCH  20  22
ATOM     22  N   UNL     1      -1.383  -0.501   0.035  0.00  0.00    -0.327 N 
ATOM     23  H   UNL     1      -2.130   0.117   0.046  0.00  0.00    +0.148 HD
BRANCH  22  25
ATOM     24  C   UNL     1      -0.034   1.539   0.042  0.00  0.00    +0.024 C 
ATOM     25  C   UNL     1      -0.010   0.009   0.029  0.00  0.00    +0.100 C 
ENDBRANCH  22  25
ENDBRANCH  20  22
ENDBRANCH  18  20
ENDBRANCH   1  18
BRANCH   6  26
ATOM     26  O   UNL     1      -1.809  -3.985  -1.998  0.00  0.00    -0.387 OA
ATOM     27  H   UNL     1      -1.719  -4.283  -2.913  0.00  0.00    +0.210 HD
ENDBRANCH   6  26
BRANCH   5  28
ATOM     28  O   UNL     1      -3.318  -6.242  -2.778  0.00  0.00    -0.389 OA
ATOM     29  H   UNL     1      -3.473  -7.193  -2.861  0.00  0.00    +0.210 HD
ENDBRANCH   5  28
BRANCH   3  30
ATOM     30  O   UNL     1      -6.020  -5.813   1.204  0.00  0.00    -0.379 OA
ATOM     31  H   UNL     1      -6.249  -6.752   1.230  0.00  0.00    +0.211 HD
ENDBRANCH   3  30
TORSDOF 10
