REMARK  Name = ZINC63140709
REMARK  5 active torsions:
REMARK  status: ('A' for Active; 'I' for Inactive)
REMARK    1  A    between atoms: C_1  and  O_2
REMARK    2  A    between atoms: O_2  and  C_3
REMARK    3  A    between atoms: C_3  and  C_4
REMARK    4  A    between atoms: C_4  and  N_5
REMARK    5  A    between atoms: C_25  and  C_27
REMARK                            x       y       z     vdW  Elec       q    Type
REMARK                         _______ _______ _______ _____ _____    ______ ____
ROOT
ATOM      1  N   UNL     1      -0.776  -2.556  -1.119  0.00  0.00    -0.289 N 
ATOM      2  C   UNL     1      -1.608  -2.711   0.088  0.00  0.00    +0.203 C 
ATOM      3  C   UNL     1      -2.963  -2.090  -0.179  0.00  0.00    +0.234 C 
ATOM      4  O   UNL     1      -3.511  -1.385   0.641  0.00  0.00    -0.274 OA
ATOM      5  N   UNL     1      -3.542  -2.362  -1.395  0.00  0.00    -0.279 N 
ATOM      6  C   UNL     1      -2.811  -3.281  -2.240  0.00  0.00    +0.167 C 
ATOM      7  C   UNL     1      -1.366  -2.856  -2.314  0.00  0.00    +0.237 C 
ATOM      8  O   UNL     1      -0.765  -2.789  -3.365  0.00  0.00    -0.274 OA
ATOM      9  C   UNL     1      -3.380  -3.614  -3.595  0.00  0.00    +0.065 C 
ATOM     10  C   UNL     1      -4.541  -2.708  -3.899  0.00  0.00    -0.034 C 
ATOM     11  C   UNL     1      -4.918  -2.086  -5.007  0.00  0.00    -0.001 A 
ATOM     12  C   UNL     1      -4.361  -2.086  -6.370  0.00  0.00    +0.010 A 
ATOM     13  C   UNL     1      -5.006  -1.311  -7.282  0.00  0.00    +0.001 A 
ATOM     14  C   UNL     1      -6.135  -0.544  -6.979  0.00  0.00    +0.002 A 
ATOM     15  C   UNL     1      -6.717  -0.488  -5.755  0.00  0.00    +0.026 A 
ATOM     16  C   UNL     1      -6.132  -1.264  -4.712  0.00  0.00    +0.043 A 
ATOM     17  N   UNL     1      -6.483  -1.403  -3.470  0.00  0.00    -0.375 N 
ATOM     18  C   UNL     1      -5.561  -2.345  -2.822  0.00  0.00    +0.131 C 
ATOM     19  C   UNL     1      -4.781  -1.664  -1.707  0.00  0.00    +0.133 C 
ATOM     20  H   UNL     1      -7.230  -0.957  -3.040  0.00  0.00    +0.160 HD
ENDROOT
BRANCH  19  21
ATOM     21  C   UNL     1      -5.624  -1.580  -0.461  0.00  0.00    -0.025 A 
ATOM     22  C   UNL     1      -5.690  -2.658   0.403  0.00  0.00    +0.006 A 
ATOM     23  C   UNL     1      -6.462  -2.581   1.547  0.00  0.00    +0.015 A 
ATOM     24  C   UNL     1      -7.171  -1.426   1.826  0.00  0.00    +0.018 A 
ATOM     25  C   UNL     1      -7.105  -0.348   0.961  0.00  0.00    +0.015 A 
ATOM     26  C   UNL     1      -6.328  -0.424  -0.179  0.00  0.00    +0.006 A 
ATOM     27 BR   UNL     1      -8.229  -1.321   3.390  0.00  0.00    -0.050 Br
ENDBRANCH  19  21
BRANCH   1  28
ATOM     28  C   UNL     1       0.613  -2.097  -1.041  0.00  0.00    +0.136 C 
BRANCH  28  29
ATOM     29  C   UNL     1       0.652  -0.570  -1.138  0.00  0.00    +0.178 C 
BRANCH  29  31
ATOM     30  C   UNL     1      -0.017   1.425   0.010  0.00  0.00    +0.194 C 
ATOM     31  O   UNL     1       0.002  -0.004   0.002  0.00  0.00    -0.381 OA
ENDBRANCH  29  31
ENDBRANCH  28  29
ENDBRANCH   1  28
TORSDOF 4
