REMARK  Name = ZINC36024461
REMARK  8 active torsions:
REMARK  status: ('A' for Active; 'I' for Inactive)
REMARK    1  A    between atoms: C_1  and  C_2
REMARK    2  A    between atoms: C_2  and  C_3
REMARK    3  A    between atoms: C_3  and  C_5
REMARK    4  A    between atoms: C_3  and  C_6
REMARK    5  A    between atoms: N_10  and  C_28
REMARK    6  A    between atoms: N_15  and  S_18
REMARK    7  A    between atoms: S_18  and  C_21
REMARK    8  A    between atoms: C_28  and  C_29
REMARK                            x       y       z     vdW  Elec       q    Type
REMARK                         _______ _______ _______ _____ _____    ______ ____
ROOT
ATOM      1  C   UNL     1      -2.356  -2.387   0.160  0.00  0.00    +0.022 C 
ATOM      2  C   UNL     1      -1.321  -2.845  -0.845  0.00  0.00    +0.201 C 
ATOM      3  O   UNL     1      -0.211  -2.376  -0.983  0.00  0.00    -0.277 OA
ATOM      4  N   UNL     1      -1.843  -3.862  -1.563  0.00  0.00    -0.309 N 
ATOM      5  C   UNL     1      -3.203  -4.142  -1.097  0.00  0.00    +0.006 C 
ATOM      6  N   UNL     1      -3.637  -2.955  -0.326  0.00  0.00    +0.401 N 
ATOM      7  C   UNL     1      -3.209  -5.372  -0.192  0.00  0.00    +0.023 C 
ATOM      8  C   UNL     1      -2.721  -6.589  -0.986  0.00  0.00    +0.109 C 
ATOM      9  N   UNL     1      -3.537  -6.718  -2.201  0.00  0.00    -0.177 NA
ATOM     10  C   UNL     1      -3.656  -5.562  -3.099  0.00  0.00    +0.109 C 
ATOM     11  C   UNL     1      -4.136  -4.354  -2.288  0.00  0.00    +0.023 C 
ATOM     12  H   UNL     1      -4.223  -3.227   0.449  0.00  0.00    -0.082 HD
ATOM     13  H   UNL     1      -4.115  -2.298  -0.924  0.00  0.00    -0.082 HD
ENDROOT
BRANCH   9  14
ATOM     14  S   UNL     1      -4.308  -8.142  -2.551  0.00  0.00    +0.061 S 
ATOM     15  O   UNL     1      -4.515  -8.156  -3.957  0.00  0.00    -0.153 OA
ATOM     16  O   UNL     1      -3.593  -9.167  -1.875  0.00  0.00    -0.153 OA
BRANCH  14  17
ATOM     17  C   UNL     1      -5.904  -8.066  -1.807  0.00  0.00    +0.106 A 
ATOM     18  C   UNL     1      -6.085  -8.518  -0.513  0.00  0.00    +0.031 A 
ATOM     19  C   UNL     1      -7.336  -8.459   0.071  0.00  0.00    +0.040 A 
ATOM     20  C   UNL     1      -8.408  -7.947  -0.640  0.00  0.00    +0.124 A 
ATOM     21  C   UNL     1      -8.226  -7.495  -1.936  0.00  0.00    +0.040 A 
ATOM     22  C   UNL     1      -6.973  -7.550  -2.516  0.00  0.00    +0.031 A 
ATOM     23  F   UNL     1      -9.631  -7.889  -0.070  0.00  0.00    -0.205 F 
ENDBRANCH  14  17
ENDBRANCH   9  14
BRANCH   1  24
ATOM     24  C   UNL     1      -2.429  -0.859   0.191  0.00  0.00    -0.020 C 
ATOM     25  C   UNL     1      -2.744  -0.335  -1.212  0.00  0.00    +0.006 C 
BRANCH  24  27
ATOM     26  C   UNL     1      -1.197   1.225   0.808  0.00  0.00    +0.004 C 
ATOM     27  C   UNL     1      -1.086  -0.293   0.657  0.00  0.00    -0.001 C 
ENDBRANCH  24  27
ENDBRANCH   1  24
BRANCH   4  28
ATOM     28  C   UNL     1      -1.154  -4.575  -2.641  0.00  0.00    +0.141 C 
BRANCH  28  29
ATOM     29  C   UNL     1      -1.227  -3.763  -3.908  0.00  0.00    -0.030 A 
ATOM     30  C   UNL     1      -2.442  -3.580  -4.543  0.00  0.00    +0.008 A 
ATOM     31  C   UNL     1      -2.510  -2.834  -5.704  0.00  0.00    +0.038 A 
ATOM     32  C   UNL     1      -1.361  -2.270  -6.233  0.00  0.00    +0.123 A 
ATOM     33  C   UNL     1      -0.145  -2.454  -5.596  0.00  0.00    +0.038 A 
ATOM     34  C   UNL     1      -0.080  -3.195  -4.432  0.00  0.00    +0.008 A 
ATOM     35  F   UNL     1      -1.426  -1.541  -7.368  0.00  0.00    -0.205 F 
ENDBRANCH  28  29
ENDBRANCH   4  28
TORSDOF 6
