REMARK  Name = ZINC66063147
REMARK  12 active torsions:
REMARK  status: ('A' for Active; 'I' for Inactive)
REMARK    1  A    between atoms: C_1  and  C_2
REMARK    2  A    between atoms: C_2  and  C_4
REMARK    3  A    between atoms: C_2  and  N_10
REMARK    4  A    between atoms: C_11  and  C_13
REMARK    5  A    between atoms: C_17  and  N_19
REMARK    6  A    between atoms: C_20  and  C_22
REMARK    7  A    between atoms: C_22  and  N_23
REMARK    8  A    between atoms: N_23  and  C_24
REMARK    9  A    between atoms: C_28  and  O_30
REMARK   10  A    between atoms: O_30  and  C_31
REMARK   11  A    between atoms: C_31  and  C_32
REMARK   12  A    between atoms: C_32  and  C_34
REMARK                            x       y       z     vdW  Elec       q    Type
REMARK                         _______ _______ _______ _____ _____    ______ ____
ROOT
ATOM      1  C   UNL     1       2.580  -2.464  -4.202  0.00  0.00    +0.038 A 
ATOM      2  C   UNL     1       1.989  -1.388  -3.536  0.00  0.00    +0.013 A 
ATOM      3  C   UNL     1       2.779  -0.450  -2.904  0.00  0.00    +0.003 A 
ATOM      4  C   UNL     1       4.156  -0.571  -2.926  0.00  0.00    +0.023 A 
ATOM      5  C   UNL     1       4.754  -1.637  -3.586  0.00  0.00    +0.034 A 
ATOM      6  C   UNL     1       3.969  -2.589  -4.220  0.00  0.00    +0.036 A 
ENDROOT
BRANCH   1   8
ATOM      7  N   UNL     1       0.394  -3.348  -4.861  0.00  0.00    -0.305 N 
ATOM      8  C   UNL     1       1.736  -3.470  -4.880  0.00  0.00    +0.245 C 
ATOM      9  O   UNL     1       2.252  -4.409  -5.455  0.00  0.00    -0.270 OA
ATOM     10  H   UNL     1      -0.018  -2.599  -4.402  0.00  0.00    +0.150 HD
BRANCH   7  12
ATOM     11  C   UNL     1      -0.684  -5.526  -4.591  0.00  0.00    +0.033 C 
ATOM     12  C   UNL     1      -0.443  -4.345  -5.533  0.00  0.00    +0.100 C 
BRANCH  12  13
ATOM     13  C   UNL     1      -1.763  -3.723  -5.908  0.00  0.00    -0.027 A 
ATOM     14  C   UNL     1      -2.388  -2.850  -5.037  0.00  0.00    +0.005 A 
ATOM     15  C   UNL     1      -3.599  -2.279  -5.381  0.00  0.00    +0.000 A 
ATOM     16  C   UNL     1      -4.186  -2.582  -6.595  0.00  0.00    +0.000 A 
ATOM     17  C   UNL     1      -3.561  -3.454  -7.466  0.00  0.00    +0.000 A 
ATOM     18  C   UNL     1      -2.347  -4.022  -7.125  0.00  0.00    +0.005 A 
ENDBRANCH  12  13
ENDBRANCH   7  12
ENDBRANCH   1   8
BRANCH   5  19
ATOM     19  N   UNL     1       6.148  -1.755  -3.606  0.00  0.00    -0.284 N 
ATOM     20  C   UNL     1       6.764  -2.285  -4.682  0.00  0.00    +0.234 C 
ATOM     21  O   UNL     1       6.121  -2.571  -5.669  0.00  0.00    -0.274 OA
ATOM     22  H   UNL     1       6.671  -1.455  -2.846  0.00  0.00    +0.155 HD
BRANCH  20  23
ATOM     23  C   UNL     1       8.252  -2.521  -4.657  0.00  0.00    +0.198 C 
BRANCH  23  24
ATOM     24  N   UNL     1       8.676  -3.100  -5.934  0.00  0.00    -0.335 N 
ATOM     25  H   UNL     1       8.023  -3.269  -6.631  0.00  0.00    +0.147 HD
BRANCH  24  26
ATOM     26  C   UNL     1      10.021  -3.408  -6.149  0.00  0.00    +0.031 A 
ATOM     27  C   UNL     1      10.958  -3.172  -5.150  0.00  0.00    +0.023 A 
ATOM     28  C   UNL     1      12.288  -3.477  -5.363  0.00  0.00    +0.005 A 
ATOM     29  C   UNL     1      12.691  -4.018  -6.569  0.00  0.00    +0.046 A 
ATOM     30  C   UNL     1      11.761  -4.256  -7.571  0.00  0.00    +0.123 A 
ATOM     31  C   UNL     1      10.424  -3.956  -7.359  0.00  0.00    +0.068 A 
BRANCH  30  32
ATOM     32  O   UNL     1      12.159  -4.788  -8.756  0.00  0.00    -0.488 OA
BRANCH  32  33
ATOM     33  C   UNL     1      13.551  -5.077  -8.902  0.00  0.00    +0.259 C 
BRANCH  33  34
ATOM     34  C   UNL     1      13.802  -5.657 -10.271  0.00  0.00    -0.043 C 
ATOM     35  C   UNL     1      12.807  -5.819 -11.106  0.00  0.00    +0.011 C 
ATOM     36  C   UNL     1      15.199  -6.049 -10.678  0.00  0.00    +0.042 C 
ENDBRANCH  33  34
ENDBRANCH  32  33
ENDBRANCH  30  32
ENDBRANCH  24  26
ENDBRANCH  23  24
ENDBRANCH  20  23
ENDBRANCH   5  19
TORSDOF 10
