REMARK  Name = ZINC10994896
REMARK  4 active torsions:
REMARK  status: ('A' for Active; 'I' for Inactive)
REMARK    1  A    between atoms: C_1  and  C_2
REMARK    2  A    between atoms: N_4  and  C_5
REMARK    3  A    between atoms: C_8  and  C_12
REMARK    4  A    between atoms: C_18  and  C_20
REMARK                            x       y       z     vdW  Elec       q    Type
REMARK                         _______ _______ _______ _____ _____    ______ ____
ROOT
ATOM      1  C   UNL     1       1.179  -1.979   5.662  0.00  0.00    +0.083 A 
ATOM      2  C   UNL     1      -0.099  -2.314   6.014  0.00  0.00    +0.077 A 
ATOM      3  S   UNL     1      -1.024  -1.482   4.730  0.00  0.00    -0.060 S 
ATOM      4  C   UNL     1       0.374  -0.781   3.865  0.00  0.00    +0.165 A 
ATOM      5  N   UNL     1       1.383  -1.225   4.592  0.00  0.00    -0.225 NA
ATOM      6  N   UNL     1       0.395   0.015   2.727  0.00  0.00    -0.262 N 
ATOM      7  C   UNL     1      -0.760   0.357   2.122  0.00  0.00    +0.260 C 
ATOM      8  O   UNL     1      -1.818  -0.030   2.572  0.00  0.00    -0.271 OA
ATOM      9  H   UNL     1       1.241   0.325   2.367  0.00  0.00    +0.157 HD
ENDROOT
BRANCH   7  10
ATOM     10  C   UNL     1      -0.738   1.221   0.887  0.00  0.00    +0.263 C 
ATOM     11  C   UNL     1      -0.045   0.484  -0.284  0.00  0.00    +0.093 C 
ATOM     12  C   UNL     1      -0.863   0.948  -1.474  0.00  0.00    -0.000 A 
ATOM     13  C   UNL     1      -0.630   0.898  -2.831  0.00  0.00    +0.027 A 
ATOM     14  C   UNL     1      -1.566   1.413  -3.712  0.00  0.00    +0.041 A 
ATOM     15  C   UNL     1      -2.732   1.975  -3.223  0.00  0.00    +0.023 A 
ATOM     16  C   UNL     1      -2.967   2.022  -1.865  0.00  0.00    +0.047 A 
ATOM     17  C   UNL     1      -2.033   1.503  -0.973  0.00  0.00    +0.125 A 
ATOM     18  O   UNL     1      -2.070   1.430   0.387  0.00  0.00    -0.479 OA
ATOM     19 CL   UNL     1      -1.278   1.353  -5.423  0.00  0.00    -0.084 Cl
ENDBRANCH   7  10
BRANCH   1  23
ATOM     20  C   UNL     1       4.475  -3.363   7.971  0.00  0.00    +0.036 A 
ATOM     21  C   UNL     1       4.695  -2.567   6.853  0.00  0.00    +0.024 A 
ATOM     22  C   UNL     1       3.629  -2.117   6.104  0.00  0.00    +0.015 A 
ATOM     23  C   UNL     1       2.328  -2.462   6.467  0.00  0.00    +0.036 A 
ATOM     24  C   UNL     1       2.108  -3.256   7.593  0.00  0.00    +0.134 A 
ATOM     25  C   UNL     1       3.180  -3.708   8.337  0.00  0.00    +0.062 A 
ATOM     26  F   UNL     1       0.848  -3.587   7.952  0.00  0.00    -0.205 F 
BRANCH  20  30
ATOM     27  C   UNL     1       7.871  -3.583   9.578  0.00  0.00    +0.109 C 
ATOM     28  C   UNL     1       6.658  -3.048   8.862  0.00  0.00    +0.214 C 
ATOM     29  O   UNL     1       6.670  -1.924   8.406  0.00  0.00    -0.276 OA
ATOM     30  N   UNL     1       5.560  -3.817   8.729  0.00  0.00    -0.286 N 
ATOM     31  H   UNL     1       5.521  -4.685   9.160  0.00  0.00    +0.155 HD
ENDBRANCH  20  30
ENDBRANCH   1  23
TORSDOF 3
