REMARK  Name = ZINC39324898
REMARK  10 active torsions:
REMARK  status: ('A' for Active; 'I' for Inactive)
REMARK    1  A    between atoms: C_1  and  C_2
REMARK    2  A    between atoms: C_4  and  C_38
REMARK    3  A    between atoms: C_7  and  C_14
REMARK    4  A    between atoms: C_14  and  N_15
REMARK    5  A    between atoms: N_15  and  C_16
REMARK    6  A    between atoms: N_15  and  S_26
REMARK    7  A    between atoms: C_16  and  C_17
REMARK    8  A    between atoms: S_26  and  C_29
REMARK    9  A    between atoms: C_32  and  C_35
REMARK   10  A    between atoms: C_35  and  C_37
REMARK                            x       y       z     vdW  Elec       q    Type
REMARK                         _______ _______ _______ _____ _____    ______ ____
ROOT
ATOM      1  N   UNL     1      -1.041  -6.678   2.477  0.00  0.00    -0.171 NA
ENDROOT
BRANCH   1   2
ATOM      2  S   UNL     1      -0.204  -8.102   2.358  0.00  0.00    +0.061 S 
ATOM      3  O   UNL     1      -0.653  -8.927   3.424  0.00  0.00    -0.153 OA
ATOM      4  O   UNL     1      -0.281  -8.506   0.998  0.00  0.00    -0.153 OA
BRANCH   2   5
ATOM      5  C   UNL     1       1.490  -7.739   2.680  0.00  0.00    +0.106 A 
ATOM      6  C   UNL     1       2.329  -7.389   1.637  0.00  0.00    +0.029 A 
ATOM      7  C   UNL     1       3.656  -7.104   1.882  0.00  0.00    +0.013 A 
ATOM      8  C   UNL     1       4.153  -7.170   3.187  0.00  0.00    +0.017 A 
ATOM      9  C   UNL     1       3.298  -7.524   4.236  0.00  0.00    +0.013 A 
ATOM     10  C   UNL     1       1.972  -7.800   3.976  0.00  0.00    +0.029 A 
BRANCH   8  11
ATOM     11  C   UNL     1       5.568  -6.867   3.457  0.00  0.00    +0.160 C 
ATOM     12  O   UNL     1       6.306  -6.561   2.545  0.00  0.00    -0.292 OA
ATOM     13  C   UNL     1       6.099  -6.939   4.865  0.00  0.00    +0.091 C 
ENDBRANCH   8  11
ENDBRANCH   2   5
ENDBRANCH   1   2
BRANCH   1  14
ATOM     14  C   UNL     1      -1.222  -5.834   1.293  0.00  0.00    +0.126 C 
BRANCH  14  21
ATOM     15  C   UNL     1      -0.164   1.523   0.309  0.00  0.00    +0.044 C 
ATOM     16  C   UNL     1      -0.170   0.020   0.203  0.00  0.00    -0.048 A 
ATOM     17  C   UNL     1      -0.349  -0.561  -1.052  0.00  0.00    +0.007 A 
ATOM     18  C   UNL     1      -0.364  -1.910  -1.212  0.00  0.00    -0.042 A 
ATOM     19  C   UNL     1      -0.187  -2.761  -0.035  0.00  0.00    -0.004 A 
ATOM     20  C   UNL     1      -0.195  -4.120  -0.147  0.00  0.00    -0.003 C 
ATOM     21  C   UNL     1      -0.003  -4.923   1.125  0.00  0.00    +0.114 C 
ATOM     22  C   UNL     1       0.180  -4.153   2.413  0.00  0.00    +0.225 C 
ATOM     23  O   UNL     1       0.338  -4.747   3.463  0.00  0.00    -0.275 OA
ATOM     24  N   UNL     1       0.169  -2.830   2.394  0.00  0.00    -0.284 N 
ATOM     25  C   UNL     1       0.001  -2.120   1.278  0.00  0.00    +0.041 A 
ATOM     26  C   UNL     1       0.005  -0.714   1.333  0.00  0.00    +0.027 A 
ATOM     27  C   UNL     1      -0.560  -2.519  -2.576  0.00  0.00    +0.044 C 
ATOM     28  H   UNL     1       0.288  -2.355   3.231  0.00  0.00    +0.155 HD
ENDBRANCH  14  21
ENDBRANCH   1  14
BRANCH   1  29
ATOM     29  C   UNL     1      -1.601  -6.262   3.765  0.00  0.00    +0.144 C 
BRANCH  29  30
ATOM     30  C   UNL     1      -3.033  -6.721   3.862  0.00  0.00    -0.028 A 
ATOM     31  C   UNL     1      -4.051  -5.903   3.411  0.00  0.00    +0.009 A 
ATOM     32  C   UNL     1      -5.367  -6.319   3.498  0.00  0.00    +0.050 A 
ATOM     33  C   UNL     1      -5.667  -7.559   4.038  0.00  0.00    +0.166 A 
ATOM     34  C   UNL     1      -4.641  -8.384   4.492  0.00  0.00    +0.167 A 
ATOM     35  C   UNL     1      -3.325  -7.962   4.397  0.00  0.00    +0.054 A 
ATOM     36  O   UNL     1      -5.189  -9.538   4.974  0.00  0.00    -0.453 OA
ATOM     37  C   UNL     1      -6.582  -9.242   5.185  0.00  0.00    +0.466 C 
ATOM     38  O   UNL     1      -6.858  -8.197   4.234  0.00  0.00    -0.453 OA
ENDBRANCH  29  30
ENDBRANCH   1  29
TORSDOF 7
