REMARK  Name = ZINC02357699
REMARK  7 active torsions:
REMARK  status: ('A' for Active; 'I' for Inactive)
REMARK    1  A    between atoms: C_1  and  O_2
REMARK    2  A    between atoms: O_2  and  C_3
REMARK    3  A    between atoms: C_3  and  C_5
REMARK    4  A    between atoms: C_5  and  C_35
REMARK    5  A    between atoms: C_6  and  C_28
REMARK    6  A    between atoms: C_8  and  C_20
REMARK    7  A    between atoms: C_20  and  C_22
REMARK                            x       y       z     vdW  Elec       q    Type
REMARK                         _______ _______ _______ _____ _____    ______ ____
ROOT
ATOM      1  C   UNL     1      -1.477   1.845   0.072  0.00  0.00    +0.183 C 
ATOM      2  C   UNL     1      -2.422   0.666   0.426  0.00  0.00    +0.078 C 
ATOM      3  C   UNL     1      -3.800   1.216  -0.034  0.00  0.00    +0.138 C 
ATOM      4  C   UNL     1      -2.120   2.471  -1.176  0.00  0.00    +0.119 C 
ATOM      5  C   UNL     1      -1.381   2.071  -2.426  0.00  0.00    -0.019 A 
ATOM      6  C   UNL     1      -0.014   1.925  -2.428  0.00  0.00    +0.006 A 
ATOM      7  C   UNL     1       0.642   1.552  -3.589  0.00  0.00    +0.000 A 
ATOM      8  C   UNL     1      -0.074   1.323  -4.751  0.00  0.00    +0.001 A 
ATOM      9  C   UNL     1      -1.446   1.467  -4.763  0.00  0.00    +0.008 A 
ATOM     10  C   UNL     1      -2.115   1.846  -3.598  0.00  0.00    -0.019 A 
ATOM     11  C   UNL     1      -3.583   2.014  -3.606  0.00  0.00    +0.022 C 
ATOM     12  C   UNL     1      -4.252   2.032  -2.434  0.00  0.00    +0.054 C 
ATOM     13  N   UNL     1      -3.538   2.228  -1.106  0.00  0.00    -0.383 NA
ATOM     14  H   UNL     1      -3.935   3.103  -0.746  0.00  0.00    +0.127 HD
ENDROOT
BRANCH   2  15
ATOM     15  C   UNL     1      -2.051  -0.574  -0.346  0.00  0.00    -0.040 A 
ATOM     16  C   UNL     1      -2.412  -0.694  -1.675  0.00  0.00    +0.005 A 
ATOM     17  C   UNL     1      -2.067  -1.829  -2.385  0.00  0.00    +0.015 A 
ATOM     18  C   UNL     1      -1.372  -2.849  -1.762  0.00  0.00    +0.018 A 
ATOM     19  C   UNL     1      -1.016  -2.731  -0.430  0.00  0.00    +0.015 A 
ATOM     20  C   UNL     1      -1.356  -1.593   0.277  0.00  0.00    +0.005 A 
ATOM     21 BR   UNL     1      -0.907  -4.405  -2.731  0.00  0.00    -0.050 Br
ENDBRANCH   2  15
BRANCH   1  22
ATOM     22  C   UNL     1      -0.094   1.336  -0.245  0.00  0.00    +0.330 C 
ATOM     23  O   UNL     1       0.876   1.912   0.189  0.00  0.00    -0.249 OA
BRANCH  22  25
ATOM     24  C   UNL     1       1.413  -0.263  -1.170  0.00  0.00    +0.280 C 
ATOM     25  O   UNL     1       0.060   0.241  -1.005  0.00  0.00    -0.467 OA
ENDBRANCH  22  25
ENDBRANCH   1  22
BRANCH   3  26
ATOM     26  C   UNL     1      -4.361   2.167   0.992  0.00  0.00    +0.182 C 
ATOM     27  O   UNL     1      -4.272   3.364   0.823  0.00  0.00    -0.290 OA
BRANCH  26  28
ATOM     28  C   UNL     1      -5.018   1.641   2.200  0.00  0.00    +0.019 A 
ATOM     29  C   UNL     1      -5.128   0.261   2.397  0.00  0.00    +0.011 A 
ATOM     30  C   UNL     1      -5.740  -0.223   3.533  0.00  0.00    +0.001 A 
ATOM     31  C   UNL     1      -6.255   0.653   4.473  0.00  0.00    +0.000 A 
ATOM     32  C   UNL     1      -6.154   2.020   4.284  0.00  0.00    +0.001 A 
ATOM     33  C   UNL     1      -5.540   2.520   3.155  0.00  0.00    +0.011 A 
ENDBRANCH  26  28
ENDBRANCH   3  26
BRANCH   1  34
ATOM     34  C   UNL     1      -1.427   2.820   1.173  0.00  0.00    +0.084 C 
ATOM     35  N   UNL     1      -1.389   3.573   2.023  0.00  0.00    -0.195 NA
ENDBRANCH   1  34
TORSDOF 6
