REMARK  Name = ZINC29889846
REMARK  11 active torsions:
REMARK  status: ('A' for Active; 'I' for Inactive)
REMARK    1  A    between atoms: C_1  and  C_2
REMARK    2  A    between atoms: C_2  and  N_3
REMARK    3  A    between atoms: C_6  and  N_9
REMARK    4  A    between atoms: C_10  and  C_12
REMARK    5  A    between atoms: C_12  and  S_13
REMARK    6  A    between atoms: S_13  and  C_14
REMARK    7  A    between atoms: N_27  and  C_28
REMARK    8  A    between atoms: C_28  and  C_29
REMARK    9  A    between atoms: C_29  and  C_30
REMARK   10  A    between atoms: C_30  and  C_31
REMARK   11  A    between atoms: C_30  and  C_32
REMARK                            x       y       z     vdW  Elec       q    Type
REMARK                         _______ _______ _______ _____ _____    ______ ____
ROOT
ATOM      1  C   UNL     1      -0.335   2.752   1.766  0.00  0.00    +0.173 A 
ATOM      2  N   UNL     1      -0.935   3.208   2.846  0.00  0.00    -0.216 NA
ATOM      3  C   UNL     1      -1.903   2.512   3.432  0.00  0.00    +0.117 A 
ATOM      4  C   UNL     1      -2.337   1.272   2.935  0.00  0.00    +0.076 A 
ATOM      5  C   UNL     1      -3.413   0.623   3.687  0.00  0.00    -0.023 A 
ATOM      6  C   UNL     1      -3.878   1.272   4.773  0.00  0.00    -0.004 A 
ATOM      7  S   UNL     1      -2.926   2.765   4.860  0.00  0.00    -0.073 S 
ATOM      8  C   UNL     1      -4.965   0.824   5.702  0.00  0.00    +0.043 C 
ATOM      9  C   UNL     1      -5.737  -0.319   5.028  0.00  0.00    +0.005 C 
ATOM     10  C   UNL     1      -4.731  -1.331   4.472  0.00  0.00    +0.005 C 
ATOM     11  C   UNL     1      -3.994  -0.727   3.276  0.00  0.00    +0.037 C 
ATOM     12  C   UNL     1      -1.671   0.804   1.758  0.00  0.00    +0.263 A 
ATOM     13  O   UNL     1      -1.982  -0.262   1.254  0.00  0.00    -0.267 OA
ATOM     14  N   UNL     1      -0.698   1.558   1.213  0.00  0.00    -0.287 N 
ENDROOT
BRANCH   1  15
ATOM     15  S   UNL     1       0.950   3.699   1.020  0.00  0.00    -0.078 S 
BRANCH  15  16
ATOM     16  C   UNL     1       0.989   5.117   2.145  0.00  0.00    +0.173 C 
BRANCH  16  18
ATOM     17  N   UNL     1       2.256   7.228   2.381  0.00  0.00    -0.312 N 
ATOM     18  C   UNL     1       2.046   6.090   1.691  0.00  0.00    +0.224 C 
ATOM     19  O   UNL     1       2.709   5.849   0.704  0.00  0.00    -0.275 OA
ATOM     20  H   UNL     1       1.655   7.447   3.276  0.00  0.00    +0.149 HD
BRANCH  17  24
ATOM     21  N   UNL     1       5.321  10.110   2.602  0.00  0.00    +0.380 N 
ATOM     22  C   UNL     1       4.043  10.551   2.029  0.00  0.00    -0.077 C 
ATOM     23  C   UNL     1       2.936   9.579   2.441  0.00  0.00    +0.003 C 
ATOM     24  C   UNL     1       3.284   8.174   1.940  0.00  0.00    +0.069 C 
ATOM     25  C   UNL     1       4.641   7.759   2.513  0.00  0.00    +0.003 C 
ATOM     26  C   UNL     1       5.700   8.784   2.099  0.00  0.00    -0.077 C 
ATOM     27  H   UNL     1       5.190  10.031   3.691  0.00  0.00    -0.082 HD
BRANCH  21  29
ATOM     28  C   UNL     1       7.736  10.496   2.729  0.00  0.00    -0.017 C 
ATOM     29  C   UNL     1       6.382  11.094   2.343  0.00  0.00    -0.082 C 
ENDBRANCH  21  29
ENDBRANCH  17  24
ENDBRANCH  16  18
ENDBRANCH  15  16
ENDBRANCH   1  15
BRANCH  14  30
ATOM     30  C   UNL     1      -0.013   1.086   0.008  0.00  0.00    +0.127 C 
BRANCH  30  31
ATOM     31  C   UNL     1      -0.753   1.593  -1.232  0.00  0.00    +0.025 C 
BRANCH  31  32
ATOM     32  C   UNL     1      -0.037   1.099  -2.490  0.00  0.00    -0.016 C 
ATOM     33  C   UNL     1      -0.844   1.500  -3.727  0.00  0.00    +0.007 C 
ATOM     34  C   UNL     1       1.356   1.729  -2.565  0.00  0.00    +0.007 C 
ENDBRANCH  31  32
ENDBRANCH  30  31
ENDBRANCH  14  30
TORSDOF 8
