REMARK  Name = ZINC45169041
REMARK  5 active torsions:
REMARK  status: ('A' for Active; 'I' for Inactive)
REMARK    1  A    between atoms: C_3  and  C_23
REMARK    2  A    between atoms: C_5  and  C_7
REMARK    3  A    between atoms: C_11  and  C_13
REMARK    4  A    between atoms: C_23  and  N_24
REMARK    5  A    between atoms: N_27  and  C_30
REMARK                            x       y       z     vdW  Elec       q    Type
REMARK                         _______ _______ _______ _____ _____    ______ ____
ROOT
ATOM      1  C   UNL     1      -0.031   1.355   0.043  0.00  0.00    +0.001 A 
ATOM      2  C   UNL     1       1.151   2.073   0.028  0.00  0.00    +0.005 A 
ATOM      3  C   UNL     1       2.367   1.413   0.001  0.00  0.00    -0.033 A 
ATOM      4  C   UNL     1       2.405   0.034  -0.012  0.00  0.00    +0.013 A 
ATOM      5  C   UNL     1       1.218  -0.694   0.004  0.00  0.00    -0.018 A 
ATOM      6  C   UNL     1      -0.004  -0.024   0.031  0.00  0.00    +0.008 A 
ENDROOT
BRANCH   5   7
ATOM      7  C   UNL     1       1.253  -2.178  -0.010  0.00  0.00    -0.017 A 
ATOM      8  C   UNL     1       2.477  -2.847  -0.033  0.00  0.00    +0.008 A 
ATOM      9  C   UNL     1       2.512  -4.227  -0.046  0.00  0.00    +0.001 A 
ATOM     10  C   UNL     1       1.338  -4.954  -0.037  0.00  0.00    +0.011 A 
ATOM     11  C   UNL     1       0.108  -4.296  -0.015  0.00  0.00    +0.018 A 
ATOM     12  C   UNL     1       0.067  -2.903   0.005  0.00  0.00    +0.020 A 
BRANCH  11  13
ATOM     13  C   UNL     1      -1.150  -5.075  -0.006  0.00  0.00    +0.139 A 
ATOM     14  N   UNL     1      -2.355  -4.561   0.009  0.00  0.00    -0.228 NA
ATOM     15  C   UNL     1      -3.275  -5.556   0.013  0.00  0.00    +0.090 A 
ATOM     16  C   UNL     1      -4.673  -5.571   0.027  0.00  0.00    +0.033 A 
ATOM     17  C   UNL     1      -5.342  -6.762   0.026  0.00  0.00    +0.040 A 
ATOM     18  C   UNL     1      -4.646  -7.965   0.012  0.00  0.00    +0.125 A 
ATOM     19  C   UNL     1      -3.266  -7.974  -0.002  0.00  0.00    +0.066 A 
ATOM     20  C   UNL     1      -2.570  -6.773  -0.002  0.00  0.00    +0.069 A 
ATOM     21  N   UNL     1      -1.230  -6.442  -0.018  0.00  0.00    -0.338 N 
ATOM     22  F   UNL     1      -5.325  -9.133   0.013  0.00  0.00    -0.205 F 
ATOM     23  H   UNL     1      -0.484  -7.062  -0.034  0.00  0.00    +0.167 HD
ENDBRANCH  11  13
ENDBRANCH   5   7
BRANCH   3  24
ATOM     24  C   UNL     1       3.651   2.202  -0.016  0.00  0.00    +0.119 C 
BRANCH  24  25
ATOM     25  N   UNL     1       4.093   2.447   1.363  0.00  0.00    -0.295 NA
ATOM     26  C   UNL     1       3.148   3.320   2.072  0.00  0.00    +0.103 C 
ATOM     27  C   UNL     1       3.545   3.404   3.550  0.00  0.00    +0.120 C 
ATOM     28  N   UNL     1       4.954   3.817   3.632  0.00  0.00    -0.327 N 
ATOM     29  C   UNL     1       5.944   3.073   2.838  0.00  0.00    +0.120 C 
ATOM     30  C   UNL     1       5.453   3.002   1.389  0.00  0.00    +0.103 C 
BRANCH  28  31
ATOM     31  C   UNL     1       5.340   4.883   4.439  0.00  0.00    +0.032 A 
ATOM     32  C   UNL     1       4.390   5.657   5.104  0.00  0.00    +0.040 A 
ATOM     33  C   UNL     1       4.814   6.705   5.894  0.00  0.00    +0.084 A 
ATOM     34  N   UNL     1       6.098   6.977   6.025  0.00  0.00    -0.367 N 
ATOM     35  C   UNL     1       7.028   6.269   5.412  0.00  0.00    +0.084 A 
ATOM     36  C   UNL     1       6.687   5.201   4.608  0.00  0.00    +0.040 A 
ATOM     37  H   UNL     1       6.367   7.720   6.588  0.00  0.00    +0.165 HD
ENDBRANCH  28  31
ENDBRANCH  24  25
ENDBRANCH   3  24
TORSDOF 5
