REMARK  Name = ZINC43519932
REMARK  5 active torsions:
REMARK  status: ('A' for Active; 'I' for Inactive)
REMARK    1  A    between atoms: C_1  and  C_2
REMARK    2  A    between atoms: C_2  and  C_4
REMARK    3  A    between atoms: C_2  and  O_11
REMARK    4  A    between atoms: C_6  and  C_9
REMARK    5  A    between atoms: O_11  and  C_12
REMARK                            x       y       z     vdW  Elec       q    Type
REMARK                         _______ _______ _______ _____ _____    ______ ____
ROOT
ATOM      1  C   UNL     1       0.290   1.280  -0.134  0.00  0.00    +0.059 C 
ATOM      2  C   UNL     1       0.064  -0.228  -0.010  0.00  0.00    +0.225 C 
ENDROOT
BRANCH   2   3
ATOM      3  C   UNL     1       0.693  -0.727   1.265  0.00  0.00    +0.119 A 
ATOM      4  N   UNL     1       1.803  -1.406   1.413  0.00  0.00    -0.244 NA
ATOM      5  C   UNL     1       2.227  -1.775   2.606  0.00  0.00    +0.063 A 
ATOM      6  C   UNL     1       1.461  -1.419   3.669  0.00  0.00    +0.071 A 
ATOM      7  S   UNL     1       0.142  -0.542   2.845  0.00  0.00    -0.077 S 
BRANCH   5   8
ATOM      8  C   UNL     1       3.504  -2.556   2.781  0.00  0.00    +0.164 C 
ATOM      9 CL   UNL     1       4.883  -1.414   2.991  0.00  0.00    -0.119 Cl
ENDBRANCH   5   8
ENDBRANCH   2   3
BRANCH   2  10
ATOM     10  O   UNL     1      -1.339  -0.499   0.012  0.00  0.00    -0.482 OA
BRANCH  10  11
ATOM     11  C   UNL     1      -1.966  -0.607  -1.189  0.00  0.00    +0.123 A 
ATOM     12  C   UNL     1      -1.270  -0.349  -2.361  0.00  0.00    +0.047 A 
ATOM     13  C   UNL     1      -1.908  -0.460  -3.581  0.00  0.00    +0.025 A 
ATOM     14  C   UNL     1      -3.241  -0.827  -3.635  0.00  0.00    +0.059 A 
ATOM     15  C   UNL     1      -3.937  -1.085  -2.467  0.00  0.00    +0.063 A 
ATOM     16  C   UNL     1      -3.300  -0.980  -1.244  0.00  0.00    +0.067 A 
ATOM     17 CL   UNL     1      -5.610  -1.545  -2.537  0.00  0.00    -0.082 Cl
ATOM     18 CL   UNL     1      -4.041  -0.964  -5.170  0.00  0.00    -0.082 Cl
ENDBRANCH  10  11
ENDBRANCH   2  10
TORSDOF 4
