REMARK  Name = ZINC16115215
REMARK  4 active torsions:
REMARK  status: ('A' for Active; 'I' for Inactive)
REMARK    1  A    between atoms: C_1  and  C_2
REMARK    2  A    between atoms: C_2  and  C_27
REMARK    3  A    between atoms: C_6  and  N_7
REMARK    4  A    between atoms: N_7  and  C_8
REMARK                            x       y       z     vdW  Elec       q    Type
REMARK                         _______ _______ _______ _____ _____    ______ ____
ROOT
ATOM      1  C   UNL     1       0.075   1.465   0.096  0.00  0.00    +0.064 C 
ATOM      2  C   UNL     1       0.016  -0.051  -0.108  0.00  0.00    +0.167 C 
ATOM      3  C   UNL     1      -1.413  -0.516   0.018  0.00  0.00    +0.208 C 
ATOM      4  O   UNL     1      -2.335   0.230  -0.244  0.00  0.00    -0.288 OA
ATOM      5  C   UNL     1      -1.659  -1.847   0.451  0.00  0.00    +0.049 C 
ATOM      6  C   UNL     1      -2.928  -2.342   0.553  0.00  0.00    +0.084 C 
ATOM      7  C   UNL     1      -0.473  -2.679   0.788  0.00  0.00    +0.071 A 
ATOM      8  C   UNL     1       0.756  -2.041   0.983  0.00  0.00    +0.133 A 
ATOM      9  C   UNL     1       1.886  -2.789   1.295  0.00  0.00    +0.047 A 
ATOM     10  C   UNL     1       1.806  -4.148   1.415  0.00  0.00    +0.015 A 
ATOM     11  C   UNL     1       0.582  -4.802   1.225  0.00  0.00    +0.018 A 
ATOM     12  C   UNL     1      -0.572  -4.063   0.908  0.00  0.00    +0.150 A 
ATOM     13  O   UNL     1      -1.751  -4.690   0.723  0.00  0.00    -0.421 OA
ATOM     14  C   UNL     1      -1.844  -6.020   0.838  0.00  0.00    +0.337 A 
ATOM     15  O   UNL     1      -2.927  -6.550   0.663  0.00  0.00    -0.245 OA
ATOM     16  C   UNL     1      -0.735  -6.830   1.154  0.00  0.00    +0.092 A 
ATOM     17  C   UNL     1       0.481  -6.258   1.352  0.00  0.00    +0.018 A 
ATOM     18  O   UNL     1       0.832  -0.691   0.871  0.00  0.00    -0.478 OA
ATOM     19  C   UNL     1       0.536  -0.395  -1.505  0.00  0.00    +0.064 C 
ENDROOT
BRANCH   6  20
ATOM     20  N   UNL     1      -3.982  -1.615   0.086  0.00  0.00    -0.320 N 
ATOM     21  H   UNL     1      -3.832  -0.741  -0.308  0.00  0.00    +0.152 HD
BRANCH  20  22
ATOM     22  C   UNL     1      -5.279  -2.128   0.174  0.00  0.00    +0.031 A 
ATOM     23  C   UNL     1      -5.496  -3.377   0.743  0.00  0.00    +0.024 A 
ATOM     24  C   UNL     1      -6.778  -3.881   0.830  0.00  0.00    +0.017 A 
ATOM     25  C   UNL     1      -7.847  -3.144   0.350  0.00  0.00    +0.018 A 
ATOM     26  C   UNL     1      -7.634  -1.900  -0.217  0.00  0.00    +0.017 A 
ATOM     27  C   UNL     1      -6.354  -1.388  -0.301  0.00  0.00    +0.024 A 
ATOM     28 BR   UNL     1      -9.601  -3.838   0.470  0.00  0.00    -0.050 Br
ENDBRANCH  20  22
ENDBRANCH   6  20
TORSDOF 2
