REMARK  Name = ZINC01436535
REMARK  8 active torsions:
REMARK  status: ('A' for Active; 'I' for Inactive)
REMARK    1  A    between atoms: C_10  and  C_11
REMARK    2  A    between atoms: C_10  and  N_72
REMARK    3  A    between atoms: C_14  and  C_17
REMARK    4  A    between atoms: N_19  and  N_20
REMARK    5  A    between atoms: C_21  and  C_22
REMARK    6  A    between atoms: C_25  and  O_28
REMARK    7  A    between atoms: O_28  and  C_29
REMARK    8  A    between atoms: C_29  and  C_30
REMARK                            x       y       z     vdW  Elec       q    Type
REMARK                         _______ _______ _______ _____ _____    ______ ____
ROOT
ATOM      1  C   UNL     1       5.970   1.755  -0.045  0.00  0.00    +0.263 C 
ATOM      2  O   UNL     1       5.950   2.971  -0.038  0.00  0.00    -0.268 OA
ATOM      3  N   UNL     1       4.814   1.062  -0.037  0.00  0.00    -0.203 N 
ATOM      4  H   UNL     1       4.829   0.092  -0.042  0.00  0.00    +0.178 HD
ENDROOT
BRANCH   1   8
ATOM      5  C   UNL     1       9.682  -0.308  -0.089  0.00  0.00    -0.064 A 
ATOM      6  C   UNL     1       9.663   1.075  -0.082  0.00  0.00    +0.002 A 
ATOM      7  C   UNL     1       8.461   1.752  -0.068  0.00  0.00    +0.013 A 
ATOM      8  C   UNL     1       7.261   1.037  -0.060  0.00  0.00    +0.038 A 
ATOM      9  C   UNL     1       7.288  -0.359  -0.062  0.00  0.00    +0.013 A 
ATOM     10  C   UNL     1       8.497  -1.023  -0.082  0.00  0.00    +0.002 A 
BRANCH   5  11
ATOM     11  C   UNL     1      10.999  -1.040  -0.104  0.00  0.00    -0.043 C 
BRANCH  11  21
ATOM     12  C   UNL     1      11.913  -3.161   5.894  0.00  0.00    +0.000 A 
ATOM     13  C   UNL     1      10.600  -3.399   5.533  0.00  0.00    +0.000 A 
ATOM     14  C   UNL     1      10.169  -3.085   4.260  0.00  0.00    +0.002 A 
ATOM     15  C   UNL     1      11.048  -2.533   3.339  0.00  0.00    -0.061 A 
ATOM     16  C   UNL     1      12.356  -2.294   3.700  0.00  0.00    -0.048 A 
ATOM     17  C   UNL     1      12.788  -2.611   4.979  0.00  0.00    +0.004 A 
ATOM     18  C   UNL     1      13.345  -1.690   2.736  0.00  0.00    +0.017 C 
ATOM     19  C   UNL     1      12.816  -1.803   1.306  0.00  0.00    -0.073 C 
ATOM     20  C   UNL     1      10.532  -2.212   1.960  0.00  0.00    -0.042 C 
ATOM     21  N   UNL     1      11.439  -1.266   1.290  0.00  0.00    +0.385 N 
ATOM     22  H   UNL     1      11.423  -0.371   1.794  0.00  0.00    -0.081 HD
ENDBRANCH  11  21
ENDBRANCH   5  11
ENDBRANCH   1   8
BRANCH   3  23
ATOM     23  N   UNL     1       3.589   1.743  -0.022  0.00  0.00    -0.187 NA
ATOM     24  C   UNL     1       2.476   1.076  -0.015  0.00  0.00    +0.138 C 
BRANCH  24  25
ATOM     25  C   UNL     1       1.187   1.792   0.000  0.00  0.00    -0.005 A 
ATOM     26  C   UNL     1      -0.013   1.076   0.008  0.00  0.00    +0.013 A 
ATOM     27  C   UNL     1      -1.215   1.750   0.017  0.00  0.00    +0.046 A 
ATOM     28  C   UNL     1      -1.235   3.138   0.031  0.00  0.00    +0.121 A 
ATOM     29  C   UNL     1      -0.044   3.854   0.023  0.00  0.00    +0.046 A 
ATOM     30  C   UNL     1       1.162   3.189   0.008  0.00  0.00    +0.013 A 
BRANCH  28  31
ATOM     31  O   UNL     1      -2.422   3.798   0.046  0.00  0.00    -0.483 OA
BRANCH  31  32
ATOM     32  C   UNL     1      -3.607   3.001   0.053  0.00  0.00    +0.324 C 
BRANCH  32  33
ATOM     33  C   UNL     1      -4.817   3.899   0.069  0.00  0.00    +0.253 C 
ATOM     34  O   UNL     1      -4.678   5.104   0.074  0.00  0.00    -0.272 OA
ATOM     35  N   UNL     1      -6.054   3.364   0.078  0.00  0.00    -0.299 N 
ATOM     36  C   UNL     1      -6.239   1.906   0.066  0.00  0.00    +0.108 C 
ATOM     37  C   UNL     1      -7.144   1.519   1.245  0.00  0.00    +0.019 C 
ATOM     38  C   UNL     1      -8.447   2.318   1.166  0.00  0.00    +0.003 C 
ATOM     39  C   UNL     1      -8.137   3.813   1.268  0.00  0.00    +0.019 C 
ATOM     40  C   UNL     1      -7.243   4.227   0.094  0.00  0.00    +0.108 C 
ENDBRANCH  32  33
ENDBRANCH  31  32
ENDBRANCH  28  31
ENDBRANCH  24  25
ENDBRANCH   3  23
TORSDOF 8
