REMARK  Name = ZINC12929903
REMARK  4 active torsions:
REMARK  status: ('A' for Active; 'I' for Inactive)
REMARK    1  A    between atoms: C_6  and  C_7
REMARK    2  A    between atoms: C_12  and  N_16
REMARK    3  A    between atoms: N_19  and  C_22
REMARK    4  A    between atoms: C_22  and  C_23
REMARK                            x       y       z     vdW  Elec       q    Type
REMARK                         _______ _______ _______ _____ _____    ______ ____
ROOT
ATOM      1  N   UNL     1      -6.139  -1.151   0.046  0.00  0.00    -0.312 N 
ATOM      2  C   UNL     1      -5.844   0.286   0.149  0.00  0.00    +0.122 C 
ATOM      3  C   UNL     1      -6.693   0.876   1.281  0.00  0.00    +0.104 C 
ATOM      4  N   UNL     1      -8.106   0.547   1.052  0.00  0.00    -0.294 NA
ATOM      5  C   UNL     1      -8.328  -0.904   1.091  0.00  0.00    +0.104 C 
ATOM      6  C   UNL     1      -7.546  -1.568  -0.054  0.00  0.00    +0.122 C 
ENDROOT
BRANCH   1  12
ATOM      7  C   UNL     1      -6.058  -5.982  -0.698  0.00  0.00    +0.022 A 
ATOM      8  C   UNL     1      -4.745  -5.702  -0.478  0.00  0.00    +0.044 A 
ATOM      9  C   UNL     1      -4.346  -4.383  -0.218  0.00  0.00    +0.084 A 
ATOM     10  C   UNL     1      -5.383  -3.424  -0.207  0.00  0.00    +0.078 A 
ATOM     11  S   UNL     1      -6.833  -4.380  -0.560  0.00  0.00    -0.083 S 
ATOM     12  C   UNL     1      -5.118  -2.088   0.037  0.00  0.00    +0.139 A 
ATOM     13  N   UNL     1      -3.855  -1.724   0.264  0.00  0.00    -0.220 NA
ATOM     14  C   UNL     1      -2.893  -2.631   0.252  0.00  0.00    +0.224 A 
ATOM     15  N   UNL     1      -3.100  -3.902   0.025  0.00  0.00    -0.235 NA
BRANCH   7  21
ATOM     16  C   UNL     1      -8.065  -7.373  -1.192  0.00  0.00    +0.010 A 
ATOM     17  C   UNL     1      -8.646  -8.595  -1.461  0.00  0.00    +0.020 A 
ATOM     18  C   UNL     1      -7.865  -9.736  -1.528  0.00  0.00    +0.041 A 
ATOM     19  C   UNL     1      -6.497  -9.658  -1.326  0.00  0.00    +0.020 A 
ATOM     20  C   UNL     1      -5.905  -8.442  -1.056  0.00  0.00    +0.010 A 
ATOM     21  C   UNL     1      -6.687  -7.288  -0.987  0.00  0.00    -0.011 A 
ATOM     22 CL   UNL     1      -8.603 -11.270  -1.867  0.00  0.00    -0.084 Cl
ENDBRANCH   7  21
ENDBRANCH   1  12
BRANCH   4  23
ATOM     23  C   UNL     1      -8.971   1.238   2.018  0.00  0.00    +0.138 C 
BRANCH  23  24
ATOM     24  C   UNL     1     -10.412   1.077   1.607  0.00  0.00    +0.037 A 
ATOM     25  C   UNL     1     -11.293   0.376   2.402  0.00  0.00    +0.093 A 
ATOM     26  C   UNL     1     -12.624   0.238   2.005  0.00  0.00    +0.259 A 
ATOM     27  O   UNL     1     -13.409  -0.382   2.705  0.00  0.00    -0.267 OA
ATOM     28  N   UNL     1     -13.047   0.797   0.833  0.00  0.00    -0.264 N 
ATOM     29  C   UNL     1     -14.317   0.749   0.310  0.00  0.00    +0.104 A 
ATOM     30  C   UNL     1     -14.607   1.338  -0.850  0.00  0.00    +0.067 A 
ATOM     31  S   UNL     1     -13.029   2.038  -1.309  0.00  0.00    -0.059 S 
ATOM     32  C   UNL     1     -12.106   1.476   0.105  0.00  0.00    +0.158 A 
ATOM     33  N   UNL     1     -10.857   1.614   0.474  0.00  0.00    -0.338 N 
ATOM     34  H   UNL     1     -10.245   2.112  -0.090  0.00  0.00    +0.168 HD
ENDBRANCH  23  24
ENDBRANCH   4  23
TORSDOF 4
