REMARK  Name = ZINC12004821
REMARK  6 active torsions:
REMARK  status: ('A' for Active; 'I' for Inactive)
REMARK    1  A    between atoms: C_3  and  C_8
REMARK    2  A    between atoms: C_11  and  C_13
REMARK    3  A    between atoms: C_13  and  N_57
REMARK    4  A    between atoms: C_19  and  C_23
REMARK    5  A    between atoms: C_23  and  N_24
REMARK    6  A    between atoms: C_25  and  C_27
REMARK                            x       y       z     vdW  Elec       q    Type
REMARK                         _______ _______ _______ _____ _____    ______ ____
ROOT
ATOM      1  C   UNL     1      -7.883   4.654   2.662  0.00  0.00    -0.070 C 
ATOM      2  C   UNL     1      -8.664   3.956   1.544  0.00  0.00    +0.058 C 
ATOM      3  C   UNL     1      -7.695   3.199   0.673  0.00  0.00    +0.132 A 
ATOM      4  N   UNL     1      -7.645   3.175  -0.627  0.00  0.00    -0.134 NA
ATOM      5  N   UNL     1      -6.694   2.393  -1.006  0.00  0.00    -0.133 NA
ATOM      6  C   UNL     1      -6.094   1.889   0.040  0.00  0.00    +0.151 A 
ATOM      7  N   UNL     1      -6.707   2.393   1.132  0.00  0.00    -0.315 N 
ATOM      8  C   UNL     1      -6.367   2.163   2.536  0.00  0.00    +0.106 C 
ATOM      9  C   UNL     1      -7.623   2.347   3.393  0.00  0.00    -0.056 C 
ATOM     10  N   UNL     1      -7.771   3.755   3.831  0.00  0.00    +0.386 N 
ATOM     11  H   UNL     1      -8.625   3.837   4.395  0.00  0.00    -0.081 HD
ENDROOT
BRANCH  10  12
ATOM     12  C   UNL     1      -6.614   4.147   4.656  0.00  0.00    -0.003 C 
BRANCH  12  16
ATOM     13  C   UNL     1      -7.008   7.653   5.605  0.00  0.00    +0.135 A 
ATOM     14  C   UNL     1      -7.593   7.064   6.682  0.00  0.00    +0.050 A 
ATOM     15  C   UNL     1      -7.524   5.673   6.472  0.00  0.00    +0.043 A 
ATOM     16  C   UNL     1      -6.907   5.482   5.289  0.00  0.00    +0.089 A 
ATOM     17  O   UNL     1      -6.592   6.681   4.771  0.00  0.00    -0.462 OA
BRANCH  13  20
ATOM     18  C   UNL     1      -6.084  10.939   4.039  0.00  0.00    +0.002 A 
ATOM     19  C   UNL     1      -6.228   9.581   4.234  0.00  0.00    +0.011 A 
ATOM     20  C   UNL     1      -6.851   9.106   5.390  0.00  0.00    +0.019 A 
ATOM     21  C   UNL     1      -7.330  10.011   6.339  0.00  0.00    +0.031 A 
ATOM     22  C   UNL     1      -7.175  11.368   6.134  0.00  0.00    +0.042 A 
ATOM     23  C   UNL     1      -6.556  11.831   4.985  0.00  0.00    +0.020 A 
ATOM     24 CL   UNL     1      -7.763  12.495   7.316  0.00  0.00    -0.084 Cl
ENDBRANCH  13  20
ENDBRANCH  12  16
ENDBRANCH  10  12
BRANCH   6  25
ATOM     25  C   UNL     1      -4.938   0.922   0.029  0.00  0.00    +0.181 C 
BRANCH  25  26
ATOM     26  N   UNL     1      -3.677   1.667   0.028  0.00  0.00    -0.304 N 
ATOM     27  C   UNL     1      -2.503   1.006   0.019  0.00  0.00    +0.245 C 
ATOM     28  O   UNL     1      -2.490  -0.210   0.012  0.00  0.00    -0.270 OA
ATOM     29  H   UNL     1      -3.687   2.637   0.034  0.00  0.00    +0.149 HD
BRANCH  27  30
ATOM     30  C   UNL     1      -1.230   1.758   0.017  0.00  0.00    +0.039 A 
ATOM     31  C   UNL     1      -0.013   1.076   0.008  0.00  0.00    +0.013 A 
ATOM     32  C   UNL     1       1.172   1.783   0.000  0.00  0.00    +0.004 A 
ATOM     33  C   UNL     1       1.156   3.166   0.008  0.00  0.00    +0.038 A 
ATOM     34  C   UNL     1      -0.048   3.851   0.022  0.00  0.00    +0.124 A 
ATOM     35  C   UNL     1      -1.242   3.154   0.030  0.00  0.00    +0.051 A 
ATOM     36  F   UNL     1      -0.056   5.202   0.029  0.00  0.00    -0.205 F 
ENDBRANCH  27  30
ENDBRANCH  25  26
ENDBRANCH   6  25
TORSDOF 6
