REMARK  Name = ZINC37285907
REMARK  6 active torsions:
REMARK  status: ('A' for Active; 'I' for Inactive)
REMARK    1  A    between atoms: C_1  and  C_2
REMARK    2  A    between atoms: C_5  and  N_9
REMARK    3  A    between atoms: C_7  and  N_8
REMARK    4  A    between atoms: C_10  and  C_12
REMARK    5  A    between atoms: C_12  and  S_13
REMARK    6  A    between atoms: S_13  and  C_14
REMARK                            x       y       z     vdW  Elec       q    Type
REMARK                         _______ _______ _______ _____ _____    ______ ____
ROOT
ATOM      1  N   UNL     1       0.059  -4.175  -0.027  0.00  0.00    -0.285 N 
ATOM      2  C   UNL     1      -0.040  -4.839  -1.196  0.00  0.00    +0.227 C 
ATOM      3  O   UNL     1      -0.053  -4.226  -2.243  0.00  0.00    -0.275 OA
ATOM      4  H   UNL     1       0.146  -4.666   0.804  0.00  0.00    +0.155 HD
ENDROOT
BRANCH   1   9
ATOM      5  C   UNL     1      -0.051   1.502   0.017  0.00  0.00    +0.045 C 
ATOM      6  C   UNL     1      -0.021  -0.004   0.007  0.00  0.00    -0.030 A 
ATOM      7  C   UNL     1      -0.756  -0.703  -0.932  0.00  0.00    +0.007 A 
ATOM      8  C   UNL     1      -0.731  -2.084  -0.945  0.00  0.00    +0.024 A 
ATOM      9  C   UNL     1       0.034  -2.776  -0.014  0.00  0.00    +0.035 A 
ATOM     10  C   UNL     1       0.774  -2.078   0.930  0.00  0.00    +0.046 A 
ATOM     11  C   UNL     1       0.751  -0.690   0.937  0.00  0.00    +0.029 A 
BRANCH  11  12
ATOM     12  N   UNL     1       1.498   0.017   1.882  0.00  0.00    -0.358 N 
ATOM     13  H   UNL     1       1.478   0.987   1.889  0.00  0.00    +0.142 HD
ATOM     14  H   UNL     1       2.036  -0.462   2.531  0.00  0.00    +0.142 HD
ENDBRANCH  11  12
ENDBRANCH   1   9
BRANCH   2  15
ATOM     15  C   UNL     1      -0.134  -6.343  -1.202  0.00  0.00    +0.170 C 
BRANCH  15  16
ATOM     16  S   UNL     1      -0.254  -6.934  -2.913  0.00  0.00    -0.116 S 
BRANCH  16  17
ATOM     17  C   UNL     1      -0.355  -8.686  -2.752  0.00  0.00    +0.008 A 
ATOM     18  C   UNL     1      -0.336  -9.272  -1.492  0.00  0.00    +0.016 A 
ATOM     19  C   UNL     1      -0.415 -10.645  -1.369  0.00  0.00    +0.016 A 
ATOM     20  C   UNL     1      -0.514 -11.437  -2.499  0.00  0.00    +0.018 A 
ATOM     21  C   UNL     1      -0.534 -10.857  -3.756  0.00  0.00    +0.016 A 
ATOM     22  C   UNL     1      -0.460  -9.484  -3.885  0.00  0.00    +0.016 A 
ATOM     23 BR   UNL     1      -0.623 -13.317  -2.327  0.00  0.00    -0.050 Br
ENDBRANCH  16  17
ENDBRANCH  15  16
ENDBRANCH   2  15
TORSDOF 5
