REMARK  Name = ZINC39607179
REMARK  9 active torsions:
REMARK  status: ('A' for Active; 'I' for Inactive)
REMARK    1  A    between atoms: C_1  and  C_2
REMARK    2  A    between atoms: C_2  and  N_3
REMARK    3  A    between atoms: C_4  and  C_10
REMARK    4  A    between atoms: C_6  and  C_8
REMARK    5  A    between atoms: C_14  and  C_23
REMARK    6  A    between atoms: N_25  and  C_26
REMARK    7  A    between atoms: C_26  and  C_27
REMARK    8  A    between atoms: C_30  and  C_34
REMARK    9  A    between atoms: C_32  and  C_33
REMARK                            x       y       z     vdW  Elec       q    Type
REMARK                         _______ _______ _______ _____ _____    ______ ____
ROOT
ATOM      1  C   UNL     1      -1.786  -0.489   2.711  0.00  0.00    +0.266 C 
ATOM      2  O   UNL     1      -2.574  -0.823   3.575  0.00  0.00    -0.268 OA
ATOM      3  N   UNL     1      -0.618   0.090   3.051  0.00  0.00    -0.295 N 
ATOM      4  C   UNL     1       0.501   0.471   2.157  0.00  0.00    +0.121 C 
ATOM      5  C   UNL     1       0.999   1.825   2.710  0.00  0.00    +0.100 C 
ATOM      6  C   UNL     1       0.562   1.831   4.185  0.00  0.00    -0.004 C 
ATOM      7  C   UNL     1      -0.165   0.496   4.402  0.00  0.00    +0.115 C 
ATOM      8  C   UNL     1      -0.391   2.993   4.449  0.00  0.00    -0.010 C 
ATOM      9  C   UNL     1      -0.766   3.012   5.934  0.00  0.00    -0.082 C 
ATOM     10  N   UNL     1       0.449   3.155   6.745  0.00  0.00    +0.379 N 
ATOM     11  C   UNL     1       1.318   1.987   6.555  0.00  0.00    -0.082 C 
ATOM     12  C   UNL     1       1.781   1.925   5.097  0.00  0.00    -0.010 C 
ATOM     13  H   UNL     1       0.943   3.989   6.465  0.00  0.00    -0.086 HD
ATOM     14  H   UNL     1       0.195   3.228   7.719  0.00  0.00    -0.086 HD
ENDROOT
BRANCH   1  16
ATOM     15  N   UNL     1      -2.598   0.197   0.405  0.00  0.00    -0.258 N 
ATOM     16  C   UNL     1      -2.108  -0.719   1.294  0.00  0.00    +0.138 A 
ATOM     17  C   UNL     1      -1.975  -1.906   0.593  0.00  0.00    +0.071 A 
ATOM     18  C   UNL     1      -2.406  -1.618  -0.706  0.00  0.00    +0.075 A 
ATOM     19  N   UNL     1      -2.763  -0.360  -0.741  0.00  0.00    -0.175 NA
ATOM     20  C   UNL     1      -2.455  -2.587  -1.859  0.00  0.00    +0.069 C 
ATOM     21 BR   UNL     1      -1.345  -3.563   1.252  0.00  0.00    -0.046 Br
BRANCH  15  23
ATOM     22  C   UNL     1      -4.304   1.701   1.304  0.00  0.00    +0.029 C 
ATOM     23  C   UNL     1      -2.897   1.597   0.714  0.00  0.00    +0.141 C 
ENDBRANCH  15  23
ENDBRANCH   1  16
BRANCH   5  24
ATOM     24  C   UNL     1       2.499   1.916   2.604  0.00  0.00    +0.218 C 
ATOM     25  O   UNL     1       3.168   0.904   2.593  0.00  0.00    -0.275 OA
ATOM     26  N   UNL     1       3.098   3.121   2.523  0.00  0.00    -0.311 N 
ATOM     27  H   UNL     1       2.571   3.931   2.609  0.00  0.00    +0.149 HD
BRANCH  26  28
ATOM     28  C   UNL     1       4.544   3.207   2.303  0.00  0.00    +0.139 C 
BRANCH  28  29
ATOM     29  C   UNL     1       4.958   4.655   2.251  0.00  0.00    -0.027 A 
ATOM     30  C   UNL     1       5.163   5.272   1.031  0.00  0.00    +0.006 A 
ATOM     31  C   UNL     1       5.543   6.600   0.983  0.00  0.00    +0.004 A 
ATOM     32  C   UNL     1       5.718   7.311   2.156  0.00  0.00    -0.050 A 
ATOM     33  C   UNL     1       5.513   6.695   3.376  0.00  0.00    +0.007 A 
ATOM     34  C   UNL     1       5.128   5.367   3.423  0.00  0.00    -0.046 A 
ATOM     35  C   UNL     1       4.899   4.697   4.753  0.00  0.00    +0.044 C 
ATOM     36  C   UNL     1       6.134   8.759   2.104  0.00  0.00    +0.044 C 
ENDBRANCH  28  29
ENDBRANCH  26  28
ENDBRANCH   5  24
TORSDOF 5
