REMARK  Name = ZINC39725889
REMARK  8 active torsions:
REMARK  status: ('A' for Active; 'I' for Inactive)
REMARK    1  A    between atoms: C_1  and  C_2
REMARK    2  A    between atoms: C_6  and  N_9
REMARK    3  A    between atoms: C_7  and  C_8
REMARK    4  A    between atoms: C_10  and  S_24
REMARK    5  A    between atoms: S_24  and  C_25
REMARK    6  A    between atoms: C_25  and  C_26
REMARK    7  A    between atoms: N_28  and  C_29
REMARK    8  A    between atoms: C_32  and  C_35
REMARK                            x       y       z     vdW  Elec       q    Type
REMARK                         _______ _______ _______ _____ _____    ______ ____
ROOT
ATOM      1  N   UNL     1       0.052  -2.788   2.372  0.00  0.00    -0.234 N 
ATOM      2  C   UNL     1      -1.202  -3.185   3.018  0.00  0.00    +0.259 C 
ATOM      3  N   UNL     1      -1.179  -3.924   4.283  0.00  0.00    -0.248 NA
ATOM      4  C   UNL     1      -0.058  -4.234   4.843  0.00  0.00    +0.101 C 
ATOM      5  C   UNL     1       0.329  -4.951   6.080  0.00  0.00    +0.028 A 
ATOM      6  C   UNL     1      -0.374  -5.559   7.103  0.00  0.00    +0.012 A 
ATOM      7  C   UNL     1       0.311  -6.160   8.149  0.00  0.00    +0.001 A 
ATOM      8  C   UNL     1       1.695  -6.151   8.171  0.00  0.00    +0.002 A 
ATOM      9  C   UNL     1       2.412  -5.547   7.157  0.00  0.00    +0.028 A 
ATOM     10  C   UNL     1       1.741  -4.936   6.091  0.00  0.00    +0.074 A 
ATOM     11  N   UNL     1       2.196  -4.286   4.992  0.00  0.00    -0.240 NA
ATOM     12  C   UNL     1       1.238  -3.850   4.221  0.00  0.00    +0.152 C 
ATOM     13  C   UNL     1       1.232  -3.110   2.943  0.00  0.00    +0.274 C 
ATOM     14  O   UNL     1       2.279  -2.790   2.413  0.00  0.00    -0.268 OA
ENDROOT
BRANCH   1  20
ATOM     15  C   UNL     1      -0.049   1.506  -0.018  0.00  0.00    +0.044 C 
ATOM     16  C   UNL     1      -0.024  -0.001  -0.023  0.00  0.00    -0.046 A 
ATOM     17  C   UNL     1      -0.026  -0.688  -1.223  0.00  0.00    +0.004 A 
ATOM     18  C   UNL     1      -0.003  -2.070  -1.232  0.00  0.00    +0.002 A 
ATOM     19  C   UNL     1       0.023  -2.770  -0.042  0.00  0.00    +0.024 A 
ATOM     20  C   UNL     1       0.026  -2.083   1.165  0.00  0.00    +0.043 A 
ATOM     21  C   UNL     1       0.008  -0.694   1.171  0.00  0.00    -0.026 A 
ATOM     22  C   UNL     1       0.017   0.055   2.478  0.00  0.00    +0.046 C 
ENDBRANCH   1  20
BRANCH   2  23
ATOM     23  S   UNL     1      -2.127  -4.191   1.825  0.00  0.00    -0.106 S 
BRANCH  23  24
ATOM     24  C   UNL     1      -1.027  -5.593   1.487  0.00  0.00    +0.168 C 
BRANCH  24  25
ATOM     25  C   UNL     1      -1.685  -6.520   0.497  0.00  0.00    +0.227 C 
ATOM     26  O   UNL     1      -2.786  -6.260   0.062  0.00  0.00    -0.275 OA
ATOM     27  N   UNL     1      -1.048  -7.637   0.095  0.00  0.00    -0.285 N 
ATOM     28  H   UNL     1      -0.141  -7.812   0.390  0.00  0.00    +0.155 HD
BRANCH  27  29
ATOM     29  C   UNL     1      -1.693  -8.543  -0.747  0.00  0.00    +0.033 A 
ATOM     30  C   UNL     1      -2.566  -8.080  -1.726  0.00  0.00    +0.024 A 
ATOM     31  C   UNL     1      -3.205  -8.971  -2.558  0.00  0.00    +0.015 A 
ATOM     32  C   UNL     1      -2.976 -10.343  -2.419  0.00  0.00    +0.037 A 
ATOM     33  C   UNL     1      -2.098 -10.805  -1.435  0.00  0.00    +0.015 A 
ATOM     34  C   UNL     1      -1.458  -9.907  -0.609  0.00  0.00    +0.024 A 
BRANCH  32  35
ATOM     35  C   UNL     1      -3.659 -11.301  -3.309  0.00  0.00    +0.242 C 
ATOM     36  O   UNL     1      -4.423 -10.898  -4.165  0.00  0.00    -0.270 OA
ATOM     37  N   UNL     1      -3.437 -12.623  -3.173  0.00  0.00    -0.325 N 
ATOM     38  H   UNL     1      -2.827 -12.945  -2.490  0.00  0.00    +0.145 HD
ATOM     39  H   UNL     1      -3.886 -13.254  -3.758  0.00  0.00    +0.145 HD
ENDBRANCH  32  35
ENDBRANCH  27  29
ENDBRANCH  24  25
ENDBRANCH  23  24
ENDBRANCH   2  23
TORSDOF 6
