REMARK  Name = ZINC09237467
REMARK  6 active torsions:
REMARK  status: ('A' for Active; 'I' for Inactive)
REMARK    1  A    between atoms: C_1  and  C_2
REMARK    2  A    between atoms: C_5  and  N_9
REMARK    3  A    between atoms: C_7  and  C_8
REMARK    4  A    between atoms: C_10  and  C_12
REMARK    5  A    between atoms: C_14  and  C_24
REMARK    6  A    between atoms: C_18  and  C_23
REMARK                            x       y       z     vdW  Elec       q    Type
REMARK                         _______ _______ _______ _____ _____    ______ ____
ROOT
ATOM      1  C   UNL     1       2.448   1.223  -0.076  0.00  0.00    +0.166 C 
ATOM      2  C   UNL     1       3.395   2.045  -0.960  0.00  0.00    +0.140 C 
ATOM      3  N   UNL     1       4.682   1.363  -1.102  0.00  0.00    -0.272 N 
ATOM      4  N   UNL     1       5.321   1.149   0.077  0.00  0.00    -0.225 N 
ATOM      5  C   UNL     1       6.653   0.924   0.274  0.00  0.00    +0.148 A 
ATOM      6  N   UNL     1       6.832   0.750   1.555  0.00  0.00    -0.132 NA
ATOM      7  N   UNL     1       5.709   0.855   2.178  0.00  0.00    -0.121 NA
ATOM      8  C   UNL     1       4.758   1.102   1.321  0.00  0.00    +0.209 A 
ATOM      9  S   UNL     1       3.039   1.345   1.639  0.00  0.00    -0.069 S 
ATOM     10  C   UNL     1       7.719   0.883  -0.790  0.00  0.00    +0.090 C 
ATOM     11  H   UNL     1       5.279   1.849  -1.754  0.00  0.00    +0.167 HD
ENDROOT
BRANCH   2  12
ATOM     12  C   UNL     1       2.775   2.227  -2.321  0.00  0.00    -0.024 A 
ATOM     13  C   UNL     1       2.846   1.210  -3.255  0.00  0.00    +0.007 A 
ATOM     14  C   UNL     1       2.272   1.375  -4.501  0.00  0.00    +0.020 A 
ATOM     15  C   UNL     1       1.636   2.562  -4.818  0.00  0.00    +0.041 A 
ATOM     16  C   UNL     1       1.569   3.581  -3.885  0.00  0.00    +0.020 A 
ATOM     17  C   UNL     1       2.139   3.413  -2.637  0.00  0.00    +0.007 A 
ATOM     18 CL   UNL     1       0.921   2.772  -6.386  0.00  0.00    -0.084 Cl
ENDBRANCH   2  12
BRANCH   1  20
ATOM     19  N   UNL     1      -0.011   0.966   0.007  0.00  0.00    -0.285 N 
ATOM     20  C   UNL     1       1.050   1.777  -0.174  0.00  0.00    +0.233 C 
ATOM     21  O   UNL     1       0.879   2.953  -0.417  0.00  0.00    -0.274 OA
ATOM     22  H   UNL     1       0.122   0.012   0.124  0.00  0.00    +0.155 HD
BRANCH  19  27
ATOM     23  C   UNL     1      -5.257   3.126   0.067  0.00  0.00    +0.044 C 
ATOM     24  C   UNL     1      -3.863   2.552   0.051  0.00  0.00    -0.047 A 
ATOM     25  C   UNL     1      -2.806   3.294   0.544  0.00  0.00    +0.005 A 
ATOM     26  C   UNL     1      -1.528   2.769   0.536  0.00  0.00    +0.023 A 
ATOM     27  C   UNL     1      -1.305   1.498   0.022  0.00  0.00    +0.034 A 
ATOM     28  C   UNL     1      -2.369   0.756  -0.472  0.00  0.00    +0.027 A 
ATOM     29  C   UNL     1      -3.645   1.284  -0.456  0.00  0.00    -0.046 A 
ATOM     30  C   UNL     1      -4.800   0.479  -0.992  0.00  0.00    +0.044 C 
ENDBRANCH  19  27
ENDBRANCH   1  20
TORSDOF 3
