REMARK  Name = ZINC63389771
REMARK  3 active torsions:
REMARK  status: ('A' for Active; 'I' for Inactive)
REMARK    1  A    between atoms: C_6  and  C_11
REMARK    2  A    between atoms: C_19  and  C_21
REMARK    3  A    between atoms: N_23  and  C_24
REMARK                            x       y       z     vdW  Elec       q    Type
REMARK                         _______ _______ _______ _____ _____    ______ ____
ROOT
ATOM      1  C   UNL     1       3.543  -2.758   1.301  0.00  0.00    +0.242 C 
ATOM      2  O   UNL     1       4.226  -2.164   2.108  0.00  0.00    -0.273 OA
ATOM      3  N   UNL     1       3.282  -4.069   1.475  0.00  0.00    -0.297 N 
ATOM      4  C   UNL     1       2.461  -4.803   0.502  0.00  0.00    +0.127 C 
ATOM      5  C   UNL     1       3.256  -6.016   0.006  0.00  0.00    +0.127 C 
ATOM      6  N   UNL     1       3.788  -6.737   1.171  0.00  0.00    -0.291 N 
ATOM      7  C   UNL     1       4.609  -6.003   2.144  0.00  0.00    +0.127 C 
ATOM      8  C   UNL     1       3.818  -4.791   2.637  0.00  0.00    +0.127 C 
ATOM      9  C   UNL     1       3.526  -8.048   1.344  0.00  0.00    +0.302 C 
ATOM     10  O   UNL     1       4.049  -8.656   2.256  0.00  0.00    -0.265 OA
ENDROOT
BRANCH   1  16
ATOM     11  C   UNL     1      -0.238   1.303   0.308  0.00  0.00    +0.001 A 
ATOM     12  C   UNL     1       0.928   2.080   0.290  0.00  0.00    +0.002 A 
ATOM     13  C   UNL     1       2.164   1.540   0.233  0.00  0.00    +0.026 A 
ATOM     14  C   UNL     1       2.329   0.128   0.188  0.00  0.00    +0.043 A 
ATOM     15  N   UNL     1       3.402  -0.623   0.130  0.00  0.00    -0.370 N 
ATOM     16  C   UNL     1       2.987  -2.030   0.105  0.00  0.00    +0.190 C 
ATOM     17  C   UNL     1       1.475  -2.018   0.157  0.00  0.00    +0.016 C 
ATOM     18  C   UNL     1       1.113  -0.715   0.206  0.00  0.00    -0.004 A 
ATOM     19  C   UNL     1      -0.193  -0.049   0.270  0.00  0.00    +0.010 A 
ATOM     20  H   UNL     1       4.317  -0.303   0.107  0.00  0.00    +0.161 HD
ENDBRANCH   1  16
BRANCH   9  21
ATOM     21  C   UNL     1       2.594  -8.753   0.414  0.00  0.00    +0.303 C 
ATOM     22  O   UNL     1       2.157  -8.176  -0.560  0.00  0.00    -0.265 OA
ATOM     23  N   UNL     1       2.238 -10.030   0.657  0.00  0.00    -0.278 N 
ATOM     24  H   UNL     1       2.518 -10.464   1.478  0.00  0.00    +0.155 HD
BRANCH  23  25
ATOM     25  C   UNL     1       1.464 -10.729  -0.274  0.00  0.00    +0.035 A 
ATOM     26  C   UNL     1       0.652 -11.776   0.143  0.00  0.00    +0.023 A 
ATOM     27  C   UNL     1      -0.112 -12.464  -0.779  0.00  0.00    +0.003 A 
ATOM     28  C   UNL     1      -0.069 -12.112  -2.116  0.00  0.00    +0.015 A 
ATOM     29  C   UNL     1       0.739 -11.070  -2.534  0.00  0.00    +0.020 A 
ATOM     30  C   UNL     1       1.501 -10.373  -1.616  0.00  0.00    +0.038 A 
ATOM     31 BR   UNL     1       0.794 -10.593  -4.363  0.00  0.00    -0.050 Br
ENDBRANCH  23  25
ENDBRANCH   9  21
TORSDOF 3
