REMARK  Name = ZINC17242734
REMARK  8 active torsions:
REMARK  status: ('A' for Active; 'I' for Inactive)
REMARK    1  A    between atoms: C_1  and  C_2
REMARK    2  A    between atoms: C_2  and  N_3
REMARK    3  A    between atoms: C_6  and  C_21
REMARK    4  A    between atoms: N_10  and  C_11
REMARK    5  A    between atoms: C_14  and  S_17
REMARK    6  A    between atoms: S_17  and  N_20
REMARK    7  A    between atoms: C_21  and  C_22
REMARK    8  A    between atoms: N_24  and  C_25
REMARK                            x       y       z     vdW  Elec       q    Type
REMARK                         _______ _______ _______ _____ _____    ______ ____
ROOT
ATOM      1  N   UNL     1      -1.894   2.337  -0.827  0.00  0.00    -0.250 N 
ATOM      2  C   UNL     1      -0.830   1.624  -1.156  0.00  0.00    +0.235 C 
ATOM      3  O   UNL     1      -0.526   1.412  -2.311  0.00  0.00    -0.274 OA
ATOM      4  C   UNL     1      -0.012   1.084   0.006  0.00  0.00    +0.149 C 
ATOM      5  S   UNL     1      -0.977   1.741   1.424  0.00  0.00    -0.077 S 
ATOM      6  C   UNL     1      -2.243   2.581   0.485  0.00  0.00    +0.164 C 
ATOM      7  N   UNL     1      -3.266   3.268   0.937  0.00  0.00    -0.226 NA
ENDROOT
BRANCH   7   8
ATOM      8  C   UNL     1      -3.456   3.405   2.287  0.00  0.00    +0.067 A 
ATOM      9  C   UNL     1      -3.333   2.298   3.128  0.00  0.00    +0.030 A 
ATOM     10  C   UNL     1      -3.520   2.444   4.487  0.00  0.00    +0.030 A 
ATOM     11  C   UNL     1      -3.840   3.683   5.015  0.00  0.00    +0.105 A 
ATOM     12  C   UNL     1      -3.968   4.783   4.186  0.00  0.00    +0.030 A 
ATOM     13  C   UNL     1      -3.778   4.652   2.826  0.00  0.00    +0.030 A 
BRANCH  11  14
ATOM     14  S   UNL     1      -4.084   3.859   6.751  0.00  0.00    +0.056 S 
ATOM     15  O   UNL     1      -3.372   2.797   7.372  0.00  0.00    -0.153 OA
ATOM     16  O   UNL     1      -3.836   5.224   7.059  0.00  0.00    -0.153 OA
BRANCH  14  17
ATOM     17  N   UNL     1      -5.690   3.591   7.050  0.00  0.00    -0.204 NA
ATOM     18  H   UNL     1      -5.970   3.215   7.899  0.00  0.00    +0.144 HD
ATOM     19  H   UNL     1      -6.352   3.808   6.375  0.00  0.00    +0.144 HD
ENDBRANCH  14  17
ENDBRANCH  11  14
ENDBRANCH   7   8
BRANCH   1  21
ATOM     20  C   UNL     1      -2.220   4.281  -2.275  0.00  0.00    +0.025 C 
ATOM     21  C   UNL     1      -2.731   2.890  -1.895  0.00  0.00    +0.112 C 
ENDBRANCH   1  21
BRANCH   4  22
ATOM     22  C   UNL     1       1.409   1.651  -0.007  0.00  0.00    +0.120 C 
BRANCH  22  23
ATOM     23  C   UNL     1       2.193   1.068   1.142  0.00  0.00    +0.219 C 
ATOM     24  O   UNL     1       1.666   0.278   1.896  0.00  0.00    -0.275 OA
ATOM     25  N   UNL     1       3.478   1.426   1.330  0.00  0.00    -0.285 N 
ATOM     26  H   UNL     1       3.920   2.005   0.690  0.00  0.00    +0.155 HD
BRANCH  25  27
ATOM     27  C   UNL     1       4.177   0.961   2.451  0.00  0.00    +0.035 A 
ATOM     28  C   UNL     1       3.930  -0.313   2.945  0.00  0.00    +0.025 A 
ATOM     29  C   UNL     1       4.620  -0.770   4.050  0.00  0.00    +0.023 A 
ATOM     30  C   UNL     1       5.558   0.041   4.666  0.00  0.00    +0.059 A 
ATOM     31  C   UNL     1       5.806   1.312   4.176  0.00  0.00    +0.061 A 
ATOM     32  C   UNL     1       5.121   1.771   3.067  0.00  0.00    +0.044 A 
ATOM     33 CL   UNL     1       6.982   2.326   4.952  0.00  0.00    -0.082 Cl
ATOM     34 CL   UNL     1       6.424  -0.537   6.056  0.00  0.00    -0.082 Cl
ENDBRANCH  25  27
ENDBRANCH  22  23
ENDBRANCH   4  22
TORSDOF 7
