REMARK  Name = ZINC43410192
REMARK  5 active torsions:
REMARK  status: ('A' for Active; 'I' for Inactive)
REMARK    1  A    between atoms: C_1  and  C_2
REMARK    2  A    between atoms: C_3  and  C_7
REMARK    3  A    between atoms: C_7  and  N_8
REMARK    4  A    between atoms: N_8  and  C_9
REMARK    5  A    between atoms: C_11  and  C_20
REMARK                            x       y       z     vdW  Elec       q    Type
REMARK                         _______ _______ _______ _____ _____    ______ ____
ROOT
ATOM      1  N   UNL     1      -3.145  -0.197  -1.401  0.00  0.00    -0.313 N 
ATOM      2  C   UNL     1      -2.250  -1.312  -1.722  0.00  0.00    +0.131 C 
ATOM      3  C   UNL     1      -2.815   1.089  -1.791  0.00  0.00    +0.139 A 
ATOM      4  C   UNL     1      -3.334   1.615  -2.987  0.00  0.00    +0.092 A 
ATOM      5  C   UNL     1      -2.977   2.915  -3.353  0.00  0.00    +0.027 A 
ATOM      6  C   UNL     1      -2.128   3.637  -2.522  0.00  0.00    -0.025 A 
ATOM      7  C   UNL     1      -1.663   3.059  -1.360  0.00  0.00    +0.047 A 
ATOM      8  N   UNL     1      -2.019   1.821  -1.035  0.00  0.00    -0.235 NA
ATOM      9  C   UNL     1      -0.755   3.792  -0.405  0.00  0.00    +0.056 C 
ATOM     10  C   UNL     1      -0.102   4.988  -1.093  0.00  0.00    +0.006 C 
ATOM     11  C   UNL     1      -1.202   5.823  -1.760  0.00  0.00    +0.005 C 
ATOM     12  C   UNL     1      -1.754   5.032  -2.945  0.00  0.00    +0.037 C 
ENDROOT
BRANCH   4  13
ATOM     13  C   UNL     1      -4.208   0.836  -3.812  0.00  0.00    +0.103 C 
ATOM     14  N   UNL     1      -4.901   0.218  -4.466  0.00  0.00    -0.191 NA
ENDBRANCH   4  13
BRANCH   1  15
ATOM     15  C   UNL     1      -4.390  -0.444  -0.669  0.00  0.00    +0.144 C 
BRANCH  15  18
ATOM     16  C   UNL     1      -4.471   2.306   0.812  0.00  0.00    +0.086 C 
ATOM     17  C   UNL     1      -4.195   0.966   1.445  0.00  0.00    +0.106 A 
ATOM     18  C   UNL     1      -4.161  -0.215   0.802  0.00  0.00    +0.010 A 
ATOM     19  C   UNL     1      -3.870  -1.201   1.773  0.00  0.00    +0.046 A 
ATOM     20  C   UNL     1      -3.743  -0.563   2.951  0.00  0.00    +0.195 A 
ATOM     21  O   UNL     1      -3.936   0.750   2.745  0.00  0.00    -0.468 OA
ENDBRANCH  15  18
ENDBRANCH   1  15
TORSDOF 3
