REMARK  Name = ZINC40321705
REMARK  7 active torsions:
REMARK  status: ('A' for Active; 'I' for Inactive)
REMARK    1  A    between atoms: C_4  and  S_7
REMARK    2  A    between atoms: S_7  and  C_10
REMARK    3  A    between atoms: C_13  and  C_15
REMARK    4  A    between atoms: N_17  and  C_18
REMARK    5  A    between atoms: C_18  and  C_19
REMARK    6  A    between atoms: C_19  and  C_21
REMARK    7  A    between atoms: C_19  and  N_28
REMARK                            x       y       z     vdW  Elec       q    Type
REMARK                         _______ _______ _______ _____ _____    ______ ____
ROOT
ATOM      1  C   UNL     1       7.623  -0.666   5.694  0.00  0.00    +0.279 C 
ATOM      2  O   UNL     1       6.448  -0.832   5.962  0.00  0.00    -0.267 OA
ATOM      3  N   UNL     1       8.090   0.575   5.449  0.00  0.00    -0.310 N 
ATOM      4  H   UNL     1       9.027   0.707   5.234  0.00  0.00    +0.149 HD
ENDROOT
BRANCH   1   8
ATOM      5  C   UNL     1      10.356  -3.011   5.390  0.00  0.00    +0.246 A 
ATOM      6  C   UNL     1       9.365  -3.875   5.703  0.00  0.00    +0.070 A 
ATOM      7  C   UNL     1       8.193  -3.119   5.863  0.00  0.00    +0.056 A 
ATOM      8  C   UNL     1       8.532  -1.816   5.637  0.00  0.00    +0.192 A 
ATOM      9  O   UNL     1       9.851  -1.770   5.356  0.00  0.00    -0.433 OA
BRANCH   5  10
ATOM     10  S   UNL     1      12.036  -3.444   5.085  0.00  0.00    +0.058 S 
ATOM     11  O   UNL     1      12.262  -4.682   5.744  0.00  0.00    -0.161 OA
ATOM     12  O   UNL     1      12.810  -2.283   5.357  0.00  0.00    -0.161 OA
BRANCH  10  16
ATOM     13  C   UNL     1      12.428  -4.250   0.648  0.00  0.00    +0.000 A 
ATOM     14  C   UNL     1      12.631  -2.974   1.139  0.00  0.00    +0.002 A 
ATOM     15  C   UNL     1      12.511  -2.727   2.494  0.00  0.00    +0.027 A 
ATOM     16  C   UNL     1      12.188  -3.757   3.358  0.00  0.00    +0.097 A 
ATOM     17  C   UNL     1      11.985  -5.033   2.867  0.00  0.00    +0.027 A 
ATOM     18  C   UNL     1      12.106  -5.280   1.512  0.00  0.00    +0.002 A 
ENDBRANCH  10  16
ENDBRANCH   5  10
ENDBRANCH   1   8
BRANCH   3  19
ATOM     19  C   UNL     1       7.182   1.723   5.505  0.00  0.00    +0.094 C 
BRANCH  19  20
ATOM     20  C   UNL     1       7.980   3.014   5.311  0.00  0.00    -0.019 C 
BRANCH  20  21
ATOM     21  N   UNL     1       8.759   2.925   4.069  0.00  0.00    +0.385 N 
ATOM     22  C   UNL     1       9.486   4.195   3.874  0.00  0.00    -0.078 C 
ATOM     23  C   UNL     1      10.693   3.923   3.011  0.00  0.00    -0.019 C 
ATOM     24  C   UNL     1      10.406   4.229   1.530  0.00  0.00    -0.002 C 
ATOM     25  C   UNL     1       9.000   3.758   1.109  0.00  0.00    -0.002 C 
ATOM     26  C   UNL     1       8.648   2.411   1.688  0.00  0.00    -0.019 C 
ATOM     27  C   UNL     1       7.894   2.616   3.018  0.00  0.00    -0.078 C 
ATOM     28  H   UNL     1       9.433   2.180   4.162  0.00  0.00    -0.081 HD
ENDBRANCH  20  21
BRANCH  20  29
ATOM     29  C   UNL     1       8.914   3.208   6.477  0.00  0.00    -0.041 A 
ATOM     30  C   UNL     1      10.250   2.875   6.355  0.00  0.00    +0.003 A 
ATOM     31  C   UNL     1      11.107   3.053   7.425  0.00  0.00    +0.000 A 
ATOM     32  C   UNL     1      10.629   3.563   8.618  0.00  0.00    +0.001 A 
ATOM     33  C   UNL     1       9.293   3.896   8.741  0.00  0.00    +0.020 A 
ATOM     34  C   UNL     1       8.436   3.724   7.668  0.00  0.00    +0.043 A 
ATOM     35 CL   UNL     1       6.759   4.147   7.820  0.00  0.00    -0.083 Cl
ENDBRANCH  20  29
ENDBRANCH  19  20
ENDBRANCH   3  19
TORSDOF 7
