REMARK  Name = ZINC09612036
REMARK  9 active torsions:
REMARK  status: ('A' for Active; 'I' for Inactive)
REMARK    1  A    between atoms: C_1  and  C_2
REMARK    2  A    between atoms: C_2  and  C_4
REMARK    3  A    between atoms: C_2  and  N_24
REMARK    4  A    between atoms: C_4  and  C_6
REMARK    5  A    between atoms: C_4  and  N_63
REMARK    6  A    between atoms: N_13  and  C_16
REMARK    7  A    between atoms: C_21  and  O_22
REMARK    8  A    between atoms: O_22  and  C_23
REMARK    9  A    between atoms: C_25  and  C_27
REMARK                            x       y       z     vdW  Elec       q    Type
REMARK                         _______ _______ _______ _____ _____    ______ ____
ROOT
ATOM      1  C   UNL     1       2.550  -1.523  -0.048  0.00  0.00    -0.010 C 
ENDROOT
BRANCH   1   7
ATOM      2  C   UNL     1       0.602  -2.817   0.581  0.00  0.00    -0.059 C 
ATOM      3  C   UNL     1       0.076  -3.852   1.579  0.00  0.00    +0.086 C 
ATOM      4  N   UNL     1       0.144  -3.297   2.938  0.00  0.00    -0.331 N 
ATOM      5  C   UNL     1       1.526  -2.940   3.289  0.00  0.00    +0.086 C 
ATOM      6  C   UNL     1       2.052  -1.905   2.292  0.00  0.00    -0.059 C 
ATOM      7  N   UNL     1       1.998  -2.483   0.932  0.00  0.00    +0.388 N 
ATOM      8  H   UNL     1       2.562  -3.341   0.912  0.00  0.00    -0.081 HD
BRANCH   4   9
ATOM      9  C   UNL     1      -0.396  -4.189   3.871  0.00  0.00    +0.072 A 
ATOM     10  C   UNL     1      -0.711  -5.486   3.492  0.00  0.00    +0.027 A 
ATOM     11  C   UNL     1      -1.240  -6.367   4.417  0.00  0.00    +0.002 A 
ATOM     12  C   UNL     1      -1.465  -5.956   5.718  0.00  0.00    +0.004 A 
ATOM     13  C   UNL     1      -1.158  -4.663   6.102  0.00  0.00    +0.047 A 
ATOM     14  C   UNL     1      -0.623  -3.776   5.182  0.00  0.00    +0.141 A 
BRANCH  14  15
ATOM     15  O   UNL     1      -0.321  -2.504   5.558  0.00  0.00    -0.493 OA
ATOM     16  C   UNL     1      -0.582  -2.150   6.918  0.00  0.00    +0.277 C 
ENDBRANCH  14  15
ENDBRANCH   4   9
ENDBRANCH   1   7
BRANCH   1  17
ATOM     17  C   UNL     1       1.849  -0.194   0.064  0.00  0.00    -0.022 A 
ATOM     18  C   UNL     1       2.384   1.049   0.147  0.00  0.00    +0.009 A 
ATOM     19  C   UNL     1       1.538   2.138   0.244  0.00  0.00    +0.008 A 
ATOM     20  C   UNL     1       0.198   1.930   0.253  0.00  0.00    +0.045 A 
ATOM     21  S   UNL     1       0.099   0.153   0.123  0.00  0.00    -0.103 S 
ENDBRANCH   1  17
BRANCH   1  23
ATOM     22  C   UNL     1       3.071  -3.433  -1.572  0.00  0.00    +0.026 C 
ATOM     23  C   UNL     1       2.359  -2.084  -1.458  0.00  0.00    +0.061 C 
BRANCH  23  24
ATOM     24  N   UNL     1       2.924  -1.150  -2.435  0.00  0.00    -0.310 N 
ATOM     25  C   UNL     1       2.465  -1.140  -3.702  0.00  0.00    +0.244 C 
ATOM     26  O   UNL     1       1.581  -1.906  -4.034  0.00  0.00    -0.270 OA
ATOM     27  H   UNL     1       3.630  -0.539  -2.171  0.00  0.00    +0.149 HD
BRANCH  25  28
ATOM     28  C   UNL     1       3.034  -0.199  -4.687  0.00  0.00    +0.040 A 
ATOM     29  C   UNL     1       4.046   0.686  -4.306  0.00  0.00    +0.017 A 
ATOM     30  C   UNL     1       4.580   1.560  -5.227  0.00  0.00    +0.050 A 
ATOM     31  C   UNL     1       4.108   1.573  -6.533  0.00  0.00    +0.166 A 
ATOM     32  C   UNL     1       3.094   0.695  -6.919  0.00  0.00    +0.167 A 
ATOM     33  C   UNL     1       2.559  -0.187  -6.000  0.00  0.00    +0.062 A 
ATOM     34  O   UNL     1       2.814   0.906  -8.238  0.00  0.00    -0.453 OA
ATOM     35  C   UNL     1       3.377   2.195  -8.548  0.00  0.00    +0.466 C 
ATOM     36  O   UNL     1       4.461   2.330  -7.611  0.00  0.00    -0.453 OA
ENDBRANCH  25  28
ENDBRANCH  23  24
ENDBRANCH   1  23
TORSDOF 7
