REMARK  Name = ZINC50617492
REMARK  3 active torsions:
REMARK  status: ('A' for Active; 'I' for Inactive)
REMARK    1  A    between atoms: C_1  and  C_2
REMARK    2  A    between atoms: C_5  and  C_8
REMARK    3  A    between atoms: C_26  and  C_28
REMARK                            x       y       z     vdW  Elec       q    Type
REMARK                         _______ _______ _______ _____ _____    ______ ____
ROOT
ATOM      1  C   UNL     1       0.010  -4.141   0.071  0.00  0.00    +0.215 C 
ATOM      2  C   UNL     1      -1.387  -4.722   0.287  0.00  0.00    +0.113 C 
ATOM      3  C   UNL     1      -1.869  -4.134   1.604  0.00  0.00    +0.065 C 
ATOM      4  C   UNL     1      -0.915  -4.142   2.719  0.00  0.00    +0.040 A 
ATOM      5  C   UNL     1      -1.332  -3.959   4.037  0.00  0.00    +0.033 A 
ATOM      6  C   UNL     1      -0.398  -3.966   5.054  0.00  0.00    +0.042 A 
ATOM      7  C   UNL     1       0.945  -4.154   4.765  0.00  0.00    +0.023 A 
ATOM      8  C   UNL     1       1.367  -4.339   3.463  0.00  0.00    +0.048 A 
ATOM      9  C   UNL     1       0.446  -4.340   2.425  0.00  0.00    +0.130 A 
ATOM     10  O   UNL     1       0.860  -4.537   1.150  0.00  0.00    -0.483 OA
ATOM     11 CL   UNL     1      -0.907  -3.739   6.698  0.00  0.00    -0.084 Cl
ATOM     12  N   UNL     1      -3.043  -3.602   1.681  0.00  0.00    -0.215 NA
ATOM     13  C   UNL     1      -3.878  -3.423   0.627  0.00  0.00    +0.249 A 
ATOM     14  N   UNL     1      -5.108  -2.923   0.586  0.00  0.00    -0.198 NA
ATOM     15  C   UNL     1      -5.547  -2.899  -0.668  0.00  0.00    +0.247 A 
ATOM     16  N   UNL     1      -4.626  -3.386  -1.459  0.00  0.00    -0.156 NA
ATOM     17  N   UNL     1      -3.546  -3.752  -0.646  0.00  0.00    -0.221 N 
ATOM     18  C   UNL     1      -2.255  -4.393  -0.940  0.00  0.00    +0.155 C 
ENDROOT
BRANCH   1  23
ATOM     19  C   UNL     1      -0.309   1.625  -0.124  0.00  0.00    +0.044 C 
ATOM     20  C   UNL     1      -0.226   0.121  -0.073  0.00  0.00    -0.050 A 
ATOM     21  C   UNL     1       0.971  -0.514  -0.346  0.00  0.00    +0.004 A 
ATOM     22  C   UNL     1       1.047  -1.894  -0.299  0.00  0.00    +0.007 A 
ATOM     23  C   UNL     1      -0.073  -2.637   0.021  0.00  0.00    -0.007 A 
ATOM     24  C   UNL     1      -1.270  -2.002   0.294  0.00  0.00    +0.007 A 
ATOM     25  C   UNL     1      -1.345  -0.622   0.252  0.00  0.00    +0.004 A 
ENDBRANCH   1  23
BRANCH  18  26
ATOM     26  C   UNL     1      -1.468  -3.479  -1.844  0.00  0.00    -0.004 A 
ATOM     27  C   UNL     1      -0.360  -3.953  -2.530  0.00  0.00    +0.009 A 
ATOM     28  C   UNL     1       0.333  -3.077  -3.350  0.00  0.00    +0.020 A 
ATOM     29  C   UNL     1      -0.100  -1.768  -3.457  0.00  0.00    +0.111 A 
ATOM     30  N   UNL     1      -1.158  -1.352  -2.789  0.00  0.00    -0.263 NA
ATOM     31  C   UNL     1      -1.845  -2.159  -2.005  0.00  0.00    +0.116 A 
ENDBRANCH  18  26
TORSDOF 2
