REMARK  Name = ZINC11906450
REMARK  7 active torsions:
REMARK  status: ('A' for Active; 'I' for Inactive)
REMARK    1  A    between atoms: C_1  and  C_2
REMARK    2  A    between atoms: C_5  and  N_9
REMARK    3  A    between atoms: N_9  and  S_10
REMARK    4  A    between atoms: S_10  and  C_13
REMARK    5  A    between atoms: C_14  and  C_28
REMARK    6  A    between atoms: C_16  and  N_20
REMARK    7  A    between atoms: C_18  and  C_19
REMARK                            x       y       z     vdW  Elec       q    Type
REMARK                         _______ _______ _______ _____ _____    ______ ____
ROOT
ATOM      1  C   UNL     1       4.487   0.614   0.403  0.00  0.00    +0.114 A 
ATOM      2  C   UNL     1       3.312  -0.074   0.167  0.00  0.00    -0.022 A 
ATOM      3  C   UNL     1       2.294  -0.046   1.100  0.00  0.00    +0.030 A 
ATOM      4  C   UNL     1       2.452   0.674   2.276  0.00  0.00    +0.060 A 
ATOM      5  C   UNL     1       3.632   1.370   2.507  0.00  0.00    +0.030 A 
ATOM      6  C   UNL     1       4.648   1.333   1.573  0.00  0.00    -0.022 A 
ATOM      7  C   UNL     1       5.931   2.082   1.826  0.00  0.00    +0.046 C 
ATOM      8  C   UNL     1       3.141  -0.857  -1.110  0.00  0.00    +0.046 C 
ENDROOT
BRANCH   4   9
ATOM      9  N   UNL     1       1.423   0.705   3.224  0.00  0.00    -0.144 N 
ATOM     10  C   UNL     1       0.471  -0.227   3.386  0.00  0.00    +0.240 C 
ATOM     11  O   UNL     1       0.460  -1.227   2.700  0.00  0.00    -0.274 OA
ATOM     12  C   UNL     1      -0.581  -0.000   4.429  0.00  0.00    +0.122 C 
ATOM     13  C   UNL     1      -0.054   1.056   5.440  0.00  0.00    +0.198 C 
ATOM     14  S   UNL     1       1.162   1.910   4.356  0.00  0.00    +0.052 S 
ATOM     15  O   UNL     1       2.403   2.084   5.026  0.00  0.00    -0.155 OA
ATOM     16  O   UNL     1       0.548   2.978   3.647  0.00  0.00    -0.155 OA
ENDBRANCH   4   9
BRANCH   1  17
ATOM     17  S   UNL     1       5.783   0.576  -0.791  0.00  0.00    +0.073 S 
ATOM     18  O   UNL     1       5.202   0.129  -2.008  0.00  0.00    -0.150 OA
ATOM     19  O   UNL     1       6.470   1.815  -0.684  0.00  0.00    -0.150 OA
BRANCH  17  20
ATOM     20  N   UNL     1       6.850  -0.599  -0.317  0.00  0.00    -0.215 N 
ATOM     21  H   UNL     1       7.768  -0.364  -0.106  0.00  0.00    +0.174 HD
BRANCH  20  26
ATOM     22  C   UNL     1       5.141  -5.992   0.072  0.00  0.00    +0.044 C 
ATOM     23  C   UNL     1       5.595  -4.559  -0.031  0.00  0.00    -0.049 A 
ATOM     24  C   UNL     1       5.095  -3.612   0.843  0.00  0.00    +0.005 A 
ATOM     25  C   UNL     1       5.509  -2.298   0.751  0.00  0.00    +0.026 A 
ATOM     26  C   UNL     1       6.429  -1.927  -0.221  0.00  0.00    +0.062 A 
ATOM     27  C   UNL     1       6.926  -2.881  -1.102  0.00  0.00    +0.040 A 
ATOM     28  C   UNL     1       6.512  -4.195  -1.000  0.00  0.00    +0.020 A 
ATOM     29 BR   UNL     1       8.174  -2.381  -2.432  0.00  0.00    -0.048 Br
ENDBRANCH  20  26
ENDBRANCH  17  20
ENDBRANCH   1  17
TORSDOF 4
