REMARK  Name = ZINC36566413
REMARK  18 active torsions:
REMARK  status: ('A' for Active; 'I' for Inactive)
REMARK    1  A    between atoms: C_1  and  C_2
REMARK    2  A    between atoms: C_2  and  C_3
REMARK    3  A    between atoms: C_3  and  C_4
REMARK    4  A    between atoms: C_5  and  C_6
REMARK    5  A    between atoms: C_6  and  C_8
REMARK    6  A    between atoms: C_6  and  N_19
REMARK    7  A    between atoms: N_10  and  C_11
REMARK    8  A    between atoms: C_11  and  C_12
REMARK    9  A    between atoms: C_11  and  C_13
REMARK   10  A    between atoms: C_11  and  C_14
REMARK   11  A    between atoms: C_14  and  C_15
REMARK   12  A    between atoms: C_15  and  C_16
REMARK   13  A    between atoms: C_15  and  C_17
REMARK   14  A    between atoms: C_15  and  C_18
REMARK   15  A    between atoms: N_19  and  C_20
REMARK   16  A    between atoms: C_20  and  C_21
REMARK   17  A    between atoms: C_21  and  C_22
REMARK   18  A    between atoms: C_23  and  C_25
REMARK                            x       y       z     vdW  Elec       q    Type
REMARK                         _______ _______ _______ _____ _____    ______ ____
ROOT
ATOM      1  C   UNL     1      -0.832  -3.627  -3.434  0.00  0.00    +0.185 C 
ENDROOT
BRANCH   1   2
ATOM      2  C   UNL     1      -0.942  -4.827  -4.340  0.00  0.00    +0.238 C 
ATOM      3  O   UNL     1      -0.785  -5.943  -3.890  0.00  0.00    -0.273 OA
ATOM      4  N   UNL     1      -1.214  -4.661  -5.649  0.00  0.00    -0.308 N 
ATOM      5  H   UNL     1      -1.339  -3.769  -6.009  0.00  0.00    +0.149 HD
BRANCH   4   6
ATOM      6  C   UNL     1      -1.321  -5.827  -6.529  0.00  0.00    +0.030 C 
ATOM      7  C   UNL     1       0.075  -6.395  -6.795  0.00  0.00    +0.031 C 
ATOM      8  C   UNL     1      -2.187  -6.895  -5.857  0.00  0.00    +0.031 C 
BRANCH   6   9
ATOM      9  C   UNL     1      -1.962  -5.410  -7.854  0.00  0.00    +0.031 C 
BRANCH   9  10
ATOM     10  C   UNL     1      -2.831  -4.170  -7.631  0.00  0.00    -0.036 C 
ATOM     11  C   UNL     1      -1.942  -2.926  -7.584  0.00  0.00    +0.010 C 
ATOM     12  C   UNL     1      -3.834  -4.038  -8.779  0.00  0.00    +0.010 C 
ATOM     13  C   UNL     1      -3.586  -4.308  -6.308  0.00  0.00    +0.010 C 
ENDBRANCH   9  10
ENDBRANCH   6   9
ENDBRANCH   4   6
ENDBRANCH   1   2
BRANCH   1  14
ATOM     14  N   UNL     1      -0.572  -4.072  -2.063  0.00  0.00    -0.283 N 
ATOM     15  C   UNL     1       0.474  -3.569  -1.377  0.00  0.00    +0.247 C 
ATOM     16  O   UNL     1       0.778  -4.042  -0.299  0.00  0.00    -0.270 OA
BRANCH  15  17
ATOM     17  C   UNL     1       1.251  -2.444  -1.937  0.00  0.00    +0.037 A 
ATOM     18  C   UNL     1       0.596  -1.387  -2.571  0.00  0.00    +0.014 A 
ATOM     19  C   UNL     1       1.326  -0.339  -3.091  0.00  0.00    +0.021 A 
ATOM     20  C   UNL     1       2.707  -0.334  -2.984  0.00  0.00    +0.041 A 
ATOM     21  C   UNL     1       3.363  -1.379  -2.355  0.00  0.00    +0.021 A 
ATOM     22  C   UNL     1       2.643  -2.430  -1.827  0.00  0.00    +0.014 A 
ATOM     23 CL   UNL     1       3.620   0.989  -3.641  0.00  0.00    -0.084 Cl
ENDBRANCH  15  17
BRANCH  14  24
ATOM     24  C   UNL     1      -1.450  -5.064  -1.436  0.00  0.00    +0.109 C 
BRANCH  24  25
ATOM     25  C   UNL     1      -0.684  -6.375  -1.245  0.00  0.00    +0.016 C 
ATOM     26  C   UNL     1      -1.564  -7.375  -0.492  0.00  0.00    +0.005 C 
ENDBRANCH  24  25
ENDBRANCH  14  24
ENDBRANCH   1  14
BRANCH   1  28
ATOM     27  C   UNL     1      -2.761  -2.583  -2.362  0.00  0.00    -0.029 C 
ATOM     28  C   UNL     1      -2.121  -2.848  -3.474  0.00  0.00    +0.000 C 
BRANCH  27  29
ATOM     29  C   UNL     1      -4.050  -1.804  -2.402  0.00  0.00    +0.027 C 
BRANCH  29  31
ATOM     30  C   UNL     1      -6.460  -1.812  -1.742  0.00  0.00    +0.004 C 
ATOM     31  C   UNL     1      -5.151  -2.603  -1.701  0.00  0.00    +0.001 C 
ENDBRANCH  29  31
ENDBRANCH  27  29
ENDBRANCH   1  28
TORSDOF 11
