REMARK  Name = ZINC04302360
REMARK  8 active torsions:
REMARK  status: ('A' for Active; 'I' for Inactive)
REMARK    1  A    between atoms: C_1  and  C_2
REMARK    2  A    between atoms: C_2  and  C_3
REMARK    3  A    between atoms: C_2  and  C_4
REMARK    4  A    between atoms: C_4  and  C_5
REMARK    5  A    between atoms: C_5  and  N_6
REMARK    6  A    between atoms: C_7  and  N_27
REMARK    7  A    between atoms: C_8  and  S_19
REMARK    8  A    between atoms: S_19  and  C_22
REMARK                            x       y       z     vdW  Elec       q    Type
REMARK                         _______ _______ _______ _____ _____    ______ ____
ROOT
ATOM      1  N   UNL     1      -3.510  -0.638  -1.275  0.00  0.00    -0.311 N 
ATOM      2  C   UNL     1      -3.909  -1.864  -1.745  0.00  0.00    +0.126 A 
ATOM      3  C   UNL     1      -5.244  -2.024  -1.589  0.00  0.00    +0.159 A 
ATOM      4  C   UNL     1      -5.759  -0.851  -0.987  0.00  0.00    +0.112 A 
ATOM      5  C   UNL     1      -4.607   0.037  -0.786  0.00  0.00    +0.161 A 
ATOM      6  N   UNL     1      -4.783   1.216  -0.233  0.00  0.00    -0.226 NA
ATOM      7  C   UNL     1      -6.010   1.598   0.147  0.00  0.00    +0.089 A 
ATOM      8  C   UNL     1      -6.207   2.858   0.741  0.00  0.00    +0.030 A 
ATOM      9  C   UNL     1      -7.456   3.239   1.124  0.00  0.00    +0.002 A 
ATOM     10  C   UNL     1      -8.551   2.396   0.938  0.00  0.00    +0.002 A 
ATOM     11  C   UNL     1      -8.400   1.171   0.367  0.00  0.00    +0.028 A 
ATOM     12  C   UNL     1      -7.123   0.741  -0.042  0.00  0.00    +0.066 A 
ATOM     13  N   UNL     1      -6.966  -0.460  -0.610  0.00  0.00    -0.349 N 
ATOM     14  H   UNL     1      -7.730  -1.044  -0.736  0.00  0.00    +0.166 HD
ENDROOT
BRANCH   3  15
ATOM     15  S   UNL     1      -6.178  -3.444  -2.054  0.00  0.00    +0.036 S 
ATOM     16  O   UNL     1      -7.516  -3.006  -2.243  0.00  0.00    -0.164 OA
ATOM     17  O   UNL     1      -5.439  -4.100  -3.075  0.00  0.00    -0.164 OA
BRANCH  15  18
ATOM     18  C   UNL     1      -6.196  -4.532  -0.668  0.00  0.00    +0.131 A 
ATOM     19  C   UNL     1      -7.086  -4.601   0.352  0.00  0.00    +0.035 A 
ATOM     20  C   UNL     1      -6.899  -5.547   1.343  0.00  0.00    +0.009 A 
ATOM     21  C   UNL     1      -5.831  -6.378   1.265  0.00  0.00    +0.047 A 
ATOM     22  S   UNL     1      -5.051  -5.836  -0.247  0.00  0.00    -0.078 S 
ENDBRANCH  15  18
ENDBRANCH   3  15
BRANCH   2  23
ATOM     23  N   UNL     1      -3.064  -2.807  -2.302  0.00  0.00    -0.343 N 
ATOM     24  H   UNL     1      -2.115  -2.621  -2.381  0.00  0.00    +0.144 HD
ATOM     25  H   UNL     1      -3.420  -3.654  -2.613  0.00  0.00    +0.144 HD
ENDBRANCH   2  23
BRANCH   1  26
ATOM     26  C   UNL     1      -2.135  -0.131  -1.286  0.00  0.00    +0.125 C 
BRANCH  26  27
ATOM     27  C   UNL     1      -1.433  -0.534   0.013  0.00  0.00    +0.024 C 
BRANCH  27  29
ATOM     28  C   UNL     1      -0.019   1.526   0.010  0.00  0.00    +0.007 C 
ATOM     29  C   UNL     1       0.002  -0.004   0.002  0.00  0.00    -0.016 C 
ATOM     30  C   UNL     1       0.742  -0.511   1.242  0.00  0.00    +0.007 C 
ENDBRANCH  27  29
ENDBRANCH  26  27
ENDBRANCH   1  26
TORSDOF 6
