REMARK  Name = ZINC40729749
REMARK  7 active torsions:
REMARK  status: ('A' for Active; 'I' for Inactive)
REMARK    1  A    between atoms: C_1  and  C_2
REMARK    2  A    between atoms: C_7  and  N_8
REMARK    3  A    between atoms: C_10  and  N_34
REMARK    4  A    between atoms: C_11  and  N_15
REMARK    5  A    between atoms: N_18  and  C_21
REMARK    6  A    between atoms: C_21  and  C_22
REMARK    7  A    between atoms: C_21  and  C_28
REMARK                            x       y       z     vdW  Elec       q    Type
REMARK                         _______ _______ _______ _____ _____    ______ ____
ROOT
ATOM      1  N   UNL     1       2.382  -2.060   3.431  0.00  0.00    -0.284 N 
ATOM      2  C   UNL     1       1.216  -1.646   4.066  0.00  0.00    +0.127 A 
ATOM      3  C   UNL     1       1.277  -0.925   5.260  0.00  0.00    +0.104 A 
ATOM      4  C   UNL     1       0.076  -0.534   5.856  0.00  0.00    +0.147 A 
ATOM      5  N   UNL     1      -1.072  -0.861   5.268  0.00  0.00    -0.221 NA
ATOM      6  C   UNL     1      -1.085  -1.543   4.140  0.00  0.00    +0.200 A 
ATOM      7  N   UNL     1       0.025  -1.926   3.542  0.00  0.00    -0.333 N 
ATOM      8  H   UNL     1       3.241  -1.937   3.865  0.00  0.00    +0.155 HD
ATOM      9  H   UNL     1      -0.026  -2.423   2.711  0.00  0.00    +0.168 HD
ENDROOT
BRANCH   1  16
ATOM     10  C   UNL     1       4.832  -2.662   2.115  0.00  0.00    +0.047 C 
ATOM     11  C   UNL     1       3.492  -2.961   1.496  0.00  0.00    -0.010 A 
ATOM     12  C   UNL     1       3.412  -3.554   0.248  0.00  0.00    +0.008 A 
ATOM     13  C   UNL     1       2.156  -3.812  -0.284  0.00  0.00    +0.020 A 
ATOM     14  C   UNL     1       1.032  -3.471   0.441  0.00  0.00    +0.113 A 
ATOM     15  N   UNL     1       1.137  -2.907   1.629  0.00  0.00    -0.240 NA
ATOM     16  C   UNL     1       2.317  -2.651   2.173  0.00  0.00    +0.127 A 
ENDBRANCH   1  16
BRANCH   4  17
ATOM     17  N   UNL     1       0.080   0.184   7.045  0.00  0.00    -0.311 N 
ATOM     18  C   UNL     1       0.213   1.649   7.042  0.00  0.00    +0.122 C 
ATOM     19  C   UNL     1      -0.916   2.243   7.892  0.00  0.00    +0.104 C 
ATOM     20  N   UNL     1      -0.900   1.621   9.223  0.00  0.00    -0.289 NA
ATOM     21  C   UNL     1      -1.167   0.178   9.140  0.00  0.00    +0.104 C 
ATOM     22  C   UNL     1      -0.055  -0.499   8.341  0.00  0.00    +0.122 C 
BRANCH  20  23
ATOM     23  C   UNL     1      -1.854   2.282  10.123  0.00  0.00    +0.117 C 
BRANCH  23  24
ATOM     24  C   UNL     1      -1.810   1.618  11.476  0.00  0.00    -0.026 A 
ATOM     25  C   UNL     1      -0.599   1.229  12.016  0.00  0.00    +0.005 A 
ATOM     26  C   UNL     1      -0.559   0.620  13.256  0.00  0.00    +0.000 A 
ATOM     27  C   UNL     1      -1.730   0.402  13.957  0.00  0.00    +0.000 A 
ATOM     28  C   UNL     1      -2.941   0.792  13.418  0.00  0.00    +0.000 A 
ATOM     29  C   UNL     1      -2.981   1.404  12.179  0.00  0.00    +0.005 A 
ENDBRANCH  23  24
BRANCH  23  30
ATOM     30  C   UNL     1      -1.486   3.736  10.265  0.00  0.00    -0.026 A 
ATOM     31  C   UNL     1      -0.158   4.107  10.360  0.00  0.00    +0.005 A 
ATOM     32  C   UNL     1       0.180   5.441  10.490  0.00  0.00    +0.000 A 
ATOM     33  C   UNL     1      -0.811   6.404  10.525  0.00  0.00    +0.000 A 
ATOM     34  C   UNL     1      -2.139   6.034  10.430  0.00  0.00    +0.000 A 
ATOM     35  C   UNL     1      -2.477   4.700  10.295  0.00  0.00    +0.005 A 
ENDBRANCH  23  30
ENDBRANCH  20  23
ENDBRANCH   4  17
BRANCH   3  36
ATOM     36  N   UNL     1       2.511  -0.603   5.846  0.00  0.00    -0.353 N 
ATOM     37  H   UNL     1       3.338  -0.817   5.385  0.00  0.00    +0.143 HD
ATOM     38  H   UNL     1       2.538  -0.166   6.712  0.00  0.00    +0.143 HD
ENDBRANCH   3  36
TORSDOF 6
