REMARK  Name = ZINC53043792
REMARK  5 active torsions:
REMARK  status: ('A' for Active; 'I' for Inactive)
REMARK    1  A    between atoms: C_1  and  C_2
REMARK    2  A    between atoms: C_5  and  C_7
REMARK    3  A    between atoms: C_7  and  N_8
REMARK    4  A    between atoms: C_9  and  C_11
REMARK    5  A    between atoms: C_16  and  N_17
REMARK                            x       y       z     vdW  Elec       q    Type
REMARK                         _______ _______ _______ _____ _____    ______ ____
ROOT
ATOM      1  N   UNL     1       2.020  -3.588  -1.409  0.00  0.00    -0.304 N 
ATOM      2  C   UNL     1       2.825  -4.639  -1.663  0.00  0.00    +0.248 C 
ATOM      3  O   UNL     1       3.309  -5.270  -0.743  0.00  0.00    -0.270 OA
ATOM      4  H   UNL     1       1.634  -3.084  -2.142  0.00  0.00    +0.149 HD
ENDROOT
BRANCH   2   5
ATOM      5  C   UNL     1       3.118  -5.023  -3.056  0.00  0.00    +0.077 A 
ATOM      6  C   UNL     1       2.472  -4.386  -4.122  0.00  0.00    +0.033 A 
ATOM      7  C   UNL     1       2.783  -4.783  -5.410  0.00  0.00    +0.037 A 
ATOM      8  C   UNL     1       3.713  -5.788  -5.608  0.00  0.00    +0.128 A 
ATOM      9  N   UNL     1       4.310  -6.377  -4.590  0.00  0.00    -0.239 NA
ATOM     10  C   UNL     1       4.055  -6.032  -3.337  0.00  0.00    +0.128 A 
ATOM     11 BR   UNL     1       1.942  -3.958  -6.890  0.00  0.00    -0.049 Br
BRANCH  10  12
ATOM     12  N   UNL     1       4.709  -6.671  -2.301  0.00  0.00    -0.343 N 
ATOM     13  H   UNL     1       4.464  -6.481  -1.382  0.00  0.00    +0.144 HD
ATOM     14  H   UNL     1       5.412  -7.311  -2.493  0.00  0.00    +0.144 HD
ENDBRANCH  10  12
ENDBRANCH   2   5
BRANCH   1  15
ATOM     15  C   UNL     1       1.729  -3.206  -0.025  0.00  0.00    +0.179 C 
BRANCH  15  20
ATOM     16  C   UNL     1       0.128   1.577   0.004  0.00  0.00    +0.086 C 
ATOM     17  C   UNL     1       0.116   0.070  -0.003  0.00  0.00    +0.102 A 
ATOM     18  C   UNL     1      -0.981  -0.708  -0.002  0.00  0.00    +0.045 A 
ATOM     19  C   UNL     1      -0.532  -2.049  -0.010  0.00  0.00    +0.046 A 
ATOM     20  C   UNL     1       0.812  -2.010  -0.016  0.00  0.00    +0.122 A 
ATOM     21  O   UNL     1       1.200  -0.724  -0.017  0.00  0.00    -0.463 OA
ENDBRANCH  15  20
ENDBRANCH   1  15
TORSDOF 4
