REMARK  Name = ZINC03591092
REMARK  3 active torsions:
REMARK  status: ('A' for Active; 'I' for Inactive)
REMARK    1  A    between atoms: C_6  and  C_7
REMARK    2  A    between atoms: C_7  and  C_9
REMARK    3  A    between atoms: C_9  and  N_10
REMARK                            x       y       z     vdW  Elec       q    Type
REMARK                         _______ _______ _______ _____ _____    ______ ____
ROOT
ATOM      1  N   UNL     1       2.333  -4.328  -0.044  0.00  0.00    -0.217 N 
ATOM      2  C   UNL     1       2.198  -5.069  -1.163  0.00  0.00    +0.247 C 
ATOM      3  O   UNL     1       2.251  -4.682  -2.311  0.00  0.00    -0.273 OA
ATOM      4  C   UNL     1       1.968  -6.484  -0.684  0.00  0.00    +0.113 C 
ATOM      5  C   UNL     1       3.083  -7.400  -1.178  0.00  0.00    +0.035 C 
ATOM      6  C   UNL     1       2.847  -8.821  -0.660  0.00  0.00    +0.003 C 
ATOM      7  C   UNL     1       1.492  -9.326  -1.158  0.00  0.00    +0.000 C 
ATOM      8  C   UNL     1       0.382  -8.412  -0.634  0.00  0.00    +0.003 C 
ATOM      9  C   UNL     1       0.608  -6.989  -1.153  0.00  0.00    +0.035 C 
ATOM     10  N   UNL     1       2.001  -6.375   0.779  0.00  0.00    -0.285 N 
ATOM     11  C   UNL     1       2.225  -5.077   1.060  0.00  0.00    +0.310 C 
ATOM     12  O   UNL     1       2.317  -4.635   2.188  0.00  0.00    -0.252 OA
ATOM     13  H   UNL     1       1.888  -7.096   1.418  0.00  0.00    +0.151 HD
ENDROOT
BRANCH   1  14
ATOM     14  C   UNL     1       2.572  -2.882  -0.038  0.00  0.00    +0.197 C 
BRANCH  14  15
ATOM     15  C   UNL     1       1.253  -2.154  -0.022  0.00  0.00    +0.181 C 
ATOM     16  O   UNL     1       0.215  -2.781  -0.016  0.00  0.00    -0.290 OA
BRANCH  15  22
ATOM     17  C   UNL     1       0.002  -0.004   0.002  0.00  0.00    +0.012 A 
ATOM     18  C   UNL     1      -0.017   1.374   0.010  0.00  0.00    +0.016 A 
ATOM     19  C   UNL     1       1.171   2.086   0.002  0.00  0.00    +0.018 A 
ATOM     20  C   UNL     1       2.386   1.421  -0.013  0.00  0.00    +0.016 A 
ATOM     21  C   UNL     1       2.421   0.043  -0.021  0.00  0.00    +0.012 A 
ATOM     22  C   UNL     1       1.225  -0.683  -0.013  0.00  0.00    +0.019 A 
ATOM     23 BR   UNL     1       1.135   3.977   0.013  0.00  0.00    -0.050 Br
ENDBRANCH  15  22
ENDBRANCH  14  15
ENDBRANCH   1  14
TORSDOF 3
