REMARK  Name = ZINC39961052
REMARK  7 active torsions:
REMARK  status: ('A' for Active; 'I' for Inactive)
REMARK    1  A    between atoms: C_1  and  C_2
REMARK    2  A    between atoms: C_6  and  C_7
REMARK    3  A    between atoms: C_7  and  C_8
REMARK    4  A    between atoms: C_7  and  C_27
REMARK    5  A    between atoms: N_11  and  C_18
REMARK    6  A    between atoms: C_18  and  C_19
REMARK    7  A    between atoms: C_29  and  C_34
REMARK                            x       y       z     vdW  Elec       q    Type
REMARK                         _______ _______ _______ _____ _____    ______ ____
ROOT
ATOM      1  C   UNL     1      -0.030  -0.342  -2.566  0.00  0.00    +0.072 C 
ENDROOT
BRANCH   1   2
ATOM      2  C   UNL     1      -1.194  -1.127  -3.174  0.00  0.00    +0.050 C 
ATOM      3  C   UNL     1      -2.522  -0.711  -2.519  0.00  0.00    +0.114 C 
ATOM      4  N   UNL     1      -3.333  -0.166  -3.611  0.00  0.00    -0.325 N 
ATOM      5  C   UNL     1      -2.623  -0.223  -4.811  0.00  0.00    +0.034 A 
ATOM      6  C   UNL     1      -1.361  -0.776  -4.635  0.00  0.00    -0.021 A 
ATOM      7  C   UNL     1      -0.501  -0.921  -5.706  0.00  0.00    +0.006 A 
ATOM      8  C   UNL     1      -0.891  -0.517  -6.969  0.00  0.00    +0.000 A 
ATOM      9  C   UNL     1      -2.145   0.034  -7.159  0.00  0.00    +0.002 A 
ATOM     10  C   UNL     1      -3.011   0.185  -6.089  0.00  0.00    +0.023 A 
BRANCH   4  11
ATOM     11  C   UNL     1      -4.692   0.362  -3.463  0.00  0.00    +0.140 C 
BRANCH  11  12
ATOM     12  C   UNL     1      -4.628   1.837  -3.161  0.00  0.00    -0.029 A 
ATOM     13  C   UNL     1      -4.560   2.271  -1.850  0.00  0.00    +0.007 A 
ATOM     14  C   UNL     1      -4.501   3.624  -1.571  0.00  0.00    +0.022 A 
ATOM     15  C   UNL     1      -4.510   4.544  -2.604  0.00  0.00    +0.059 A 
ATOM     16  C   UNL     1      -4.578   4.109  -3.917  0.00  0.00    +0.060 A 
ATOM     17  C   UNL     1      -4.631   2.755  -4.194  0.00  0.00    +0.026 A 
ATOM     18 CL   UNL     1      -4.590   5.263  -5.214  0.00  0.00    -0.082 Cl
ATOM     19 CL   UNL     1      -4.438   6.243  -2.255  0.00  0.00    -0.082 Cl
ENDBRANCH  11  12
ENDBRANCH   4  11
ENDBRANCH   1   2
BRANCH   1  20
ATOM     20  C   UNL     1       1.254  -0.737  -3.250  0.00  0.00    +0.047 A 
ATOM     21  H   UNL     1       3.415  -2.735  -4.432  0.00  0.00    +0.190 HD
ATOM     22  C   UNL     1       2.191   0.109  -3.723  0.00  0.00    +0.038 A 
ATOM     23  N   UNL     1       3.201  -0.628  -4.271  0.00  0.00    -0.301 N 
ATOM     24  N   UNL     1       2.878  -1.985  -4.133  0.00  0.00    -0.266 N 
ATOM     25  C   UNL     1       1.688  -2.059  -3.502  0.00  0.00    +0.268 A 
ATOM     26  O   UNL     1       1.093  -3.080  -3.207  0.00  0.00    -0.266 OA
ATOM     27  C   UNL     1       2.133   1.614  -3.658  0.00  0.00    +0.065 C 
ATOM     28  H   UNL     1       4.004  -0.274  -4.685  0.00  0.00    +0.186 HD
ENDBRANCH   1  20
BRANCH   1  34
ATOM     29  C   UNL     1       0.117   1.784  -0.221  0.00  0.00    +0.068 C 
ATOM     30  C   UNL     1       0.135   0.286  -0.058  0.00  0.00    +0.067 A 
ATOM     31  N   UNL     1       0.209  -0.361   1.077  0.00  0.00    -0.176 NA
ATOM     32  N   UNL     1       0.198  -1.734   0.802  0.00  0.00    -0.243 N 
ATOM     33  C   UNL     1       0.116  -1.891  -0.537  0.00  0.00    +0.270 A 
ATOM     34  C   UNL     1       0.070  -0.651  -1.094  0.00  0.00    +0.049 A 
ATOM     35  O   UNL     1       0.081  -3.071  -1.206  0.00  0.00    -0.266 OA
ATOM     36  H   UNL     1       0.243  -2.447   1.459  0.00  0.00    +0.192 HD
ENDBRANCH   1  34
TORSDOF 5
