REMARK  Name = ZINC35507670
REMARK  7 active torsions:
REMARK  status: ('A' for Active; 'I' for Inactive)
REMARK    1  A    between atoms: C_1  and  C_2
REMARK    2  A    between atoms: C_3  and  C_21
REMARK    3  A    between atoms: C_4  and  C_12
REMARK    4  A    between atoms: C_15  and  N_18
REMARK    5  A    between atoms: N_18  and  C_19
REMARK    6  A    between atoms: N_18  and  C_20
REMARK    7  A    between atoms: N_23  and  C_24
REMARK                            x       y       z     vdW  Elec       q    Type
REMARK                         _______ _______ _______ _____ _____    ______ ____
ROOT
ATOM      1  C   UNL     1       0.043   1.446   0.140  0.00  0.00    +0.061 C 
ATOM      2  C   UNL     1       0.060  -0.059   0.075  0.00  0.00    +0.018 C 
ATOM      3  C   UNL     1      -1.106  -0.718   0.019  0.00  0.00    +0.060 C 
ATOM      4  C   UNL     1      -1.199  -2.219  -0.061  0.00  0.00    +0.177 C 
ATOM      5  N   UNL     1       0.108  -2.803   0.224  0.00  0.00    -0.221 N 
ATOM      6  C   UNL     1       1.256  -2.083   0.278  0.00  0.00    +0.218 A 
ATOM      7  N   UNL     1       2.234  -2.904   0.545  0.00  0.00    -0.201 NA
ATOM      8  C   UNL     1       1.754  -4.146   0.672  0.00  0.00    +0.247 A 
ATOM      9  N   UNL     1       0.458  -4.127   0.484  0.00  0.00    -0.156 NA
ATOM     10  N   UNL     1       1.270  -0.710   0.068  0.00  0.00    -0.287 N 
ATOM     11  H   UNL     1       2.100  -0.229  -0.073  0.00  0.00    +0.155 HD
ENDROOT
BRANCH   4  12
ATOM     12  C   UNL     1      -1.639  -2.622  -1.445  0.00  0.00    -0.018 A 
ATOM     13  C   UNL     1      -0.867  -2.280  -2.541  0.00  0.00    +0.008 A 
ATOM     14  C   UNL     1      -1.267  -2.648  -3.811  0.00  0.00    +0.023 A 
ATOM     15  C   UNL     1      -2.445  -3.362  -3.986  0.00  0.00    +0.029 A 
ATOM     16  C   UNL     1      -3.218  -3.704  -2.884  0.00  0.00    +0.023 A 
ATOM     17  C   UNL     1      -2.809  -3.337  -1.616  0.00  0.00    +0.008 A 
BRANCH  15  18
ATOM     18  N   UNL     1      -2.853  -3.735  -5.269  0.00  0.00    -0.336 N 
ATOM     19  C   UNL     1      -2.099  -3.277  -6.439  0.00  0.00    +0.129 C 
ATOM     20  C   UNL     1      -4.034  -4.584  -5.445  0.00  0.00    +0.129 C 
ENDBRANCH  15  18
ENDBRANCH   4  12
BRANCH   3  21
ATOM     21  C   UNL     1      -2.306   0.032   0.036  0.00  0.00    +0.248 C 
ATOM     22  O   UNL     1      -2.263   1.247   0.101  0.00  0.00    -0.270 OA
ATOM     23  N   UNL     1      -3.496  -0.599  -0.018  0.00  0.00    -0.280 N 
ATOM     24  H   UNL     1      -3.533  -1.568   0.012  0.00  0.00    +0.155 HD
BRANCH  23  25
ATOM     25  C   UNL     1      -4.677   0.144  -0.119  0.00  0.00    +0.052 A 
ATOM     26  C   UNL     1      -4.652   1.420  -0.667  0.00  0.00    +0.025 A 
ATOM     27  C   UNL     1      -5.820   2.150  -0.764  0.00  0.00    +0.002 A 
ATOM     28  C   UNL     1      -7.014   1.613  -0.318  0.00  0.00    +0.002 A 
ATOM     29  C   UNL     1      -7.043   0.343   0.228  0.00  0.00    +0.022 A 
ATOM     30  C   UNL     1      -5.879  -0.396   0.324  0.00  0.00    +0.062 A 
ATOM     31 CL   UNL     1      -5.917  -1.993   1.003  0.00  0.00    -0.082 Cl
ENDBRANCH  23  25
ENDBRANCH   3  21
TORSDOF 4
