REMARK  Name = ZINC54841385
REMARK  10 active torsions:
REMARK  status: ('A' for Active; 'I' for Inactive)
REMARK    1  A    between atoms: C_1  and  C_2
REMARK    2  A    between atoms: C_5  and  C_8
REMARK    3  A    between atoms: C_8  and  N_9
REMARK    4  A    between atoms: C_10  and  C_12
REMARK    5  A    between atoms: N_14  and  C_15
REMARK    6  A    between atoms: C_18  and  C_21
REMARK    7  A    between atoms: C_23  and  C_26
REMARK    8  A    between atoms: C_26  and  C_27
REMARK    9  A    between atoms: C_26  and  C_28
REMARK   10  A    between atoms: C_26  and  C_29
REMARK                            x       y       z     vdW  Elec       q    Type
REMARK                         _______ _______ _______ _____ _____    ______ ____
ROOT
ATOM      1  C   UNL     1       3.071  -6.693  -0.637  0.00  0.00    +0.303 C 
ATOM      2  O   UNL     1       3.933  -6.027  -1.171  0.00  0.00    -0.265 OA
ATOM      3  N   UNL     1       3.388  -7.869  -0.059  0.00  0.00    -0.278 N 
ATOM      4  H   UNL     1       2.713  -8.369   0.425  0.00  0.00    +0.155 HD
ENDROOT
BRANCH   3   5
ATOM      5  C   UNL     1       4.687  -8.367  -0.159  0.00  0.00    +0.034 A 
ATOM      6  C   UNL     1       5.769  -7.493  -0.149  0.00  0.00    +0.024 A 
ATOM      7  C   UNL     1       7.053  -7.982  -0.248  0.00  0.00    +0.013 A 
ATOM      8  C   UNL     1       7.268  -9.356  -0.358  0.00  0.00    +0.023 A 
ATOM      9  C   UNL     1       6.182 -10.231  -0.368  0.00  0.00    +0.013 A 
ATOM     10  C   UNL     1       4.900  -9.737  -0.264  0.00  0.00    +0.024 A 
BRANCH   8  11
ATOM     11  C   UNL     1       8.649  -9.885  -0.466  0.00  0.00    +0.202 A 
ATOM     12  N   UNL     1       8.986 -11.182  -0.582  0.00  0.00    -0.191 NA
ATOM     13  C   UNL     1      10.281 -11.303  -0.653  0.00  0.00    +0.233 A 
ATOM     14  O   UNL     1      10.825 -10.081  -0.585  0.00  0.00    -0.337 OA
ATOM     15  N   UNL     1       9.745  -9.167  -0.469  0.00  0.00    -0.056 NA
BRANCH  13  16
ATOM     16  C   UNL     1      11.039 -12.598  -0.789  0.00  0.00    +0.041 C 
ATOM     17  C   UNL     1      10.613 -13.305  -2.078  0.00  0.00    +0.020 C 
ATOM     18  C   UNL     1      12.540 -12.308  -0.839  0.00  0.00    +0.020 C 
ATOM     19  C   UNL     1      10.732 -13.496   0.410  0.00  0.00    +0.020 C 
ENDBRANCH  13  16
ENDBRANCH   8  11
ENDBRANCH   3   5
BRANCH   1  21
ATOM     20  N   UNL     1       1.340  -5.034  -1.196  0.00  0.00    -0.303 N 
ATOM     21  C   UNL     1       1.658  -6.210  -0.619  0.00  0.00    +0.300 C 
ATOM     22  O   UNL     1       0.795  -6.875  -0.084  0.00  0.00    -0.265 OA
ATOM     23  H   UNL     1       2.030  -4.502  -1.623  0.00  0.00    +0.149 HD
BRANCH  20  24
ATOM     24  C   UNL     1      -0.046  -4.559  -1.178  0.00  0.00    +0.140 C 
BRANCH  24  29
ATOM     25  C   UNL     1      -0.377   0.534  -3.887  0.00  0.00    +0.044 C 
ATOM     26  C   UNL     1      -0.290  -0.794  -3.181  0.00  0.00    -0.050 A 
ATOM     27  C   UNL     1      -0.456  -1.968  -3.892  0.00  0.00    +0.003 A 
ATOM     28  C   UNL     1      -0.377  -3.186  -3.244  0.00  0.00    +0.005 A 
ATOM     29  C   UNL     1      -0.131  -3.231  -1.885  0.00  0.00    -0.030 A 
ATOM     30  C   UNL     1       0.035  -2.058  -1.173  0.00  0.00    +0.005 A 
ATOM     31  C   UNL     1      -0.040  -0.839  -1.822  0.00  0.00    +0.003 A 
ENDBRANCH  24  29
ENDBRANCH  20  24
ENDBRANCH   1  21
TORSDOF 6
