REMARK  Name = ZINC04374465
REMARK  3 active torsions:
REMARK  status: ('A' for Active; 'I' for Inactive)
REMARK    1  A    between atoms: C_6  and  C_7
REMARK    2  A    between atoms: C_10  and  C_30
REMARK    3  A    between atoms: C_14  and  C_17
REMARK                            x       y       z     vdW  Elec       q    Type
REMARK                         _______ _______ _______ _____ _____    ______ ____
ROOT
ATOM      1  C   UNL     1      -0.593  -0.561   0.103  0.00  0.00    +0.104 C 
ATOM      2  C   UNL     1      -1.085  -0.935  -1.300  0.00  0.00    +0.063 C 
ATOM      3  C   UNL     1      -0.168  -2.005  -1.903  0.00  0.00    +0.215 C 
ATOM      4  N   UNL     1       0.007  -3.085  -0.927  0.00  0.00    -0.238 N 
ATOM      5  C   UNL     1      -0.237  -2.945   0.398  0.00  0.00    +0.130 A 
ATOM      6  C   UNL     1       0.032  -4.159   1.003  0.00  0.00    +0.096 A 
ATOM      7  C   UNL     1       0.453  -5.042  -0.024  0.00  0.00    +0.149 A 
ATOM      8  N   UNL     1       0.433  -4.392  -1.156  0.00  0.00    -0.177 NA
ATOM      9  N   UNL     1      -0.674  -1.756   0.966  0.00  0.00    -0.322 N 
ATOM     10  H   UNL     1      -1.014  -1.711   1.873  0.00  0.00    +0.148 HD
ENDROOT
BRANCH   6  11
ATOM     11  C   UNL     1      -0.093  -4.472   2.431  0.00  0.00    +0.251 C 
ATOM     12  O   UNL     1      -1.010  -4.002   3.079  0.00  0.00    -0.270 OA
ATOM     13  N   UNL     1       0.806  -5.281   3.025  0.00  0.00    -0.301 N 
ATOM     14  C   UNL     1       1.984  -5.748   2.283  0.00  0.00    +0.089 C 
ATOM     15  C   UNL     1       3.245  -5.592   3.151  0.00  0.00    -0.059 C 
ATOM     16  N   UNL     1       2.982  -6.227   4.436  0.00  0.00    +0.384 N 
ATOM     17  C   UNL     1       4.117  -6.279   5.360  0.00  0.00    -0.078 C 
ATOM     18  C   UNL     1       3.511  -6.225   6.783  0.00  0.00    -0.020 C 
ATOM     19  C   UNL     1       1.984  -6.041   6.562  0.00  0.00    -0.016 C 
ATOM     20  C   UNL     1       1.935  -5.443   5.144  0.00  0.00    -0.051 C 
ATOM     21  C   UNL     1       0.617  -5.700   4.429  0.00  0.00    +0.093 C 
ATOM     22  H   UNL     1       2.647  -7.166   4.281  0.00  0.00    -0.081 HD
ENDBRANCH   6  11
BRANCH   1  28
ATOM     23  C   UNL     1       1.115   1.268   0.046  0.00  0.00    +0.006 A 
ATOM     24  C   UNL     1       2.425   1.704  -0.022  0.00  0.00    +0.015 A 
ATOM     25  C   UNL     1       3.456   0.786  -0.107  0.00  0.00    +0.018 A 
ATOM     26  C   UNL     1       3.175  -0.569  -0.124  0.00  0.00    +0.015 A 
ATOM     27  C   UNL     1       1.865  -1.004  -0.057  0.00  0.00    +0.006 A 
ATOM     28  C   UNL     1       0.835  -0.086   0.029  0.00  0.00    -0.027 A 
ATOM     29 BR   UNL     1       5.248   1.382  -0.201  0.00  0.00    -0.050 Br
ENDBRANCH   1  28
BRANCH   3  30
ATOM     30  C   UNL     1      -0.802  -2.563  -3.180  0.00  0.00    +0.412 C 
ATOM     31  F   UNL     1      -0.979  -1.527  -4.103  0.00  0.00    -0.168 F 
ATOM     32  F   UNL     1       0.036  -3.539  -3.728  0.00  0.00    -0.168 F 
ATOM     33  F   UNL     1      -2.043  -3.132  -2.874  0.00  0.00    -0.168 F 
ENDBRANCH   3  30
TORSDOF 3
