REMARK  Name = ZINC58912098
REMARK  8 active torsions:
REMARK  status: ('A' for Active; 'I' for Inactive)
REMARK    1  A    between atoms: C_1  and  C_2
REMARK    2  A    between atoms: C_2  and  C_9
REMARK    3  A    between atoms: C_11  and  S_17
REMARK    4  A    between atoms: C_14  and  O_15
REMARK    5  A    between atoms: O_15  and  C_16
REMARK    6  A    between atoms: S_17  and  N_20
REMARK    7  A    between atoms: N_20  and  C_21
REMARK    8  A    between atoms: C_25  and  N_27
REMARK                            x       y       z     vdW  Elec       q    Type
REMARK                         _______ _______ _______ _____ _____    ______ ____
ROOT
ATOM      1  C   UNL     1       0.657  -0.517  -1.255  0.00  0.00    +0.028 A 
ATOM      2  C   UNL     1       1.777  -1.321  -1.172  0.00  0.00    +0.038 A 
ATOM      3  C   UNL     1       2.379  -1.792  -2.324  0.00  0.00    +0.111 A 
ATOM      4  C   UNL     1       1.861  -1.459  -3.562  0.00  0.00    +0.032 A 
ATOM      5  C   UNL     1       0.741  -0.656  -3.651  0.00  0.00    +0.048 A 
ATOM      6  C   UNL     1       0.132  -0.186  -2.495  0.00  0.00    +0.126 A 
ENDROOT
BRANCH   1   8
ATOM      7  C   UNL     1      -0.019   1.526   0.010  0.00  0.00    +0.047 C 
ATOM      8  C   UNL     1       0.002  -0.004   0.002  0.00  0.00    +0.138 C 
ATOM      9  C   UNL     1      -1.403  -0.557   0.139  0.00  0.00    +0.248 C 
ATOM     10  O   UNL     1      -2.332  -0.392  -0.621  0.00  0.00    -0.273 OA
ATOM     11  N   UNL     1      -1.403  -1.272   1.282  0.00  0.00    -0.238 N 
ATOM     12  C   UNL     1      -0.206  -1.247   1.879  0.00  0.00    +0.307 C 
ATOM     13  O   UNL     1       0.040  -1.819   2.924  0.00  0.00    -0.252 OA
ATOM     14  N   UNL     1       0.695  -0.520   1.195  0.00  0.00    -0.281 N 
ATOM     15  H   UNL     1      -2.175  -1.745   1.629  0.00  0.00    +0.159 HD
ATOM     16  H   UNL     1       1.621  -0.365   1.440  0.00  0.00    +0.152 HD
ENDBRANCH   1   8
BRANCH   3  17
ATOM     17  S   UNL     1       3.808  -2.816  -2.215  0.00  0.00    +0.092 S 
ATOM     18  O   UNL     1       4.503  -2.678  -3.447  0.00  0.00    -0.148 OA
ATOM     19  O   UNL     1       4.416  -2.534  -0.962  0.00  0.00    -0.148 OA
BRANCH  17  20
ATOM     20  N   UNL     1       3.282  -4.385  -2.143  0.00  0.00    -0.098 NA
BRANCH  20  21
ATOM     21  C   UNL     1       4.206  -5.429  -2.050  0.00  0.00    +0.077 A 
ATOM     22  C   UNL     1       5.567  -5.152  -2.013  0.00  0.00    +0.028 A 
ATOM     23  C   UNL     1       6.478  -6.185  -1.921  0.00  0.00    +0.024 A 
ATOM     24  C   UNL     1       6.037  -7.496  -1.866  0.00  0.00    +0.071 A 
ATOM     25  C   UNL     1       4.683  -7.774  -1.904  0.00  0.00    +0.146 A 
ATOM     26  C   UNL     1       3.766  -6.744  -1.989  0.00  0.00    +0.061 A 
ATOM     27 CL   UNL     1       7.186  -8.792  -1.751  0.00  0.00    -0.081 Cl
BRANCH  25  28
ATOM     28  N   UNL     1       4.215  -9.177  -1.846  0.00  0.00    +0.058 N 
ATOM     29  O   UNL     1       3.031  -9.422  -1.878  0.00  0.00    -0.126 OA
ATOM     30  O   UNL     1       5.016 -10.079  -1.766  0.00  0.00    -0.126 OA
ENDBRANCH  25  28
ENDBRANCH  20  21
ENDBRANCH  17  20
ENDBRANCH   3  17
BRANCH   6  31
ATOM     31  O   UNL     1      -0.973   0.600  -2.579  0.00  0.00    -0.495 OA
ATOM     32  C   UNL     1      -1.458   0.899  -3.890  0.00  0.00    +0.277 C 
ENDBRANCH   6  31
TORSDOF 6
