REMARK  Name = ZINC03843570
REMARK  6 active torsions:
REMARK  status: ('A' for Active; 'I' for Inactive)
REMARK    1  A    between atoms: C_1  and  C_2
REMARK    2  A    between atoms: C_5  and  C_27
REMARK    3  A    between atoms: C_5  and  O_29
REMARK    4  A    between atoms: C_17  and  C_26
REMARK    5  A    between atoms: C_22  and  C_23
REMARK    6  A    between atoms: C_22  and  O_25
REMARK                            x       y       z     vdW  Elec       q    Type
REMARK                         _______ _______ _______ _____ _____    ______ ____
ROOT
ATOM      1  C   UNL     1       0.521   0.227   2.894  0.00  0.00    +0.012 C 
ATOM      2  C   UNL     1       0.103   1.635   2.487  0.00  0.00    -0.026 C 
ATOM      3  C   UNL     1       1.348   2.507   2.287  0.00  0.00    +0.011 C 
ATOM      4  C   UNL     1       2.122   2.658   3.590  0.00  0.00    +0.048 C 
ATOM      5  C   UNL     1       1.256   3.218   4.712  0.00  0.00    +0.126 C 
ATOM      6  C   UNL     1      -0.030   2.412   4.875  0.00  0.00    +0.052 C 
ATOM      7  C   UNL     1      -0.778   2.301   3.554  0.00  0.00    -0.001 C 
ATOM      8  C   UNL     1      -2.101   1.564   3.740  0.00  0.00    +0.004 C 
ATOM      9  C   UNL     1      -2.878   1.516   2.412  0.00  0.00    +0.004 C 
ATOM     10  C   UNL     1      -1.994   0.805   1.402  0.00  0.00    -0.004 C 
ATOM     11  C   UNL     1      -0.711   1.621   1.199  0.00  0.00    -0.001 C 
ATOM     12  C   UNL     1       0.010   1.106  -0.035  0.00  0.00    +0.005 C 
ATOM     13  C   UNL     1      -0.769   1.603  -1.273  0.00  0.00    +0.011 C 
ATOM     14  C   UNL     1      -2.252   1.483  -1.033  0.00  0.00    +0.011 C 
ATOM     15  C   UNL     1      -2.591   0.466   0.072  0.00  0.00    +0.002 C 
ATOM     16  C   UNL     1      -4.124   0.403  -0.001  0.00  0.00    +0.008 C 
ATOM     17  C   UNL     1      -4.428   0.526  -1.517  0.00  0.00    +0.049 C 
ATOM     18  C   UNL     1      -3.101   0.953  -2.201  0.00  0.00    +0.132 C 
ATOM     19  C   UNL     1      -2.823   2.870  -0.688  0.00  0.00    +0.015 C 
ENDROOT
BRANCH  18  20
ATOM     20  C   UNL     1      -2.485  -0.202  -2.860  0.00  0.00    -0.070 C 
ATOM     21  C   UNL     1      -1.991  -1.127  -3.388  0.00  0.00    +0.007 C 
ENDBRANCH  18  20
BRANCH  18  22
ATOM     22  O   UNL     1      -3.346   2.002  -3.138  0.00  0.00    -0.376 OA
ATOM     23  H   UNL     1      -3.878   1.732  -3.899  0.00  0.00    +0.211 HD
ENDBRANCH  18  22
BRANCH   5  24
ATOM     24  C   UNL     1       0.940   4.632   4.452  0.00  0.00    -0.071 C 
ATOM     25  C   UNL     1       0.688   5.760   4.244  0.00  0.00    +0.007 C 
ENDBRANCH   5  24
BRANCH   5  26
ATOM     26  O   UNL     1       1.998   3.144   5.942  0.00  0.00    -0.377 OA
ATOM     27  H   UNL     1       2.833   3.631   5.927  0.00  0.00    +0.211 HD
ENDBRANCH   5  26
TORSDOF 4
