REMARK  Name = ZINC20799126
REMARK  4 active torsions:
REMARK  status: ('A' for Active; 'I' for Inactive)
REMARK    1  A    between atoms: C_4  and  N_7
REMARK    2  A    between atoms: C_13  and  C_18
REMARK    3  A    between atoms: C_18  and  C_19
REMARK    4  A    between atoms: N_21  and  C_22
REMARK                            x       y       z     vdW  Elec       q    Type
REMARK                         _______ _______ _______ _____ _____    ______ ____
ROOT
ATOM      1  N   UNL     1       3.696  -0.542   0.232  0.00  0.00    -0.326 N 
ATOM      2  C   UNL     1       3.698  -1.909   0.070  0.00  0.00    +0.201 C 
ATOM      3  N   UNL     1       2.571  -2.553  -0.042  0.00  0.00    -0.268 NA
ATOM      4  N   UNL     1       4.892  -2.597   0.028  0.00  0.00    -0.295 N 
ATOM      5  C   UNL     1       4.894  -3.970  -0.135  0.00  0.00    +0.230 C 
ATOM      6  N   UNL     1       5.980  -4.690  -0.180  0.00  0.00    -0.236 NA
ATOM      7  C   UNL     1       5.545  -6.087  -0.361  0.00  0.00    +0.208 C 
ATOM      8  C   UNL     1       4.034  -5.979  -0.404  0.00  0.00    +0.274 C 
ATOM      9  O   UNL     1       3.150  -6.981  -0.555  0.00  0.00    -0.268 OA
ATOM     10  N   UNL     1       3.771  -4.710  -0.258  0.00  0.00    -0.176 NA
ATOM     11  H   UNL     1       2.858  -0.069   0.351  0.00  0.00    +0.169 HD
ATOM     12  H   UNL     1       1.735  -2.063  -0.085  0.00  0.00    +0.190 HD
ATOM     13  H   UNL     1       5.731  -2.117   0.111  0.00  0.00    +0.172 HD
ENDROOT
BRANCH   1  17
ATOM     14  C   UNL     1       7.290   1.563   0.209  0.00  0.00    +0.000 A 
ATOM     15  C   UNL     1       7.097   0.518  -0.677  0.00  0.00    +0.002 A 
ATOM     16  C   UNL     1       5.907  -0.182  -0.671  0.00  0.00    +0.026 A 
ATOM     17  C   UNL     1       4.903   0.164   0.224  0.00  0.00    +0.042 A 
ATOM     18  C   UNL     1       5.101   1.214   1.112  0.00  0.00    +0.026 A 
ATOM     19  C   UNL     1       6.293   1.910   1.102  0.00  0.00    +0.002 A 
ENDBRANCH   1  17
BRANCH   7  20
ATOM     20  C   UNL     1       5.995  -6.949   0.820  0.00  0.00    +0.132 C 
BRANCH  20  21
ATOM     21  C   UNL     1       7.499  -7.045   0.829  0.00  0.00    +0.220 C 
ATOM     22  O   UNL     1       8.147  -6.479  -0.025  0.00  0.00    -0.275 OA
ATOM     23  N   UNL     1       8.123  -7.759   1.786  0.00  0.00    -0.284 N 
ATOM     24  H   UNL     1       7.610  -8.161   2.504  0.00  0.00    +0.155 HD
BRANCH  23  25
ATOM     25  C   UNL     1       9.513  -7.922   1.744  0.00  0.00    +0.053 A 
ATOM     26  C   UNL     1      10.316  -6.914   1.227  0.00  0.00    +0.025 A 
ATOM     27  C   UNL     1      11.687  -7.076   1.187  0.00  0.00    +0.003 A 
ATOM     28  C   UNL     1      12.261  -8.242   1.659  0.00  0.00    +0.021 A 
ATOM     29  C   UNL     1      11.465  -9.249   2.175  0.00  0.00    +0.061 A 
ATOM     30  C   UNL     1      10.092  -9.090   2.224  0.00  0.00    +0.080 A 
ATOM     31 CL   UNL     1       9.093 -10.351   2.877  0.00  0.00    -0.080 Cl
ATOM     32 CL   UNL     1      12.191 -10.711   2.767  0.00  0.00    -0.082 Cl
ENDBRANCH  23  25
ENDBRANCH  20  21
ENDBRANCH   7  20
TORSDOF 4
