REMARK  Name = ZINC20179991
REMARK  6 active torsions:
REMARK  status: ('A' for Active; 'I' for Inactive)
REMARK    1  A    between atoms: C_1  and  C_2
REMARK    2  A    between atoms: C_6  and  C_8
REMARK    3  A    between atoms: N_12  and  C_36
REMARK    4  A    between atoms: C_15  and  C_20
REMARK    5  A    between atoms: N_25  and  C_28
REMARK    6  A    between atoms: C_33  and  C_34
REMARK                            x       y       z     vdW  Elec       q    Type
REMARK                         _______ _______ _______ _____ _____    ______ ____
ROOT
ATOM      1  C   UNL     1       0.165   2.278   5.190  0.00  0.00    +0.028 C 
ATOM      2  C   UNL     1      -0.577   2.867   6.158  0.00  0.00    +0.075 C 
ATOM      3  C   UNL     1      -0.023   3.161   7.498  0.00  0.00    +0.257 C 
ATOM      4  O   UNL     1       0.880   2.477   7.941  0.00  0.00    -0.269 OA
ATOM      5  N   UNL     1      -0.507   4.171   8.227  0.00  0.00    -0.269 N 
ATOM      6  C   UNL     1      -1.465   5.096   7.829  0.00  0.00    +0.051 A 
ATOM      7  C   UNL     1      -1.543   6.302   8.514  0.00  0.00    +0.037 A 
ATOM      8  C   UNL     1      -2.487   7.261   8.148  0.00  0.00    +0.039 A 
ATOM      9  C   UNL     1      -3.364   7.015   7.087  0.00  0.00    +0.014 A 
ATOM     10  C   UNL     1      -3.290   5.821   6.406  0.00  0.00    +0.017 A 
ATOM     11  C   UNL     1      -2.350   4.866   6.770  0.00  0.00    +0.034 A 
ATOM     12  S   UNL     1      -2.266   3.339   5.890  0.00  0.00    -0.082 S 
ATOM     13  C   UNL     1       0.026   4.318   9.583  0.00  0.00    +0.138 C 
ENDROOT
BRANCH   8  14
ATOM     14  C   UNL     1      -2.562   8.538   8.883  0.00  0.00    +0.247 C 
ATOM     15  O   UNL     1      -1.546   9.158   9.129  0.00  0.00    -0.270 OA
ATOM     16  N   UNL     1      -3.757   9.017   9.282  0.00  0.00    -0.295 N 
ATOM     17  C   UNL     1      -5.007   8.344   8.897  0.00  0.00    +0.127 C 
ATOM     18  C   UNL     1      -5.840   8.110  10.167  0.00  0.00    +0.124 C 
ATOM     19  N   UNL     1      -6.014   9.386  10.874  0.00  0.00    -0.327 N 
ATOM     20  C   UNL     1      -4.725   9.925  11.327  0.00  0.00    +0.124 C 
ATOM     21  C   UNL     1      -3.846  10.229  10.110  0.00  0.00    +0.127 C 
BRANCH  19  22
ATOM     22  C   UNL     1      -6.903   9.249  11.943  0.00  0.00    +0.034 A 
ATOM     23  C   UNL     1      -6.583   8.421  13.012  0.00  0.00    +0.043 A 
ATOM     24  C   UNL     1      -7.463   8.291  14.069  0.00  0.00    +0.043 A 
ATOM     25  C   UNL     1      -8.666   8.977  14.059  0.00  0.00    +0.020 A 
ATOM     26  C   UNL     1      -8.988   9.797  12.994  0.00  0.00    +0.006 A 
ATOM     27  C   UNL     1      -8.111   9.935  11.936  0.00  0.00    -0.029 A 
ATOM     28  C   UNL     1      -8.464  10.829  10.775  0.00  0.00    +0.045 C 
ATOM     29 CL   UNL     1      -7.063   7.262  15.409  0.00  0.00    -0.083 Cl
ENDBRANCH  19  22
ENDBRANCH   8  14
BRANCH   1  35
ATOM     30  C   UNL     1      -3.808   0.498   2.759  0.00  0.00    +0.044 C 
ATOM     31  C   UNL     1      -2.383   0.990   2.758  0.00  0.00    -0.050 A 
ATOM     32  C   UNL     1      -1.668   1.032   1.574  0.00  0.00    +0.003 A 
ATOM     33  C   UNL     1      -0.361   1.488   1.562  0.00  0.00    +0.001 A 
ATOM     34  C   UNL     1       0.242   1.893   2.733  0.00  0.00    +0.008 A 
ATOM     35  C   UNL     1      -0.472   1.848   3.935  0.00  0.00    -0.024 A 
ATOM     36  C   UNL     1      -1.794   1.391   3.938  0.00  0.00    +0.011 A 
ENDBRANCH   1  35
TORSDOF 3
