REMARK  Name = ZINC09933355
REMARK  5 active torsions:
REMARK  status: ('A' for Active; 'I' for Inactive)
REMARK    1  A    between atoms: C_3  and  C_31
REMARK    2  A    between atoms: C_5  and  N_7
REMARK    3  A    between atoms: C_11  and  C_12
REMARK    4  A    between atoms: C_15  and  C_17
REMARK    5  A    between atoms: C_19  and  C_24
REMARK                            x       y       z     vdW  Elec       q    Type
REMARK                         _______ _______ _______ _____ _____    ______ ____
ROOT
ATOM      1  N   UNL     1       0.257   1.399   0.300  0.00  0.00    -0.217 N 
ATOM      2  C   UNL     1       1.317   2.186   0.025  0.00  0.00    +0.262 C 
ATOM      3  O   UNL     1       2.322   1.726  -0.482  0.00  0.00    -0.269 OA
ATOM      4  C   UNL     1       1.225   3.618   0.357  0.00  0.00    +0.103 C 
ATOM      5  C   UNL     1       2.279   4.491   0.102  0.00  0.00    +0.064 C 
ATOM      6  C   UNL     1      -0.030   4.086   0.969  0.00  0.00    +0.255 C 
ATOM      7  O   UNL     1      -0.180   5.255   1.271  0.00  0.00    -0.270 OA
ATOM      8  N   UNL     1      -1.009   3.184   1.187  0.00  0.00    -0.263 N 
ATOM      9  C   UNL     1      -0.859   1.894   0.855  0.00  0.00    +0.150 C 
ATOM     10  S   UNL     1      -2.157   0.821   1.161  0.00  0.00    -0.018 S 
ATOM     11  H   UNL     1      -1.842   3.476   1.589  0.00  0.00    +0.157 HD
ENDROOT
BRANCH   1  16
ATOM     12  C   UNL     1       0.389  -2.258   0.719  0.00  0.00    +0.003 A 
ATOM     13  C   UNL     1       0.447  -2.678  -0.595  0.00  0.00    +0.015 A 
ATOM     14  C   UNL     1       0.442  -1.740  -1.629  0.00  0.00    +0.065 A 
ATOM     15  C   UNL     1       0.373  -0.379  -1.329  0.00  0.00    +0.039 A 
ATOM     16  C   UNL     1       0.321   0.033  -0.007  0.00  0.00    +0.044 A 
ATOM     17  C   UNL     1       0.326  -0.909   1.015  0.00  0.00    +0.024 A 
BRANCH  14  18
ATOM     18  C   UNL     1       0.504  -2.187  -3.036  0.00  0.00    +0.387 C 
ATOM     19  O   UNL     1       0.499  -1.368  -3.933  0.00  0.00    -0.241 OA
ATOM     20  O   UNL     1       0.565  -3.501  -3.323  0.00  0.00    -0.241 OA
ENDBRANCH  14  18
ENDBRANCH   1  16
BRANCH   5  21
ATOM     21  C   UNL     1       2.097   5.872   0.256  0.00  0.00    +0.129 A 
ATOM     22  C   UNL     1       3.013   6.759   0.810  0.00  0.00    +0.050 A 
ATOM     23  C   UNL     1       2.428   8.021   0.766  0.00  0.00    +0.050 A 
ATOM     24  C   UNL     1       1.182   7.870   0.192  0.00  0.00    +0.137 A 
ATOM     25  O   UNL     1       1.004   6.574  -0.113  0.00  0.00    -0.455 OA
BRANCH  24  26
ATOM     26  C   UNL     1       0.210   8.953  -0.053  0.00  0.00    +0.036 A 
ATOM     27  C   UNL     1      -0.377   9.095  -1.310  0.00  0.00    +0.028 A 
ATOM     28  C   UNL     1      -1.294  10.120  -1.532  0.00  0.00    +0.064 A 
ATOM     29  C   UNL     1      -1.619  11.000  -0.495  0.00  0.00    +0.016 A 
ATOM     30  C   UNL     1      -1.035  10.856   0.747  0.00  0.00    +0.021 A 
ATOM     31  C   UNL     1      -0.129   9.838   0.977  0.00  0.00    +0.052 A 
ATOM     32 CL   UNL     1       0.595   9.660   2.545  0.00  0.00    -0.083 Cl
BRANCH  28  33
ATOM     33  C   UNL     1      -1.921  10.277  -2.859  0.00  0.00    +0.387 C 
ATOM     34  O   UNL     1      -1.639   9.512  -3.759  0.00  0.00    -0.241 OA
ATOM     35  O   UNL     1      -2.808  11.270  -3.072  0.00  0.00    -0.241 OA
ENDBRANCH  28  33
ENDBRANCH  24  26
ENDBRANCH   5  21
TORSDOF 5
