REMARK  Name = ZINC13078377
REMARK  11 active torsions:
REMARK  status: ('A' for Active; 'I' for Inactive)
REMARK    1  A    between atoms: C_1  and  O_2
REMARK    2  A    between atoms: O_2  and  C_3
REMARK    3  A    between atoms: C_5  and  C_27
REMARK    4  A    between atoms: C_7  and  S_11
REMARK    5  A    between atoms: C_8  and  O_9
REMARK    6  A    between atoms: O_9  and  C_10
REMARK    7  A    between atoms: S_11  and  N_14
REMARK    8  A    between atoms: N_14  and  C_15
REMARK    9  A    between atoms: C_17  and  C_23
REMARK   10  A    between atoms: C_20  and  C_21
REMARK   11  A    between atoms: C_28  and  C_29
REMARK                            x       y       z     vdW  Elec       q    Type
REMARK                         _______ _______ _______ _____ _____    ______ ____
ROOT
ATOM      1  S   UNL     1      -1.785   1.594   0.422  0.00  0.00    +0.076 S 
ATOM      2  O   UNL     1      -2.709   0.528   0.596  0.00  0.00    -0.150 OA
ATOM      3  O   UNL     1      -1.851   2.791   1.185  0.00  0.00    -0.150 OA
ENDROOT
BRANCH   1   8
ATOM      4  C   UNL     1      -1.119   3.454  -3.096  0.00  0.00    +0.164 A 
ATOM      5  C   UNL     1      -2.016   2.836  -3.945  0.00  0.00    +0.057 A 
ATOM      6  C   UNL     1      -2.854   1.827  -3.457  0.00  0.00    -0.019 A 
ATOM      7  C   UNL     1      -2.778   1.449  -2.111  0.00  0.00    +0.040 A 
ATOM      8  C   UNL     1      -1.880   2.070  -1.272  0.00  0.00    +0.154 A 
ATOM      9  C   UNL     1      -1.052   3.075  -1.756  0.00  0.00    +0.188 A 
BRANCH   4  11
ATOM     10  C   UNL     1      -0.428   4.776  -4.949  0.00  0.00    +0.277 C 
ATOM     11  O   UNL     1      -0.303   4.435  -3.567  0.00  0.00    -0.491 OA
ENDBRANCH   4  11
BRANCH   9  12
ATOM     12  O   UNL     1      -0.172   3.688  -0.922  0.00  0.00    -0.490 OA
ATOM     13  C   UNL     1       1.171   3.203  -0.926  0.00  0.00    +0.277 C 
ENDBRANCH   9  12
BRANCH   6  14
ATOM     14  C   UNL     1      -3.812   1.166  -4.354  0.00  0.00    +0.015 C 
ATOM     15  C   UNL     1      -3.884   1.532  -5.653  0.00  0.00    +0.096 C 
BRANCH  15  16
ATOM     16  C   UNL     1      -4.808   0.895  -6.519  0.00  0.00    +0.380 C 
ATOM     17  O   UNL     1      -5.536   0.018  -6.093  0.00  0.00    -0.241 OA
ATOM     18  O   UNL     1      -4.880   1.261  -7.816  0.00  0.00    -0.241 OA
ENDBRANCH  15  16
ENDBRANCH   6  14
ENDBRANCH   1   8
BRANCH   1  19
ATOM     19  N   UNL     1      -0.276   0.957   0.668  0.00  0.00    -0.215 N 
ATOM     20  H   UNL     1       0.365   1.430   1.222  0.00  0.00    +0.174 HD
BRANCH  19  21
ATOM     21  C   UNL     1       0.069  -0.255   0.086  0.00  0.00    +0.063 A 
ATOM     22  C   UNL     1      -0.408  -0.585  -1.176  0.00  0.00    +0.037 A 
ATOM     23  C   UNL     1      -0.063  -1.790  -1.752  0.00  0.00    +0.057 A 
ATOM     24  C   UNL     1       0.759  -2.680  -1.079  0.00  0.00    +0.013 A 
ATOM     25  C   UNL     1       1.241  -2.372   0.173  0.00  0.00    +0.017 A 
ATOM     26  C   UNL     1       0.907  -1.152   0.768  0.00  0.00    +0.085 A 
BRANCH  23  27
ATOM     27  C   UNL     1      -0.584  -2.141  -3.122  0.00  0.00    +0.417 C 
ATOM     28  F   UNL     1       0.314  -1.685  -4.093  0.00  0.00    -0.166 F 
ATOM     29  F   UNL     1      -0.720  -3.530  -3.228  0.00  0.00    -0.166 F 
ATOM     30  F   UNL     1      -1.829  -1.534  -3.318  0.00  0.00    -0.166 F 
ENDBRANCH  23  27
BRANCH  26  31
ATOM     31  C   UNL     1       1.425  -0.812   2.104  0.00  0.00    +0.388 C 
ATOM     32  O   UNL     1       1.128   0.247   2.620  0.00  0.00    -0.241 OA
ATOM     33  O   UNL     1       2.229  -1.676   2.755  0.00  0.00    -0.241 OA
ENDBRANCH  26  31
ENDBRANCH  19  21
ENDBRANCH   1  19
TORSDOF 9
