REMARK  Name = ZINC38537088
REMARK  5 active torsions:
REMARK  status: ('A' for Active; 'I' for Inactive)
REMARK    1  A    between atoms: C_1  and  O_2
REMARK    2  A    between atoms: O_2  and  C_3
REMARK    3  A    between atoms: C_5  and  O_11
REMARK    4  A    between atoms: O_11  and  S_12
REMARK    5  A    between atoms: S_12  and  C_15
REMARK                            x       y       z     vdW  Elec       q    Type
REMARK                         _______ _______ _______ _____ _____    ______ ____
ROOT
ATOM      1  C   UNL     1       0.606  -0.607  -1.056  0.00  0.00    +0.142 A 
ATOM      2  C   UNL     1       1.173   0.161  -2.062  0.00  0.00    +0.097 A 
ATOM      3  C   UNL     1       1.788  -0.457  -3.139  0.00  0.00    +0.178 A 
ATOM      4  C   UNL     1       1.835  -1.843  -3.210  0.00  0.00    +0.087 A 
ATOM      5  C   UNL     1       1.270  -2.607  -2.206  0.00  0.00    +0.047 A 
ATOM      6  C   UNL     1       0.661  -1.992  -1.127  0.00  0.00    +0.084 A 
ATOM      7 CL   UNL     1      -0.042  -2.955   0.136  0.00  0.00    -0.080 Cl
ATOM      8 CL   UNL     1       2.605  -2.616  -4.560  0.00  0.00    -0.080 Cl
ENDROOT
BRANCH   1  10
ATOM      9  C   UNL     1      -0.017   1.425   0.010  0.00  0.00    +0.277 C 
ATOM     10  O   UNL     1       0.002  -0.004   0.002  0.00  0.00    -0.494 OA
ENDBRANCH   1  10
BRANCH   3  11
ATOM     11  O   UNL     1       2.344   0.294  -4.127  0.00  0.00    -0.345 OA
BRANCH  11  12
ATOM     12  S   UNL     1       3.806   0.643  -3.890  0.00  0.00    +0.118 S 
ATOM     13  O   UNL     1       4.108   1.623  -4.874  0.00  0.00    -0.137 OA
ATOM     14  O   UNL     1       3.885   0.958  -2.507  0.00  0.00    -0.137 OA
ATOM     15  C   UNL     1       4.713  -0.889  -4.236  0.00  0.00    +0.242 C 
ENDBRANCH  11  12
ENDBRANCH   3  11
TORSDOF 3
