REMARK  Name = ZINC20295751
REMARK  5 active torsions:
REMARK  status: ('A' for Active; 'I' for Inactive)
REMARK    1  A    between atoms: C_8  and  N_10
REMARK    2  A    between atoms: C_14  and  N_17
REMARK    3  A    between atoms: N_17  and  C_18
REMARK    4  A    between atoms: C_18  and  C_19
REMARK    5  A    between atoms: C_24  and  C_25
REMARK                            x       y       z     vdW  Elec       q    Type
REMARK                         _______ _______ _______ _____ _____    ______ ____
ROOT
ATOM      1  N   UNL     1      -2.184   4.024   1.511  0.00  0.00    +0.383 N 
ATOM      2  C   UNL     1      -2.036   2.590   1.790  0.00  0.00    -0.078 C 
ATOM      3  C   UNL     1      -1.034   1.978   0.809  0.00  0.00    -0.017 C 
ATOM      4  C   UNL     1      -1.535   2.190  -0.623  0.00  0.00    +0.015 C 
ATOM      5  C   UNL     1      -1.726   3.688  -0.872  0.00  0.00    +0.037 C 
ATOM      6  C   UNL     1      -2.708   4.250   0.158  0.00  0.00    -0.060 C 
ATOM      7  H   UNL     1      -1.185   4.480   1.563  0.00  0.00    -0.081 HD
ENDROOT
BRANCH   1  15
ATOM      8  C   UNL     1      -3.087   7.219   6.534  0.00  0.00    +0.000 A 
ATOM      9  C   UNL     1      -3.364   8.240   5.645  0.00  0.00    +0.000 A 
ATOM     10  C   UNL     1      -3.344   7.995   4.286  0.00  0.00    +0.004 A 
ATOM     11  C   UNL     1      -3.047   6.728   3.811  0.00  0.00    -0.046 A 
ATOM     12  C   UNL     1      -2.770   5.707   4.700  0.00  0.00    -0.046 A 
ATOM     13  C   UNL     1      -2.790   5.955   6.062  0.00  0.00    +0.004 A 
ATOM     14  C   UNL     1      -2.479   4.431   3.940  0.00  0.00    +0.020 C 
ATOM     15  C   UNL     1      -3.033   4.672   2.519  0.00  0.00    -0.060 C 
ATOM     16  C   UNL     1      -2.961   6.208   2.392  0.00  0.00    +0.020 C 
ENDBRANCH   1  15
BRANCH   5  17
ATOM     17  N   UNL     1      -2.260   3.896  -2.225  0.00  0.00    -0.311 NA
ATOM     18  H   UNL     1      -2.944   3.073  -2.479  0.00  0.00    +0.122 HD
BRANCH  17  19
ATOM     19  C   UNL     1      -1.178   3.934  -3.218  0.00  0.00    +0.120 C 
BRANCH  19  20
ATOM     20  C   UNL     1      -1.755   4.221  -4.580  0.00  0.00    +0.011 A 
ATOM     21  C   UNL     1      -1.669   5.391  -5.250  0.00  0.00    +0.110 A 
ATOM     22  N   UNL     1      -2.311   5.245  -6.428  0.00  0.00    -0.284 N 
ATOM     23  H   UNL     1      -2.362   6.086  -7.135  0.00  0.00    +0.188 HD
ATOM     24  N   UNL     1      -2.813   3.938  -6.492  0.00  0.00    -0.174 NA
ATOM     25  C   UNL     1      -2.476   3.316  -5.383  0.00  0.00    +0.097 A 
BRANCH  25  26
ATOM     26  C   UNL     1      -2.800   1.909  -5.037  0.00  0.00    +0.002 A 
ATOM     27  C   UNL     1      -1.833   1.091  -4.457  0.00  0.00    +0.011 A 
ATOM     28  C   UNL     1      -2.141  -0.214  -4.133  0.00  0.00    +0.020 A 
ATOM     29  C   UNL     1      -3.406  -0.715  -4.394  0.00  0.00    +0.041 A 
ATOM     30  C   UNL     1      -4.368   0.093  -4.975  0.00  0.00    +0.020 A 
ATOM     31  C   UNL     1      -4.071   1.401  -5.297  0.00  0.00    +0.011 A 
ATOM     32 CL   UNL     1      -3.786  -2.360  -3.989  0.00  0.00    -0.084 Cl
ENDBRANCH  25  26
ENDBRANCH  19  20
ENDBRANCH  17  19
ENDBRANCH   5  17
TORSDOF 5
