REMARK  Name = ZINC60350952
REMARK  5 active torsions:
REMARK  status: ('A' for Active; 'I' for Inactive)
REMARK    1  A    between atoms: C_1  and  C_2
REMARK    2  A    between atoms: C_4  and  C_14
REMARK    3  A    between atoms: N_6  and  C_7
REMARK    4  A    between atoms: N_16  and  C_17
REMARK    5  A    between atoms: N_21  and  C_22
REMARK                            x       y       z     vdW  Elec       q    Type
REMARK                         _______ _______ _______ _____ _____    ______ ____
ROOT
ATOM      1  C   UNL     1       0.137  -3.233  -1.506  0.00  0.00    +0.288 C 
ATOM      2  O   UNL     1       0.375  -4.323  -1.022  0.00  0.00    -0.266 OA
ATOM      3  N   UNL     1      -0.064  -3.114  -2.833  0.00  0.00    -0.264 N 
ATOM      4  H   UNL     1      -0.254  -2.245  -3.219  0.00  0.00    +0.157 HD
ENDROOT
BRANCH   1   8
ATOM      5  C   UNL     1      -0.385   1.472   0.054  0.00  0.00    +0.088 C 
ATOM      6  C   UNL     1      -0.157  -0.018   0.021  0.00  0.00    +0.131 A 
ATOM      7  N   UNL     1      -0.183  -0.780  -1.042  0.00  0.00    -0.207 NA
ATOM      8  C   UNL     1       0.070  -2.039  -0.638  0.00  0.00    +0.237 A 
ATOM      9  N   UNL     1       0.246  -2.018   0.666  0.00  0.00    -0.140 NA
ATOM     10  N   UNL     1       0.118  -0.805   1.081  0.00  0.00    -0.215 N 
BRANCH  10  11
ATOM     11  C   UNL     1       0.240  -0.377   2.410  0.00  0.00    +0.086 A 
ATOM     12  C   UNL     1       1.025   0.727   2.716  0.00  0.00    +0.029 A 
ATOM     13  C   UNL     1       1.144   1.146   4.026  0.00  0.00    +0.002 A 
ATOM     14  C   UNL     1       0.482   0.469   5.034  0.00  0.00    +0.002 A 
ATOM     15  C   UNL     1      -0.301  -0.631   4.734  0.00  0.00    +0.022 A 
ATOM     16  C   UNL     1      -0.428  -1.052   3.423  0.00  0.00    +0.066 A 
ATOM     17 CL   UNL     1      -1.417  -2.428   3.045  0.00  0.00    -0.081 Cl
ENDBRANCH  10  11
ENDBRANCH   1   8
BRANCH   3  18
ATOM     18  C   UNL     1      -0.000  -4.241  -3.651  0.00  0.00    +0.124 A 
ATOM     19  C   UNL     1       0.249  -5.517  -3.247  0.00  0.00    +0.065 A 
ATOM     20  C   UNL     1       0.224  -6.337  -4.378  0.00  0.00    +0.136 A 
ATOM     21  N   UNL     1      -0.030  -5.593  -5.423  0.00  0.00    -0.177 NA
ATOM     22  N   UNL     1      -0.182  -4.268  -4.997  0.00  0.00    -0.243 N 
BRANCH  22  23
ATOM     23  C   UNL     1      -0.479  -3.115  -5.851  0.00  0.00    +0.139 C 
ATOM     24  C   UNL     1       0.635  -2.951  -6.882  0.00  0.00    +0.032 C 
ATOM     25  C   UNL     1       0.203  -1.885  -7.896  0.00  0.00    +0.007 C 
ATOM     26  C   UNL     1      -0.933  -2.457  -8.741  0.00  0.00    +0.035 C 
ATOM     27  C   UNL     1      -2.014  -3.026  -7.859  0.00  0.00    -0.042 A 
ATOM     28  C   UNL     1      -1.804  -3.332  -6.534  0.00  0.00    -0.020 A 
ATOM     29  C   UNL     1      -2.842  -3.860  -5.778  0.00  0.00    +0.006 A 
ATOM     30  C   UNL     1      -4.082  -4.078  -6.345  0.00  0.00    +0.000 A 
ATOM     31  C   UNL     1      -4.293  -3.768  -7.675  0.00  0.00    +0.000 A 
ATOM     32  C   UNL     1      -3.263  -3.243  -8.426  0.00  0.00    +0.004 A 
ENDBRANCH  22  23
ENDBRANCH   3  18
TORSDOF 4
