REMARK  Name = ZINC36526547
REMARK  18 active torsions:
REMARK  status: ('A' for Active; 'I' for Inactive)
REMARK    1  A    between atoms: C_1  and  C_2
REMARK    2  A    between atoms: C_2  and  C_3
REMARK    3  A    between atoms: C_3  and  C_4
REMARK    4  A    between atoms: C_4  and  C_5
REMARK    5  A    between atoms: C_5  and  C_6
REMARK    6  A    between atoms: C_7  and  C_8
REMARK    7  A    between atoms: N_10  and  C_11
REMARK    8  A    between atoms: N_10  and  C_12
REMARK    9  A    between atoms: C_12  and  C_14
REMARK   10  A    between atoms: C_12  and  C_21
REMARK   11  A    between atoms: N_23  and  C_24
REMARK   12  A    between atoms: C_24  and  C_25
REMARK   13  A    between atoms: C_24  and  C_26
REMARK   14  A    between atoms: C_24  and  C_27
REMARK   15  A    between atoms: C_27  and  C_28
REMARK   16  A    between atoms: C_28  and  C_29
REMARK   17  A    between atoms: C_28  and  C_30
REMARK   18  A    between atoms: C_28  and  C_31
REMARK                            x       y       z     vdW  Elec       q    Type
REMARK                         _______ _______ _______ _____ _____    ______ ____
ROOT
ATOM      1  C   UNL     1       7.422  -4.057   2.683  0.00  0.00    +0.192 C 
ENDROOT
BRANCH   1   2
ATOM      2  C   UNL     1       8.376  -4.475   1.594  0.00  0.00    -0.018 A 
ATOM      3  C   UNL     1       8.906  -3.527   0.738  0.00  0.00    +0.007 A 
ATOM      4  C   UNL     1       9.781  -3.909  -0.261  0.00  0.00    +0.020 A 
ATOM      5  C   UNL     1      10.128  -5.241  -0.404  0.00  0.00    +0.041 A 
ATOM      6  C   UNL     1       9.598  -6.189   0.453  0.00  0.00    +0.020 A 
ATOM      7  C   UNL     1       8.727  -5.805   1.455  0.00  0.00    +0.007 A 
ATOM      8 CL   UNL     1      11.227  -5.723  -1.658  0.00  0.00    -0.084 Cl
ENDBRANCH   1   2
BRANCH   1  11
ATOM      9  C   UNL     1       5.023  -4.221   2.288  0.00  0.00    +0.240 C 
ATOM     10  O   UNL     1       4.998  -3.017   2.118  0.00  0.00    -0.271 OA
ATOM     11  N   UNL     1       6.187  -4.837   2.575  0.00  0.00    -0.286 N 
ATOM     12  C   UNL     1       6.217  -6.288   2.780  0.00  0.00    +0.133 C 
BRANCH   9  14
ATOM     13  C   UNL     1       2.653  -4.413   1.803  0.00  0.00    -0.022 C 
ATOM     14  C   UNL     1       3.783  -5.005   2.180  0.00  0.00    +0.063 C 
BRANCH  13  15
ATOM     15  C   UNL     1       2.701  -3.149   0.985  0.00  0.00    +0.027 C 
BRANCH  15  16
ATOM     16  C   UNL     1       1.686  -3.240  -0.156  0.00  0.00    +0.004 C 
BRANCH  16  17
ATOM     17  C   UNL     1       1.735  -1.956  -0.987  0.00  0.00    +0.000 C 
BRANCH  17  19
ATOM     18  C   UNL     1       0.769  -0.764  -2.958  0.00  0.00    +0.004 C 
ATOM     19  C   UNL     1       0.720  -2.048  -2.128  0.00  0.00    -0.003 C 
ENDBRANCH  17  19
ENDBRANCH  16  17
ENDBRANCH  15  16
ENDBRANCH  13  15
ENDBRANCH   9  14
ENDBRANCH   1  11
BRANCH   1  20
ATOM     20  C   UNL     1       8.055  -4.302   4.028  0.00  0.00    +0.238 C 
ATOM     21  O   UNL     1       7.527  -5.054   4.819  0.00  0.00    -0.273 OA
ATOM     22  N   UNL     1       9.209  -3.684   4.351  0.00  0.00    -0.308 N 
ATOM     23  H   UNL     1       9.631  -3.083   3.719  0.00  0.00    +0.149 HD
BRANCH  22  24
ATOM     24  C   UNL     1       9.825  -3.923   5.659  0.00  0.00    +0.030 C 
ATOM     25  C   UNL     1       8.936  -3.334   6.756  0.00  0.00    +0.031 C 
ATOM     26  C   UNL     1       9.982  -5.428   5.883  0.00  0.00    +0.031 C 
BRANCH  24  27
ATOM     27  C   UNL     1      11.201  -3.254   5.704  0.00  0.00    +0.031 C 
BRANCH  27  28
ATOM     28  C   UNL     1      11.916  -3.470   4.369  0.00  0.00    -0.036 C 
ATOM     29  C   UNL     1      11.423  -2.436   3.354  0.00  0.00    +0.010 C 
ATOM     30  C   UNL     1      13.425  -3.310   4.567  0.00  0.00    +0.010 C 
ATOM     31  C   UNL     1      11.616  -4.877   3.850  0.00  0.00    +0.010 C 
ENDBRANCH  27  28
ENDBRANCH  24  27
ENDBRANCH  22  24
ENDBRANCH   1  20
TORSDOF 11
