REMARK  Name = ZINC08795609
REMARK  5 active torsions:
REMARK  status: ('A' for Active; 'I' for Inactive)
REMARK    1  A    between atoms: C_3  and  C_10
REMARK    2  A    between atoms: C_5  and  N_7
REMARK    3  A    between atoms: N_19  and  C_20
REMARK    4  A    between atoms: C_20  and  N_22
REMARK    5  A    between atoms: N_22  and  C_23
REMARK                            x       y       z     vdW  Elec       q    Type
REMARK                         _______ _______ _______ _____ _____    ______ ____
ROOT
ATOM      1  C   UNL     1       3.685   1.724   0.037  0.00  0.00    +0.152 C 
ATOM      2  C   UNL     1       4.530   0.902  -0.903  0.00  0.00    +0.044 A 
ATOM      3  C   UNL     1       5.763   1.181  -1.352  0.00  0.00    +0.025 A 
ATOM      4  C   UNL     1       6.150   0.122  -2.199  0.00  0.00    +0.019 A 
ATOM      5  C   UNL     1       5.131  -0.762  -2.234  0.00  0.00    +0.086 A 
ATOM      6  N   UNL     1       4.130  -0.290  -1.443  0.00  0.00    -0.347 N 
ATOM      7  C   UNL     1       2.830  -0.923  -1.195  0.00  0.00    +0.140 C 
ATOM      8  C   UNL     1       2.212  -0.327   0.074  0.00  0.00    +0.129 C 
ATOM      9  N   UNL     1       2.332   1.138   0.031  0.00  0.00    -0.298 N 
ENDROOT
BRANCH   1  12
ATOM     10  C   UNL     1       5.003   0.390   3.314  0.00  0.00    +0.003 A 
ATOM     11  C   UNL     1       4.471   0.444   2.039  0.00  0.00    +0.006 A 
ATOM     12  C   UNL     1       4.265   1.665   1.427  0.00  0.00    -0.019 A 
ATOM     13  C   UNL     1       4.596   2.834   2.087  0.00  0.00    +0.038 A 
ATOM     14  C   UNL     1       5.123   2.781   3.364  0.00  0.00    +0.127 A 
ATOM     15  C   UNL     1       5.329   1.558   3.976  0.00  0.00    +0.033 A 
BRANCH  14  16
ATOM     16  N   UNL     1       5.473   4.032   4.072  0.00  0.00    +0.056 N 
ATOM     17  O   UNL     1       5.943   3.985   5.196  0.00  0.00    -0.126 OA
ATOM     18  O   UNL     1       5.292   5.109   3.533  0.00  0.00    -0.126 OA
ENDBRANCH  14  16
ENDBRANCH   1  12
BRANCH   9  19
ATOM     19  C   UNL     1       1.236   1.922  -0.018  0.00  0.00    +0.138 C 
ATOM     20  S   UNL     1       1.404   3.616  -0.204  0.00  0.00    -0.018 S 
BRANCH  19  21
ATOM     21  N   UNL     1       0.010   1.373   0.080  0.00  0.00    -0.297 N 
ATOM     22  H   UNL     1      -0.569   1.338  -0.697  0.00  0.00    +0.154 HD
BRANCH  21  23
ATOM     23  C   UNL     1      -0.431   0.860   1.305  0.00  0.00    +0.033 A 
ATOM     24  C   UNL     1       0.342   1.024   2.447  0.00  0.00    +0.024 A 
ATOM     25  C   UNL     1      -0.098   0.520   3.655  0.00  0.00    +0.016 A 
ATOM     26  C   UNL     1      -1.303  -0.157   3.727  0.00  0.00    +0.013 A 
ATOM     27  C   UNL     1      -2.072  -0.327   2.590  0.00  0.00    +0.016 A 
ATOM     28  C   UNL     1      -1.640   0.180   1.380  0.00  0.00    +0.024 A 
ATOM     29  I   UNL     1      -1.963  -0.926   5.560  0.00  0.00    -0.044 I 
ENDBRANCH  21  23
ENDBRANCH  19  21
ENDBRANCH   9  19
TORSDOF 5
