REMARK  Name = ZINC08893414
REMARK  8 active torsions:
REMARK  status: ('A' for Active; 'I' for Inactive)
REMARK    1  A    between atoms: C_1  and  C_2
REMARK    2  A    between atoms: C_2  and  O_3
REMARK    3  A    between atoms: O_3  and  C_4
REMARK    4  A    between atoms: C_7  and  C_10
REMARK    5  A    between atoms: N_17  and  C_20
REMARK    6  A    between atoms: C_20  and  C_22
REMARK    7  A    between atoms: C_20  and  C_23
REMARK    8  A    between atoms: N_25  and  C_26
REMARK                            x       y       z     vdW  Elec       q    Type
REMARK                         _______ _______ _______ _____ _____    ______ ____
ROOT
ATOM      1  C   UNL     1       3.612   1.174   0.202  0.00  0.00    +0.004 A 
ATOM      2  C   UNL     1       4.544   0.195   0.281  0.00  0.00    +0.056 A 
ATOM      3  S   UNL     1       3.571  -1.296   0.372  0.00  0.00    -0.076 S 
ATOM      4  C   UNL     1       1.951  -0.576   0.303  0.00  0.00    +0.116 A 
ATOM      5  C   UNL     1       2.202   0.802   0.211  0.00  0.00    +0.080 A 
ATOM      6  C   UNL     1       1.044   1.640   0.139  0.00  0.00    +0.263 A 
ATOM      7  O   UNL     1       1.160   2.851   0.057  0.00  0.00    -0.267 OA
ATOM      8  N   UNL     1      -0.176   1.071   0.164  0.00  0.00    -0.287 N 
ATOM      9  C   UNL     1      -0.324  -0.275   0.256  0.00  0.00    +0.204 A 
ATOM     10  N   UNL     1       0.714  -1.066   0.323  0.00  0.00    -0.230 NA
ENDROOT
BRANCH   1  14
ATOM     11  C   UNL     1       4.775   5.256  -0.068  0.00  0.00    +0.121 A 
ATOM     12  C   UNL     1       5.318   4.445   0.919  0.00  0.00    +0.046 A 
ATOM     13  C   UNL     1       4.943   3.121   1.009  0.00  0.00    +0.012 A 
ATOM     14  C   UNL     1       4.017   2.597   0.108  0.00  0.00    -0.016 A 
ATOM     15  C   UNL     1       3.477   3.413  -0.885  0.00  0.00    +0.012 A 
ATOM     16  C   UNL     1       3.853   4.738  -0.968  0.00  0.00    +0.046 A 
BRANCH  11  17
ATOM     17  O   UNL     1       5.147   6.561  -0.155  0.00  0.00    -0.492 OA
BRANCH  17  19
ATOM     18  C   UNL     1       5.086   8.770  -1.133  0.00  0.00    +0.048 C 
ATOM     19  C   UNL     1       4.549   7.338  -1.194  0.00  0.00    +0.225 C 
ENDBRANCH  17  19
ENDBRANCH  11  17
ENDBRANCH   1  14
BRANCH   8  20
ATOM     20  C   UNL     1      -1.367   1.921   0.085  0.00  0.00    +0.174 C 
ATOM     21  C   UNL     1      -2.222   1.718   1.338  0.00  0.00    +0.041 C 
BRANCH  20  22
ATOM     22  C   UNL     1      -2.168   1.550  -1.136  0.00  0.00    +0.240 C 
ATOM     23  O   UNL     1      -1.782   0.663  -1.868  0.00  0.00    -0.273 OA
ATOM     24  N   UNL     1      -3.313   2.204  -1.414  0.00  0.00    -0.284 N 
ATOM     25  H   UNL     1      -3.662   2.859  -0.790  0.00  0.00    +0.155 HD
BRANCH  24  26
ATOM     26  C   UNL     1      -4.000   1.937  -2.604  0.00  0.00    +0.034 A 
ATOM     27  C   UNL     1      -3.296   1.607  -3.755  0.00  0.00    +0.024 A 
ATOM     28  C   UNL     1      -3.976   1.339  -4.926  0.00  0.00    +0.017 A 
ATOM     29  C   UNL     1      -5.358   1.409  -4.957  0.00  0.00    +0.018 A 
ATOM     30  C   UNL     1      -6.061   1.743  -3.813  0.00  0.00    +0.017 A 
ATOM     31  C   UNL     1      -5.386   2.006  -2.638  0.00  0.00    +0.024 A 
ATOM     32 BR   UNL     1      -6.286   1.048  -6.564  0.00  0.00    -0.050 Br
ENDBRANCH  24  26
ENDBRANCH  20  22
ENDBRANCH   8  20
TORSDOF 6
