REMARK  Name = ZINC58161941
REMARK  5 active torsions:
REMARK  status: ('A' for Active; 'I' for Inactive)
REMARK    1  A    between atoms: C_1  and  C_2
REMARK    2  A    between atoms: C_3  and  C_19
REMARK    3  A    between atoms: C_5  and  C_7
REMARK    4  A    between atoms: C_7  and  S_8
REMARK    5  A    between atoms: S_8  and  C_9
REMARK                            x       y       z     vdW  Elec       q    Type
REMARK                         _______ _______ _______ _____ _____    ______ ____
ROOT
ATOM      1  C   UNL     1      -1.458  -5.167   2.997  0.00  0.00    +0.116 A 
ATOM      2  C   UNL     1      -2.596  -5.837   3.482  0.00  0.00    +0.146 A 
ATOM      3  N   UNL     1      -2.473  -6.884   4.260  0.00  0.00    -0.251 NA
ATOM      4  C   UNL     1      -1.254  -7.324   4.599  0.00  0.00    +0.089 A 
ATOM      5  C   UNL     1      -1.096  -8.444   5.432  0.00  0.00    +0.030 A 
ATOM      6  C   UNL     1       0.155  -8.870   5.761  0.00  0.00    +0.002 A 
ATOM      7  C   UNL     1       1.285  -8.210   5.284  0.00  0.00    +0.002 A 
ATOM      8  C   UNL     1       1.170  -7.120   4.476  0.00  0.00    +0.030 A 
ATOM      9  C   UNL     1      -0.105  -6.652   4.114  0.00  0.00    +0.090 A 
ATOM     10  N   UNL     1      -0.247  -5.587   3.316  0.00  0.00    -0.237 NA
ENDROOT
BRANCH   1  11
ATOM     11  S   UNL     1      -1.649  -3.761   1.952  0.00  0.00    -0.095 S 
BRANCH  11  12
ATOM     12  C   UNL     1       0.053  -3.253   1.584  0.00  0.00    +0.171 C 
BRANCH  12  17
ATOM     13  C   UNL     1      -0.018   1.503   0.010  0.00  0.00    +0.069 C 
ATOM     14  C   UNL     1       0.002  -0.004   0.002  0.00  0.00    +0.079 A 
ATOM     15  C   UNL     1       0.008  -0.791  -1.087  0.00  0.00    +0.125 A 
ATOM     16  O   UNL     1       0.027  -2.067  -0.654  0.00  0.00    -0.444 OA
ATOM     17  C   UNL     1       0.033  -2.044   0.685  0.00  0.00    +0.206 A 
ATOM     18  N   UNL     1       0.024  -0.803   1.083  0.00  0.00    -0.218 NA
ATOM     19  C   UNL     1      -0.005  -0.333  -2.522  0.00  0.00    +0.088 C 
ENDBRANCH  12  17
ENDBRANCH  11  12
ENDBRANCH   1  11
TORSDOF 3
