REMARK  Name = ZINC16701495
REMARK  8 active torsions:
REMARK  status: ('A' for Active; 'I' for Inactive)
REMARK    1  A    between atoms: C_1  and  C_2
REMARK    2  A    between atoms: C_4  and  N_21
REMARK    3  A    between atoms: C_7  and  S_8
REMARK    4  A    between atoms: S_8  and  N_11
REMARK    5  A    between atoms: N_11  and  C_12
REMARK    6  A    between atoms: C_15  and  C_18
REMARK    7  A    between atoms: C_18  and  C_20
REMARK    8  A    between atoms: C_24  and  C_30
REMARK                            x       y       z     vdW  Elec       q    Type
REMARK                         _______ _______ _______ _____ _____    ______ ____
ROOT
ATOM      1  C   UNL     1       3.743  -0.794   0.067  0.00  0.00    +0.046 C 
ATOM      2  C   UNL     1       2.464   0.002   0.109  0.00  0.00    -0.022 A 
ATOM      3  C   UNL     1       2.512   1.381   0.168  0.00  0.00    +0.030 A 
ATOM      4  C   UNL     1       1.333   2.114   0.207  0.00  0.00    +0.060 A 
ATOM      5  C   UNL     1       0.109   1.456   0.186  0.00  0.00    +0.027 A 
ATOM      6  C   UNL     1       0.069   0.077   0.127  0.00  0.00    +0.031 A 
ATOM      7  C   UNL     1       1.245  -0.649   0.088  0.00  0.00    +0.111 A 
ENDROOT
BRANCH   4   8
ATOM      8  N   UNL     1       1.377   3.511   0.267  0.00  0.00    -0.144 N 
ATOM      9  C   UNL     1       2.384   4.287  -0.160  0.00  0.00    +0.243 C 
ATOM     10  O   UNL     1       3.365   3.800  -0.682  0.00  0.00    -0.273 OA
ATOM     11  C   UNL     1       2.268   5.771   0.019  0.00  0.00    +0.097 C 
ATOM     12  C   UNL     1       0.776   6.130   0.251  0.00  0.00    +0.201 C 
ATOM     13  S   UNL     1       0.186   4.509   0.890  0.00  0.00    +0.053 S 
ATOM     14  O   UNL     1      -1.019   4.118   0.245  0.00  0.00    -0.155 OA
ATOM     15  O   UNL     1       0.325   4.438   2.302  0.00  0.00    -0.155 OA
ATOM     16  C   UNL     1       3.096   6.205   1.230  0.00  0.00    +0.019 C 
ENDBRANCH   4   8
BRANCH   7  17
ATOM     17  S   UNL     1       1.189  -2.409   0.013  0.00  0.00    +0.073 S 
ATOM     18  O   UNL     1      -0.184  -2.774   0.054  0.00  0.00    -0.150 OA
ATOM     19  O   UNL     1       2.049  -2.797  -1.049  0.00  0.00    -0.150 OA
BRANCH  17  20
ATOM     20  N   UNL     1       1.872  -2.981   1.409  0.00  0.00    -0.216 N 
ATOM     21  H   UNL     1       2.712  -3.465   1.375  0.00  0.00    +0.174 HD
BRANCH  20  22
ATOM     22  C   UNL     1       1.243  -2.767   2.628  0.00  0.00    +0.048 A 
ATOM     23  C   UNL     1       0.751  -1.503   2.944  0.00  0.00    +0.025 A 
ATOM     24  C   UNL     1       0.127  -1.290   4.140  0.00  0.00    +0.013 A 
ATOM     25  C   UNL     1      -0.009  -2.343   5.054  0.00  0.00    +0.017 A 
ATOM     26  C   UNL     1       0.492  -3.612   4.734  0.00  0.00    +0.013 A 
ATOM     27  C   UNL     1       1.110  -3.817   3.534  0.00  0.00    +0.025 A 
BRANCH  25  28
ATOM     28  C   UNL     1      -0.674  -2.118   6.343  0.00  0.00    +0.160 C 
ATOM     29  O   UNL     1      -0.704  -3.001   7.173  0.00  0.00    -0.292 OA
ATOM     30  C   UNL     1      -1.321  -0.788   6.634  0.00  0.00    +0.091 C 
ENDBRANCH  25  28
ENDBRANCH  20  22
ENDBRANCH  17  20
ENDBRANCH   7  17
TORSDOF 5
