REMARK  Name = ZINC37455849
REMARK  5 active torsions:
REMARK  status: ('A' for Active; 'I' for Inactive)
REMARK    1  A    between atoms: C_1  and  C_2
REMARK    2  A    between atoms: C_2  and  C_4
REMARK    3  A    between atoms: C_2  and  N_19
REMARK    4  A    between atoms: N_6  and  C_7
REMARK    5  A    between atoms: C_8  and  C_16
REMARK                            x       y       z     vdW  Elec       q    Type
REMARK                         _______ _______ _______ _____ _____    ______ ____
ROOT
ATOM      1  C   UNL     1       0.707  -0.490  -1.238  0.00  0.00    +0.238 C 
ATOM      2  O   UNL     1       1.704  -1.174  -1.140  0.00  0.00    -0.273 OA
ATOM      3  N   UNL     1       0.231  -0.164  -2.456  0.00  0.00    -0.278 N 
ATOM      4  H   UNL     1      -0.566   0.383  -2.534  0.00  0.00    +0.155 HD
ENDROOT
BRANCH   3   5
ATOM      5  C   UNL     1       0.879  -0.611  -3.595  0.00  0.00    +0.086 A 
ATOM      6  C   UNL     1       0.539  -0.372  -4.921  0.00  0.00    +0.095 A 
ATOM      7  C   UNL     1       1.392  -0.961  -5.940  0.00  0.00    -0.021 A 
ATOM      8  C   UNL     1       2.424  -1.678  -5.449  0.00  0.00    -0.004 A 
ATOM      9  S   UNL     1       2.261  -1.560  -3.692  0.00  0.00    -0.077 S 
ATOM     10  C   UNL     1       3.471  -2.404  -6.238  0.00  0.00    +0.043 C 
ATOM     11  C   UNL     1       2.982  -2.527  -7.689  0.00  0.00    +0.005 C 
ATOM     12  C   UNL     1       2.479  -1.160  -8.160  0.00  0.00    +0.005 C 
ATOM     13  C   UNL     1       1.177  -0.807  -7.438  0.00  0.00    +0.037 C 
BRANCH   6  14
ATOM     14  C   UNL     1      -0.591   0.412  -5.265  0.00  0.00    +0.389 C 
ATOM     15  O   UNL     1      -1.292   0.896  -4.384  0.00  0.00    -0.240 OA
ATOM     16  O   UNL     1      -0.867   0.606  -6.442  0.00  0.00    -0.240 OA
ENDBRANCH   6  14
ENDBRANCH   3   5
BRANCH   1  18
ATOM     17  C   UNL     1      -0.019   1.526   0.010  0.00  0.00    +0.038 C 
ATOM     18  C   UNL     1       0.002  -0.004   0.002  0.00  0.00    +0.158 C 
BRANCH  18  19
ATOM     19  N   UNL     1       0.711  -0.489   1.189  0.00  0.00    -0.289 N 
ATOM     20  C   UNL     1       0.051  -0.633   2.355  0.00  0.00    +0.298 C 
ATOM     21  O   UNL     1      -1.132  -0.361   2.423  0.00  0.00    -0.253 OA
ATOM     22  N   UNL     1       0.703  -1.080   3.447  0.00  0.00    -0.313 N 
ATOM     23  H   UNL     1       1.654  -0.707   1.135  0.00  0.00    +0.151 HD
ATOM     24  H   UNL     1       1.647  -1.298   3.394  0.00  0.00    +0.146 HD
ATOM     25  H   UNL     1       0.229  -1.184   4.287  0.00  0.00    +0.146 HD
ENDBRANCH  18  19
ENDBRANCH   1  18
TORSDOF 4
