REMARK  Name = ZINC34759735
REMARK  13 active torsions:
REMARK  status: ('A' for Active; 'I' for Inactive)
REMARK    1  A    between atoms: C_1  and  C_2
REMARK    2  A    between atoms: C_2  and  N_3
REMARK    3  A    between atoms: N_3  and  C_4
REMARK    4  A    between atoms: C_4  and  C_5
REMARK    5  A    between atoms: C_6  and  C_8
REMARK    6  A    between atoms: C_8  and  S_9
REMARK    7  A    between atoms: S_9  and  C_10
REMARK    8  A    between atoms: C_14  and  C_20
REMARK    9  A    between atoms: C_15  and  C_19
REMARK   10  A    between atoms: N_24  and  C_27
REMARK   11  A    between atoms: C_27  and  C_28
REMARK   12  A    between atoms: C_30  and  C_35
REMARK   13  A    between atoms: C_33  and  C_34
REMARK                            x       y       z     vdW  Elec       q    Type
REMARK                         _______ _______ _______ _____ _____    ______ ____
ROOT
ATOM      1  C   UNL     1      -5.684  -1.702   2.781  0.00  0.00    +0.191 A 
ATOM      2  N   UNL     1      -6.397  -1.920   3.879  0.00  0.00    -0.206 NA
ATOM      3  C   UNL     1      -7.652  -2.332   3.832  0.00  0.00    +0.134 A 
ATOM      4  C   UNL     1      -8.266  -2.552   2.567  0.00  0.00    +0.051 A 
ATOM      5  C   UNL     1      -9.613  -2.998   2.255  0.00  0.00    -0.028 A 
ATOM      6  C   UNL     1      -9.977  -3.136   0.972  0.00  0.00    -0.008 A 
ATOM      7  S   UNL     1      -8.511  -2.669   0.071  0.00  0.00    -0.073 S 
ATOM      8  C   UNL     1      -7.449  -2.301   1.443  0.00  0.00    +0.115 A 
ATOM      9  N   UNL     1      -6.205  -1.885   1.575  0.00  0.00    -0.214 NA
ATOM     10  C   UNL     1     -11.307  -3.581   0.421  0.00  0.00    +0.052 C 
ATOM     11  C   UNL     1     -10.591  -3.303   3.360  0.00  0.00    +0.045 C 
ATOM     12  N   UNL     1      -8.361  -2.548   4.999  0.00  0.00    -0.318 N 
ATOM     13  C   UNL     1      -8.233  -3.813   5.739  0.00  0.00    +0.088 C 
ATOM     14  C   UNL     1      -7.947  -3.490   7.209  0.00  0.00    -0.059 C 
ATOM     15  N   UNL     1      -8.988  -2.590   7.722  0.00  0.00    +0.384 N 
ATOM     16  C   UNL     1      -8.930  -1.304   7.016  0.00  0.00    -0.059 C 
ATOM     17  C   UNL     1      -9.261  -1.517   5.540  0.00  0.00    +0.088 C 
ATOM     18  H   UNL     1      -9.894  -3.010   7.580  0.00  0.00    -0.081 HD
ENDROOT
BRANCH   1  19
ATOM     19  S   UNL     1      -4.016  -1.153   2.928  0.00  0.00    -0.077 S 
BRANCH  19  20
ATOM     20  C   UNL     1      -3.456  -0.985   1.210  0.00  0.00    +0.173 C 
BRANCH  20  22
ATOM     21  N   UNL     1      -1.394  -0.320   0.017  0.00  0.00    -0.301 N 
ATOM     22  C   UNL     1      -2.024  -0.515   1.192  0.00  0.00    +0.226 C 
ATOM     23  O   UNL     1      -1.439  -0.313   2.235  0.00  0.00    -0.275 OA
BRANCH  21  25
ATOM     24  C   UNL     1       0.032   1.667  -0.020  0.00  0.00    +0.024 C 
ATOM     25  C   UNL     1      -0.002   0.138  -0.001  0.00  0.00    +0.104 C 
ENDBRANCH  21  25
BRANCH  21  26
ATOM     26  C   UNL     1      -2.101  -0.564  -1.243  0.00  0.00    +0.104 C 
ATOM     27  C   UNL     1      -1.897  -2.019  -1.668  0.00  0.00    +0.024 C 
ENDBRANCH  21  26
ENDBRANCH  20  22
ENDBRANCH  19  20
ENDBRANCH   1  19
BRANCH  15  28
ATOM     28  C   UNL     1      -8.775  -2.368   9.159  0.00  0.00    -0.043 C 
BRANCH  28  29
ATOM     29  C   UNL     1      -9.910  -1.545   9.713  0.00  0.00    -0.061 A 
ATOM     30  C   UNL     1      -9.747  -0.186   9.909  0.00  0.00    +0.005 A 
ATOM     31  C   UNL     1     -10.788   0.568  10.418  0.00  0.00    -0.050 A 
ATOM     32  C   UNL     1     -11.992  -0.037  10.730  0.00  0.00    +0.003 A 
ATOM     33  C   UNL     1     -12.155  -1.395  10.533  0.00  0.00    +0.004 A 
ATOM     34  C   UNL     1     -11.115  -2.149  10.020  0.00  0.00    -0.049 A 
ATOM     35  C   UNL     1     -11.294  -3.629   9.800  0.00  0.00    +0.044 C 
ATOM     36  C   UNL     1     -10.610   2.049  10.633  0.00  0.00    +0.044 C 
ENDBRANCH  28  29
ENDBRANCH  15  28
TORSDOF 7
