REMARK  Name = ZINC44577217
REMARK  9 active torsions:
REMARK  status: ('A' for Active; 'I' for Inactive)
REMARK    1  A    between atoms: C_1  and  C_2
REMARK    2  A    between atoms: C_2  and  C_3
REMARK    3  A    between atoms: C_2  and  C_4
REMARK    4  A    between atoms: C_4  and  C_5
REMARK    5  A    between atoms: C_5  and  C_7
REMARK    6  A    between atoms: C_5  and  N_11
REMARK    7  A    between atoms: C_7  and  O_9
REMARK    8  A    between atoms: O_9  and  C_10
REMARK    9  A    between atoms: C_23  and  C_25
REMARK                            x       y       z     vdW  Elec       q    Type
REMARK                         _______ _______ _______ _____ _____    ______ ____
ROOT
ATOM      1  N   UNL     1      -0.456  -2.550   0.712  0.00  0.00    -0.286 N 
ATOM      2  C   UNL     1       0.877  -2.647   0.888  0.00  0.00    +0.304 C 
ATOM      3  O   UNL     1       1.634  -2.119   0.096  0.00  0.00    -0.253 OA
ATOM      4  N   UNL     1       1.371  -3.327   1.941  0.00  0.00    -0.273 N 
ATOM      5  C   UNL     1       0.478  -4.074   2.840  0.00  0.00    +0.116 C 
ATOM      6  C   UNL     1       0.535  -3.447   4.239  0.00  0.00    +0.074 C 
ATOM      7  C   UNL     1       1.975  -3.182   4.593  0.00  0.00    +0.040 A 
ATOM      8  C   UNL     1       2.991  -3.129   3.705  0.00  0.00    +0.062 A 
ATOM      9  N   UNL     1       4.116  -2.870   4.375  0.00  0.00    -0.348 N 
ATOM     10  C   UNL     1       3.840  -2.763   5.649  0.00  0.00    +0.171 A 
ATOM     11  N   UNL     1       2.512  -2.953   5.824  0.00  0.00    -0.349 N 
ATOM     12  H   UNL     1       2.032  -2.930   6.667  0.00  0.00    +0.166 HD
ATOM     13  C   UNL     1       2.818  -3.346   2.217  0.00  0.00    +0.159 C 
ATOM     14  H   UNL     1      -1.060  -2.905   1.383  0.00  0.00    +0.151 HD
ATOM     15  H   UNL     1       4.997  -2.776   3.981  0.00  0.00    +0.167 HD
ENDROOT
BRANCH  13  16
ATOM     16  C   UNL     1       3.399  -4.679   1.818  0.00  0.00    +0.014 A 
ATOM     17  C   UNL     1       3.711  -5.614   2.787  0.00  0.00    +0.010 A 
ATOM     18  C   UNL     1       4.242  -6.837   2.422  0.00  0.00    +0.016 A 
ATOM     19  C   UNL     1       4.464  -7.125   1.087  0.00  0.00    +0.021 A 
ATOM     20  C   UNL     1       4.153  -6.190   0.117  0.00  0.00    +0.054 A 
ATOM     21  C   UNL     1       3.615  -4.968   0.482  0.00  0.00    +0.130 A 
ATOM     22  F   UNL     1       3.305  -4.056  -0.466  0.00  0.00    -0.205 F 
ATOM     23 BR   UNL     1       5.192  -8.798   0.590  0.00  0.00    -0.050 Br
ENDBRANCH  13  16
BRANCH   1  24
ATOM     24  C   UNL     1      -0.992  -1.910  -0.492  0.00  0.00    +0.183 C 
BRANCH  24  25
ATOM     25  C   UNL     1      -2.331  -2.513  -0.828  0.00  0.00    +0.327 C 
ATOM     26  O   UNL     1      -2.791  -3.388  -0.133  0.00  0.00    -0.249 OA
BRANCH  25  27
ATOM     27  O   UNL     1      -3.013  -2.079  -1.899  0.00  0.00    -0.467 OA
ATOM     28  C   UNL     1      -4.276  -2.695  -2.158  0.00  0.00    +0.280 C 
ENDBRANCH  25  27
ENDBRANCH  24  25
BRANCH  24  29
ATOM     29  C   UNL     1      -1.156  -0.410  -0.241  0.00  0.00    +0.036 C 
BRANCH  29  31
ATOM     30  C   UNL     1      -1.851   1.759  -1.268  0.00  0.00    +0.007 C 
ATOM     31  C   UNL     1      -1.549   0.285  -1.546  0.00  0.00    -0.015 C 
ATOM     32  C   UNL     1      -0.395   0.181  -2.546  0.00  0.00    +0.007 C 
ENDBRANCH  29  31
ENDBRANCH  24  29
ENDBRANCH   1  24
TORSDOF 6
