REMARK  Name = ZINC13047099
REMARK  8 active torsions:
REMARK  status: ('A' for Active; 'I' for Inactive)
REMARK    1  A    between atoms: C_6  and  C_7
REMARK    2  A    between atoms: C_10  and  S_17
REMARK    3  A    between atoms: N_11  and  C_14
REMARK    4  A    between atoms: C_14  and  C_15
REMARK    5  A    between atoms: C_15  and  O_16
REMARK    6  A    between atoms: S_17  and  C_18
REMARK    7  A    between atoms: C_18  and  C_19
REMARK    8  A    between atoms: N_21  and  C_22
REMARK                            x       y       z     vdW  Elec       q    Type
REMARK                         _______ _______ _______ _____ _____    ______ ____
ROOT
ATOM      1  C   UNL     1      -3.986   1.170   4.694  0.00  0.00    +0.016 A 
ATOM      2  C   UNL     1      -3.399   0.653   3.574  0.00  0.00    +0.016 A 
ATOM      3  C   UNL     1      -2.373   1.352   2.941  0.00  0.00    +0.065 A 
ATOM      4  C   UNL     1      -1.937   2.595   3.454  0.00  0.00    +0.080 A 
ATOM      5  C   UNL     1      -2.545   3.115   4.599  0.00  0.00    +0.043 A 
ATOM      6  C   UNL     1      -3.566   2.401   5.214  0.00  0.00    +0.065 A 
ATOM      7  N   UNL     1      -0.939   3.257   2.821  0.00  0.00    -0.223 NA
ATOM      8  C   UNL     1      -0.364   2.769   1.750  0.00  0.00    +0.173 A 
ATOM      9  N   UNL     1      -0.727   1.579   1.186  0.00  0.00    -0.285 N 
ATOM     10  C   UNL     1      -1.713   0.832   1.733  0.00  0.00    +0.262 A 
ATOM     11  O   UNL     1      -2.043  -0.233   1.244  0.00  0.00    -0.267 OA
ENDROOT
BRANCH   6  12
ATOM     12  C   UNL     1      -4.215   2.944   6.428  0.00  0.00    +0.387 C 
ATOM     13  O   UNL     1      -3.855   4.011   6.883  0.00  0.00    -0.241 OA
ATOM     14  O   UNL     1      -5.205   2.256   7.028  0.00  0.00    -0.241 OA
ENDBRANCH   6  12
BRANCH   9  15
ATOM     15  C   UNL     1      -0.039   1.106  -0.018  0.00  0.00    +0.155 C 
BRANCH  15  16
ATOM     16  C   UNL     1      -0.770   1.620  -1.259  0.00  0.00    +0.177 C 
BRANCH  16  17
ATOM     17  O   UNL     1      -0.681   3.045  -1.308  0.00  0.00    -0.393 OA
ATOM     18  H   UNL     1      -1.124   3.441  -2.072  0.00  0.00    +0.209 HD
ENDBRANCH  16  17
ENDBRANCH  15  16
ENDBRANCH   9  15
BRANCH   8  19
ATOM     19  S   UNL     1       0.932   3.694   0.997  0.00  0.00    -0.078 S 
BRANCH  19  20
ATOM     20  C   UNL     1       0.991   5.118   2.113  0.00  0.00    +0.173 C 
BRANCH  20  21
ATOM     21  C   UNL     1       2.061   6.074   1.651  0.00  0.00    +0.228 C 
ATOM     22  O   UNL     1       2.719   5.818   0.665  0.00  0.00    -0.275 OA
ATOM     23  N   UNL     1       2.287   7.213   2.335  0.00  0.00    -0.284 N 
ATOM     24  H   UNL     1       1.718   7.450   3.084  0.00  0.00    +0.155 HD
BRANCH  23  25
ATOM     25  C   UNL     1       3.343   8.056   1.962  0.00  0.00    +0.056 A 
ATOM     26  C   UNL     1       3.686   8.189   0.624  0.00  0.00    +0.074 A 
ATOM     27  C   UNL     1       4.729   9.022   0.256  0.00  0.00    +0.168 A 
ATOM     28  C   UNL     1       5.433   9.726   1.231  0.00  0.00    +0.168 A 
ATOM     29  C   UNL     1       5.088   9.591   2.566  0.00  0.00    +0.071 A 
ATOM     30  C   UNL     1       4.042   8.764   2.932  0.00  0.00    +0.066 A 
ATOM     31 CL   UNL     1       3.607   8.603   4.605  0.00  0.00    -0.082 Cl
ATOM     32  O   UNL     1       6.402  10.468   0.618  0.00  0.00    -0.453 OA
ATOM     33  C   UNL     1       6.549   9.899  -0.696  0.00  0.00    +0.466 C 
ATOM     34  O   UNL     1       5.257   9.324  -0.967  0.00  0.00    -0.453 OA
ENDBRANCH  23  25
ENDBRANCH  20  21
ENDBRANCH  19  20
ENDBRANCH   8  19
TORSDOF 8
