REMARK  Name = ZINC60387036
REMARK  11 active torsions:
REMARK  status: ('A' for Active; 'I' for Inactive)
REMARK    1  A    between atoms: C_1  and  C_2
REMARK    2  A    between atoms: C_5  and  N_19
REMARK    3  A    between atoms: C_7  and  S_8
REMARK    4  A    between atoms: S_8  and  N_11
REMARK    5  A    between atoms: N_11  and  C_12
REMARK    6  A    between atoms: C_20  and  C_22
REMARK    7  A    between atoms: C_22  and  C_24
REMARK    8  A    between atoms: C_22  and  N_28
REMARK    9  A    between atoms: C_24  and  C_25
REMARK   10  A    between atoms: C_25  and  S_26
REMARK   11  A    between atoms: S_26  and  C_27
REMARK                            x       y       z     vdW  Elec       q    Type
REMARK                         _______ _______ _______ _____ _____    ______ ____
ROOT
ATOM      1  C   UNL     1      -0.034   1.481   0.011  0.00  0.00    +0.046 C 
ATOM      2  C   UNL     1       0.195  -0.009   0.011  0.00  0.00    -0.024 A 
ATOM      3  C   UNL     1       0.263  -0.697  -1.186  0.00  0.00    +0.007 A 
ATOM      4  C   UNL     1       0.472  -2.062  -1.190  0.00  0.00    +0.024 A 
ATOM      5  C   UNL     1       0.614  -2.744   0.012  0.00  0.00    +0.035 A 
ATOM      6  C   UNL     1       0.545  -2.050   1.213  0.00  0.00    +0.052 A 
ATOM      7  C   UNL     1       0.341  -0.684   1.209  0.00  0.00    +0.113 A 
ENDROOT
BRANCH   5   8
ATOM      8  N   UNL     1       0.825  -4.127   0.012  0.00  0.00    -0.284 N 
ATOM      9  C   UNL     1       1.527  -4.702  -0.984  0.00  0.00    +0.238 C 
ATOM     10  O   UNL     1       2.052  -4.011  -1.833  0.00  0.00    -0.273 OA
ATOM     11  H   UNL     1       0.466  -4.672   0.730  0.00  0.00    +0.155 HD
BRANCH   9  12
ATOM     12  C   UNL     1       1.661  -6.201  -1.044  0.00  0.00    +0.161 C 
BRANCH  12  13
ATOM     13  N   UNL     1       2.027  -6.605  -2.404  0.00  0.00    -0.288 N 
ATOM     14  C   UNL     1       3.171  -6.154  -2.956  0.00  0.00    +0.298 C 
ATOM     15  O   UNL     1       3.899  -5.412  -2.326  0.00  0.00    -0.253 OA
ATOM     16  N   UNL     1       3.507  -6.525  -4.207  0.00  0.00    -0.313 N 
ATOM     17  H   UNL     1       1.446  -7.197  -2.907  0.00  0.00    +0.151 HD
ATOM     18  H   UNL     1       2.926  -7.117  -4.710  0.00  0.00    +0.146 HD
ATOM     19  H   UNL     1       4.330  -6.200  -4.605  0.00  0.00    +0.146 HD
ENDBRANCH  12  13
BRANCH  12  20
ATOM     20  C   UNL     1       2.748  -6.656  -0.068  0.00  0.00    +0.042 C 
BRANCH  20  21
ATOM     21  C   UNL     1       2.799  -8.185  -0.036  0.00  0.00    +0.071 C 
BRANCH  21  22
ATOM     22  S   UNL     1       4.087  -8.723   1.122  0.00  0.00    -0.164 S 
ATOM     23  C   UNL     1       4.018 -10.534   1.043  0.00  0.00    +0.084 C 
ENDBRANCH  21  22
ENDBRANCH  20  21
ENDBRANCH  12  20
ENDBRANCH   9  12
ENDBRANCH   5   8
BRANCH   7  24
ATOM     24  S   UNL     1       0.260   0.198   2.732  0.00  0.00    +0.073 S 
ATOM     25  O   UNL     1       0.394  -0.766   3.768  0.00  0.00    -0.150 OA
ATOM     26  O   UNL     1       1.139   1.307   2.606  0.00  0.00    -0.150 OA
BRANCH  24  27
ATOM     27  N   UNL     1      -1.270   0.818   2.858  0.00  0.00    -0.216 N 
ATOM     28  H   UNL     1      -1.409   1.778   2.825  0.00  0.00    +0.174 HD
BRANCH  27  29
ATOM     29  C   UNL     1      -2.362  -0.040   3.013  0.00  0.00    +0.048 A 
ATOM     30  C   UNL     1      -2.468  -1.180   2.225  0.00  0.00    +0.026 A 
ATOM     31  C   UNL     1      -3.548  -2.027   2.380  0.00  0.00    +0.022 A 
ATOM     32  C   UNL     1      -4.524  -1.741   3.319  0.00  0.00    +0.041 A 
ATOM     33  C   UNL     1      -4.420  -0.607   4.105  0.00  0.00    +0.022 A 
ATOM     34  C   UNL     1      -3.340   0.240   3.958  0.00  0.00    +0.026 A 
ATOM     35 CL   UNL     1      -5.880  -2.808   3.510  0.00  0.00    -0.084 Cl
ENDBRANCH  27  29
ENDBRANCH  24  27
ENDBRANCH   7  24
TORSDOF 9
