REMARK  Name = ZINC03638757
REMARK  11 active torsions:
REMARK  status: ('A' for Active; 'I' for Inactive)
REMARK    1  A    between atoms: C_1  and  C_2
REMARK    2  A    between atoms: C_5  and  C_35
REMARK    3  A    between atoms: C_6  and  C_8
REMARK    4  A    between atoms: C_8  and  N_9
REMARK    5  A    between atoms: C_12  and  C_20
REMARK    6  A    between atoms: N_22  and  C_23
REMARK    7  A    between atoms: C_23  and  C_24
REMARK    8  A    between atoms: C_24  and  C_26
REMARK    9  A    between atoms: C_24  and  C_27
REMARK   10  A    between atoms: C_27  and  N_28
REMARK   11  A    between atoms: C_31  and  C_34
REMARK                            x       y       z     vdW  Elec       q    Type
REMARK                         _______ _______ _______ _____ _____    ______ ____
ROOT
ATOM      1  N   UNL     1       1.561  -3.701   3.039  0.00  0.00    -0.265 N 
ATOM      2  C   UNL     1       1.847  -4.940   2.471  0.00  0.00    +0.051 A 
ATOM      3  C   UNL     1       1.226  -5.305   1.287  0.00  0.00    +0.037 A 
ATOM      4  C   UNL     1       1.498  -6.545   0.706  0.00  0.00    +0.039 A 
ATOM      5  C   UNL     1       2.398  -7.424   1.316  0.00  0.00    +0.014 A 
ATOM      6  C   UNL     1       3.018  -7.061   2.491  0.00  0.00    +0.017 A 
ATOM      7  C   UNL     1       2.750  -5.827   3.067  0.00  0.00    +0.030 A 
ATOM      8  S   UNL     1       3.551  -5.355   4.568  0.00  0.00    -0.114 S 
ATOM      9  C   UNL     1       3.643  -3.545   4.413  0.00  0.00    +0.170 C 
ATOM     10  C   UNL     1       2.326  -3.033   3.898  0.00  0.00    +0.230 C 
ATOM     11  O   UNL     1       1.938  -1.952   4.290  0.00  0.00    -0.274 OA
ENDROOT
BRANCH   4  12
ATOM     12  C   UNL     1       0.834  -6.929  -0.554  0.00  0.00    +0.244 C 
ATOM     13  O   UNL     1      -0.020  -6.208  -1.035  0.00  0.00    -0.270 OA
ATOM     14  N   UNL     1       1.173  -8.077  -1.172  0.00  0.00    -0.311 N 
ATOM     15  H   UNL     1       1.854  -8.652  -0.788  0.00  0.00    +0.149 HD
BRANCH  14  16
ATOM     16  C   UNL     1       0.514  -8.459  -2.423  0.00  0.00    +0.106 C 
BRANCH  16  17
ATOM     17  C   UNL     1       1.079  -9.794  -2.911  0.00  0.00    -0.014 C 
ATOM     18  C   UNL     1       2.556  -9.623  -3.268  0.00  0.00    +0.007 C 
BRANCH  17  19
ATOM     19  C   UNL     1       0.305 -10.254  -4.149  0.00  0.00    -0.074 C 
BRANCH  19  20
ATOM     20  N   UNL     1       0.766 -11.591  -4.546  0.00  0.00    +0.380 N 
ATOM     21  C   UNL     1       0.434 -12.555  -3.490  0.00  0.00    -0.079 C 
ATOM     22  C   UNL     1       0.984 -13.934  -3.862  0.00  0.00    -0.016 C 
ATOM     23  C   UNL     1       0.358 -14.387  -5.184  0.00  0.00    -0.018 C 
ATOM     24  C   UNL     1       0.647 -13.337  -6.261  0.00  0.00    -0.016 C 
ATOM     25  C   UNL     1       0.110 -11.980  -5.800  0.00  0.00    -0.079 C 
ATOM     26  C   UNL     1       0.962 -15.729  -5.603  0.00  0.00    +0.007 C 
ATOM     27  H   UNL     1       1.765 -11.574  -4.681  0.00  0.00    -0.082 HD
ENDBRANCH  19  20
ENDBRANCH  17  19
ENDBRANCH  16  17
ENDBRANCH  14  16
ENDBRANCH   4  12
BRANCH   1  28
ATOM     28  C   UNL     1       0.297  -3.070   2.649  0.00  0.00    +0.149 C 
BRANCH  28  34
ATOM     29  C   UNL     1      -3.418  -6.385   3.159  0.00  0.00    +0.044 C 
ATOM     30  C   UNL     1      -2.606  -5.240   3.707  0.00  0.00    -0.050 A 
ATOM     31  C   UNL     1      -2.893  -4.726   4.958  0.00  0.00    +0.003 A 
ATOM     32  C   UNL     1      -2.149  -3.676   5.461  0.00  0.00    +0.004 A 
ATOM     33  C   UNL     1      -1.116  -3.140   4.714  0.00  0.00    -0.046 A 
ATOM     34  C   UNL     1      -0.828  -3.655   3.464  0.00  0.00    -0.027 A 
ATOM     35  C   UNL     1      -1.570  -4.708   2.962  0.00  0.00    +0.008 A 
ATOM     36  C   UNL     1      -0.305  -1.994   5.262  0.00  0.00    +0.044 C 
ENDBRANCH  28  34
ENDBRANCH   1  28
TORSDOF 7
