REMARK  Name = ZINC49177661
REMARK  5 active torsions:
REMARK  status: ('A' for Active; 'I' for Inactive)
REMARK    1  A    between atoms: C_1  and  C_2
REMARK    2  A    between atoms: C_3  and  N_9
REMARK    3  A    between atoms: C_14  and  C_21
REMARK    4  A    between atoms: C_17  and  C_19
REMARK    5  A    between atoms: C_17  and  C_20
REMARK                            x       y       z     vdW  Elec       q    Type
REMARK                         _______ _______ _______ _____ _____    ______ ____
ROOT
ATOM      1  N   UNL     1      -0.004   0.011  -2.413  0.00  0.00    -0.269 N 
ATOM      2  C   UNL     1       0.095  -0.653  -3.581  0.00  0.00    +0.307 C 
ATOM      3  O   UNL     1       0.107  -1.869  -3.590  0.00  0.00    -0.252 OA
ATOM      4  N   UNL     1       0.182   0.030  -4.740  0.00  0.00    -0.280 N 
ATOM      5  C   UNL     1       0.279   1.498  -4.748  0.00  0.00    +0.140 C 
ATOM      6  C   UNL     1      -0.776   2.048  -5.715  0.00  0.00    +0.133 C 
ATOM      7  O   UNL     1      -0.640   1.396  -6.979  0.00  0.00    -0.368 OA
ATOM      8  C   UNL     1      -0.869  -0.015  -6.938  0.00  0.00    +0.080 C 
ATOM      9  C   UNL     1       0.188  -0.670  -6.034  0.00  0.00    +0.143 C 
ATOM     10  C   UNL     1      -0.758  -0.592  -8.351  0.00  0.00    +0.043 C 
ATOM     11  C   UNL     1      -2.266  -0.290  -6.380  0.00  0.00    +0.043 C 
ATOM     12  C   UNL     1      -0.573   3.554  -5.891  0.00  0.00    +0.039 C 
ATOM     13  H   UNL     1      -0.046   0.981  -2.408  0.00  0.00    +0.156 HD
ENDROOT
BRANCH   1  16
ATOM     14  C   UNL     1       0.717   1.379  -0.024  0.00  0.00    +0.047 C 
ATOM     15  C   UNL     1       0.296  -0.067  -0.018  0.00  0.00    -0.011 A 
ATOM     16  C   UNL     1      -0.048  -0.697  -1.207  0.00  0.00    +0.039 A 
ATOM     17  C   UNL     1      -0.435  -2.030  -1.196  0.00  0.00    +0.024 A 
ATOM     18  C   UNL     1      -0.478  -2.727  -0.004  0.00  0.00    +0.003 A 
ATOM     19  C   UNL     1      -0.136  -2.099   1.178  0.00  0.00    +0.020 A 
ATOM     20  C   UNL     1       0.257  -0.771   1.171  0.00  0.00    +0.046 A 
ATOM     21 CL   UNL     1       0.694   0.012   2.658  0.00  0.00    -0.083 Cl
ENDBRANCH   1  16
TORSDOF 1
