REMARK  Name = ZINC35692571
REMARK  10 active torsions:
REMARK  status: ('A' for Active; 'I' for Inactive)
REMARK    1  A    between atoms: C_1  and  C_2
REMARK    2  A    between atoms: C_3  and  C_26
REMARK    3  A    between atoms: C_4  and  C_20
REMARK    4  A    between atoms: C_7  and  C_12
REMARK    5  A    between atoms: C_13  and  N_15
REMARK    6  A    between atoms: N_15  and  C_16
REMARK    7  A    between atoms: C_16  and  C_17
REMARK    8  A    between atoms: C_17  and  C_18
REMARK    9  A    between atoms: C_17  and  C_19
REMARK   10  A    between atoms: N_28  and  C_29
REMARK                            x       y       z     vdW  Elec       q    Type
REMARK                         _______ _______ _______ _____ _____    ______ ____
ROOT
ATOM      1  C   UNL     1      -0.212   1.488   0.134  0.00  0.00    +0.066 C 
ATOM      2  C   UNL     1      -0.140  -0.015   0.050  0.00  0.00    +0.051 C 
ATOM      3  C   UNL     1      -1.304  -0.756   0.006  0.00  0.00    +0.060 C 
ATOM      4  C   UNL     1      -1.179  -2.261  -0.077  0.00  0.00    +0.148 C 
ATOM      5  N   UNL     1       0.196  -2.826  -0.105  0.00  0.00    -0.267 N 
ATOM      6  C   UNL     1       0.546  -4.160  -0.178  0.00  0.00    +0.048 C 
ATOM      7  C   UNL     1       1.863  -4.463  -0.191  0.00  0.00    +0.072 C 
ATOM      8  S   UNL     1       2.613  -2.849  -0.099  0.00  0.00    -0.060 S 
ATOM      9  C   UNL     1       1.218  -1.919  -0.051  0.00  0.00    +0.166 C 
ATOM     10  N   UNL     1       1.040  -0.616   0.015  0.00  0.00    -0.230 NA
ENDROOT
BRANCH   4  11
ATOM     11  C   UNL     1      -1.892  -2.717  -1.324  0.00  0.00    -0.022 A 
ATOM     12  C   UNL     1      -3.023  -3.506  -1.225  0.00  0.00    +0.006 A 
ATOM     13  C   UNL     1      -3.677  -3.925  -2.368  0.00  0.00    +0.000 A 
ATOM     14  C   UNL     1      -3.200  -3.554  -3.612  0.00  0.00    +0.000 A 
ATOM     15  C   UNL     1      -2.070  -2.764  -3.712  0.00  0.00    +0.000 A 
ATOM     16  C   UNL     1      -1.419  -2.342  -2.568  0.00  0.00    +0.006 A 
ENDBRANCH   4  11
BRANCH   3  17
ATOM     17  C   UNL     1      -2.560  -0.133   0.037  0.00  0.00    +0.244 C 
ATOM     18  O   UNL     1      -2.638   1.078   0.158  0.00  0.00    -0.270 OA
ATOM     19  N   UNL     1      -3.682  -0.874  -0.066  0.00  0.00    -0.315 N 
ATOM     20  C   UNL     1      -4.987  -0.216  -0.167  0.00  0.00    +0.128 C 
ATOM     21  H   UNL     1      -3.625  -1.842  -0.074  0.00  0.00    +0.149 HD
ENDBRANCH   3  17
BRANCH   6  22
ATOM     22  C   UNL     1      -0.478  -5.213  -0.239  0.00  0.00    +0.091 C 
ATOM     23  C   UNL     1      -0.114  -6.509  -0.200  0.00  0.00    +0.239 C 
ATOM     24  O   UNL     1       1.199  -6.845  -0.212  0.00  0.00    -0.271 OA
BRANCH  23  25
ATOM     25  N   UNL     1      -1.081  -7.498  -0.148  0.00  0.00    -0.312 N 
ATOM     26  H   UNL     1      -2.020  -7.263  -0.213  0.00  0.00    +0.149 HD
BRANCH  25  27
ATOM     27  C   UNL     1      -0.687  -8.901   0.006  0.00  0.00    +0.107 C 
BRANCH  27  28
ATOM     28  C   UNL     1      -1.927  -9.793  -0.091  0.00  0.00    -0.000 C 
ATOM     29  C   UNL     1      -2.520  -9.691  -1.498  0.00  0.00    +0.009 C 
ATOM     30  C   UNL     1      -1.534 -11.244   0.193  0.00  0.00    +0.009 C 
ENDBRANCH  27  28
ENDBRANCH  25  27
ENDBRANCH  23  25
ENDBRANCH   6  22
TORSDOF 6
