REMARK  Name = ZINC20464114
REMARK  7 active torsions:
REMARK  status: ('A' for Active; 'I' for Inactive)
REMARK    1  A    between atoms: C_1  and  N_2
REMARK    2  A    between atoms: C_4  and  N_25
REMARK    3  A    between atoms: C_7  and  C_9
REMARK    4  A    between atoms: C_11  and  C_14
REMARK    5  A    between atoms: C_17  and  O_20
REMARK    6  A    between atoms: O_20  and  C_21
REMARK    7  A    between atoms: N_28  and  C_29
REMARK                            x       y       z     vdW  Elec       q    Type
REMARK                         _______ _______ _______ _____ _____    ______ ____
ROOT
ATOM      1  C   UNL     1      -6.719   1.690   2.359  0.00  0.00    -0.095 C 
ATOM      2  N   UNL     1      -5.853   2.157   1.268  0.00  0.00    +0.387 N 
ATOM      3  C   UNL     1      -4.426   2.053   1.642  0.00  0.00    -0.056 C 
ATOM      4  C   UNL     1      -3.694   1.714   0.320  0.00  0.00    +0.057 C 
ATOM      5  C   UNL     1      -4.714   0.771  -0.370  0.00  0.00    +0.014 C 
ATOM      6  C   UNL     1      -6.076   1.369   0.042  0.00  0.00    +0.023 C 
ATOM      7  H   UNL     1      -6.115   3.209   1.083  0.00  0.00    -0.081 HD
ENDROOT
BRANCH   4   8
ATOM      8  N   UNL     1      -2.431   1.020   0.582  0.00  0.00    -0.298 N 
ATOM      9  C   UNL     1      -1.286   1.723   0.692  0.00  0.00    +0.300 C 
ATOM     10  O   UNL     1      -1.302   2.933   0.574  0.00  0.00    -0.253 OA
ATOM     11  N   UNL     1      -0.124   1.084   0.933  0.00  0.00    -0.297 N 
ATOM     12  H   UNL     1      -2.417  -0.075   0.689  0.00  0.00    +0.150 HD
ATOM     13  H   UNL     1      -0.111  -0.010   1.045  0.00  0.00    +0.151 HD
BRANCH  11  14
ATOM     14  C   UNL     1       1.121   1.847   1.047  0.00  0.00    +0.074 C 
ATOM     15  C   UNL     1       1.703   2.084  -0.348  0.00  0.00    +0.022 C 
ATOM     16  C   UNL     1       3.004   2.881  -0.229  0.00  0.00    +0.002 C 
ATOM     17  C   UNL     1       4.008   2.095   0.616  0.00  0.00    +0.000 C 
ATOM     18  C   UNL     1       3.426   1.858   2.011  0.00  0.00    +0.002 C 
ATOM     19  C   UNL     1       2.125   1.061   1.892  0.00  0.00    +0.022 C 
ENDBRANCH  11  14
ENDBRANCH   4   8
BRANCH   6  20
ATOM     20  C   UNL     1      -7.061   0.262   0.313  0.00  0.00    +0.214 A 
ATOM     21  N   UNL     1      -8.210   0.078  -0.290  0.00  0.00    -0.193 NA
ATOM     22  C   UNL     1      -8.744  -1.028   0.276  0.00  0.00    +0.202 A 
ATOM     23  N   UNL     1      -7.897  -1.446   1.181  0.00  0.00    -0.056 NA
ATOM     24  O   UNL     1      -6.926  -0.721   1.209  0.00  0.00    -0.339 OA
BRANCH  22  25
ATOM     25  C   UNL     1     -10.047  -1.650  -0.066  0.00  0.00    +0.023 A 
ATOM     26  C   UNL     1     -10.851  -1.087  -1.055  0.00  0.00    +0.015 A 
ATOM     27  C   UNL     1     -12.059  -1.671  -1.374  0.00  0.00    +0.046 A 
ATOM     28  C   UNL     1     -12.479  -2.812  -0.703  0.00  0.00    +0.130 A 
ATOM     29  C   UNL     1     -11.682  -3.371   0.287  0.00  0.00    +0.046 A 
ATOM     30  C   UNL     1     -10.471  -2.796   0.606  0.00  0.00    +0.015 A 
BRANCH  28  31
ATOM     31  O   UNL     1     -13.672  -3.381  -1.015  0.00  0.00    -0.406 OA
BRANCH  31  32
ATOM     32  C   UNL     1     -14.442  -2.753  -2.043  0.00  0.00    +0.575 C 
ATOM     33  F   UNL     1     -13.707  -2.741  -3.234  0.00  0.00    -0.133 F 
ATOM     34  F   UNL     1     -15.631  -3.464  -2.236  0.00  0.00    -0.133 F 
ATOM     35  F   UNL     1     -14.740  -1.439  -1.666  0.00  0.00    -0.133 F 
ENDBRANCH  31  32
ENDBRANCH  28  31
ENDBRANCH  22  25
ENDBRANCH   6  20
TORSDOF 6
