REMARK  Name = ZINC16936553
REMARK  7 active torsions:
REMARK  status: ('A' for Active; 'I' for Inactive)
REMARK    1  A    between atoms: C_1  and  C_2
REMARK    2  A    between atoms: C_2  and  C_4
REMARK    3  A    between atoms: C_2  and  O_7
REMARK    4  A    between atoms: O_7  and  C_8
REMARK    5  A    between atoms: C_11  and  C_14
REMARK    6  A    between atoms: N_20  and  C_21
REMARK    7  A    between atoms: C_24  and  C_27
REMARK                            x       y       z     vdW  Elec       q    Type
REMARK                         _______ _______ _______ _____ _____    ______ ____
ROOT
ATOM      1  C   UNL     1      -3.977  -1.109   4.912  0.00  0.00    +0.028 C 
ATOM      2  C   UNL     1      -5.204  -1.688   4.955  0.00  0.00    +0.078 C 
ATOM      3  C   UNL     1      -6.035  -2.034   6.123  0.00  0.00    +0.256 C 
ATOM      4  O   UNL     1      -5.661  -1.810   7.259  0.00  0.00    -0.269 OA
ATOM      5  N   UNL     1      -7.206  -2.598   5.879  0.00  0.00    -0.260 N 
ATOM      6  C   UNL     1      -7.612  -2.843   4.587  0.00  0.00    +0.166 C 
ATOM      7  N   UNL     1      -8.736  -3.392   4.172  0.00  0.00    -0.226 NA
ATOM      8  S   UNL     1      -6.250  -2.228   3.611  0.00  0.00    -0.049 S 
ATOM      9  H   UNL     1      -7.785  -2.842   6.618  0.00  0.00    +0.157 HD
ENDROOT
BRANCH   1  13
ATOM     10  C   UNL     1      -1.905  -0.799   1.225  0.00  0.00    +0.122 A 
ATOM     11  C   UNL     1      -1.517  -0.015   2.305  0.00  0.00    +0.046 A 
ATOM     12  C   UNL     1      -2.186  -0.112   3.505  0.00  0.00    +0.011 A 
ATOM     13  C   UNL     1      -3.260  -1.001   3.635  0.00  0.00    -0.024 A 
ATOM     14  C   UNL     1      -3.647  -1.788   2.543  0.00  0.00    +0.011 A 
ATOM     15  C   UNL     1      -2.974  -1.680   1.347  0.00  0.00    +0.046 A 
BRANCH  10  16
ATOM     16  O   UNL     1      -1.242  -0.700   0.044  0.00  0.00    -0.478 OA
BRANCH  16  18
ATOM     17  C   UNL     1      -1.235  -2.872  -1.014  0.00  0.00    +0.064 C 
ATOM     18  C   UNL     1      -1.769  -1.439  -1.060  0.00  0.00    +0.282 C 
BRANCH  18  19
ATOM     19  C   UNL     1      -1.345  -0.785  -2.350  0.00  0.00    +0.395 C 
ATOM     20  O   UNL     1      -1.765  -1.208  -3.414  0.00  0.00    -0.242 OA
ATOM     21  O   UNL     1      -0.582   0.166  -2.330  0.00  0.00    -0.242 OA
ENDBRANCH  18  19
ENDBRANCH  16  18
ENDBRANCH  10  16
ENDBRANCH   1  13
BRANCH   7  22
ATOM     22  C   UNL     1      -8.963  -3.554   2.840  0.00  0.00    +0.067 A 
ATOM     23  C   UNL     1      -8.679  -2.510   1.949  0.00  0.00    +0.028 A 
ATOM     24  C   UNL     1      -8.906  -2.671   0.615  0.00  0.00    +0.017 A 
ATOM     25  C   UNL     1      -9.424  -3.882   0.134  0.00  0.00    +0.063 A 
ATOM     26  C   UNL     1      -9.707  -4.926   1.025  0.00  0.00    +0.017 A 
ATOM     27  C   UNL     1      -9.475  -4.766   2.358  0.00  0.00    +0.028 A 
BRANCH  25  28
ATOM     28  C   UNL     1      -9.669  -4.056  -1.304  0.00  0.00    +0.387 C 
ATOM     29  O   UNL     1      -9.422  -3.144  -2.082  0.00  0.00    -0.241 OA
ATOM     30  O   UNL     1     -10.121  -5.113  -1.724  0.00  0.00    -0.241 OA
ENDBRANCH  25  28
ENDBRANCH   7  22
TORSDOF 6
