REMARK  Name = ZINC63899970
REMARK  4 active torsions:
REMARK  status: ('A' for Active; 'I' for Inactive)
REMARK    1  A    between atoms: C_3  and  O_20
REMARK    2  A    between atoms: C_4  and  C_8
REMARK    3  A    between atoms: N_9  and  N_10
REMARK    4  A    between atoms: N_10  and  C_11
REMARK                            x       y       z     vdW  Elec       q    Type
REMARK                         _______ _______ _______ _____ _____    ______ ____
ROOT
ATOM      1  C   UNL     1       3.691  -0.689  -0.037  0.00  0.00    +0.141 C 
ATOM      2  N   UNL     1       4.807  -0.023  -0.045  0.00  0.00    -0.190 NA
ENDROOT
BRANCH   1   6
ATOM      3  C   UNL     1      -0.017   1.381   0.010  0.00  0.00    +0.019 A 
ATOM      4  C   UNL     1       1.166   2.096   0.002  0.00  0.00    +0.047 A 
ATOM      5  C   UNL     1       2.381   1.431  -0.013  0.00  0.00    +0.126 A 
ATOM      6  C   UNL     1       2.405   0.029  -0.021  0.00  0.00    +0.037 A 
ATOM      7  C   UNL     1       1.203  -0.683  -0.013  0.00  0.00    +0.028 A 
ATOM      8  C   UNL     1       0.002  -0.004   0.002  0.00  0.00    +0.019 A 
ATOM      9 BR   UNL     1      -1.625  -0.968   0.012  0.00  0.00    -0.050 Br
BRANCH   5  10
ATOM     10  O   UNL     1       3.543   2.133  -0.021  0.00  0.00    -0.506 OA
ATOM     11  H   UNL     1       3.888   2.332   0.860  0.00  0.00    +0.292 HD
ENDBRANCH   5  10
ENDBRANCH   1   6
BRANCH   2  12
ATOM     12  N   UNL     1       6.030  -0.706  -0.060  0.00  0.00    -0.239 N 
ATOM     13  H   UNL     1       6.044  -1.676  -0.066  0.00  0.00    +0.174 HD
BRANCH  12  14
ATOM     14  C   UNL     1       7.191  -0.014  -0.068  0.00  0.00    +0.068 C 
ATOM     15  C   UNL     1       7.214   1.367  -0.055  0.00  0.00    +0.154 C 
ATOM     16  N   UNL     1       8.351   2.034  -0.063  0.00  0.00    -0.164 NA
ATOM     17  N   UNL     1       9.521   1.526  -0.083  0.00  0.00    -0.079 NA
ATOM     18  C   UNL     1       9.749   0.206  -0.098  0.00  0.00    +0.273 C 
ATOM     19  O   UNL     1      10.880  -0.239  -0.116  0.00  0.00    -0.271 OA
ATOM     20  C   UNL     1       8.540  -0.713  -0.085  0.00  0.00    +0.193 C 
ATOM     21 BR   UNL     1       8.655  -1.872   1.498  0.00  0.00    -0.072 Br
ENDBRANCH  12  14
ENDBRANCH   2  12
TORSDOF 4
