REMARK  Name = ZINC17155465
REMARK  6 active torsions:
REMARK  status: ('A' for Active; 'I' for Inactive)
REMARK    1  A    between atoms: C_6  and  C_7
REMARK    2  A    between atoms: N_9  and  C_10
REMARK    3  A    between atoms: C_10  and  C_11
REMARK    4  A    between atoms: C_11  and  C_13
REMARK    5  A    between atoms: C_11  and  N_22
REMARK    6  A    between atoms: N_25  and  C_28
REMARK                            x       y       z     vdW  Elec       q    Type
REMARK                         _______ _______ _______ _____ _____    ______ ____
ROOT
ATOM      1  C   UNL     1       3.753   6.236   0.125  0.00  0.00    +0.104 C 
ENDROOT
BRANCH   1   2
ATOM      2  C   UNL     1       3.268   7.403  -0.695  0.00  0.00    -0.025 A 
ATOM      3  C   UNL     1       2.861   7.207  -2.001  0.00  0.00    +0.009 A 
ATOM      4  C   UNL     1       2.411   8.274  -2.756  0.00  0.00    +0.050 A 
ATOM      5  C   UNL     1       2.377   9.545  -2.208  0.00  0.00    +0.166 A 
ATOM      6  C   UNL     1       2.792   9.744  -0.893  0.00  0.00    +0.167 A 
ATOM      7  C   UNL     1       3.236   8.669  -0.141  0.00  0.00    +0.054 A 
ATOM      8  O   UNL     1       2.664  11.069  -0.592  0.00  0.00    -0.453 OA
ATOM      9  C   UNL     1       1.785  11.610  -1.596  0.00  0.00    +0.466 C 
ATOM     10  O   UNL     1       1.989  10.746  -2.729  0.00  0.00    -0.453 OA
ENDBRANCH   1   2
BRANCH   1  11
ATOM     11  N   UNL     1       5.090   5.836  -0.334  0.00  0.00    -0.291 NA
ATOM     12  C   UNL     1       6.098   6.836   0.046  0.00  0.00    +0.104 C 
ATOM     13  C   UNL     1       7.484   6.346  -0.379  0.00  0.00    +0.120 C 
ATOM     14  N   UNL     1       7.495   6.116  -1.831  0.00  0.00    -0.327 N 
ATOM     15  C   UNL     1       6.487   5.117  -2.211  0.00  0.00    +0.120 C 
ATOM     16  C   UNL     1       5.101   5.607  -1.785  0.00  0.00    +0.104 C 
BRANCH  14  17
ATOM     17  C   UNL     1       8.768   5.736  -2.268  0.00  0.00    +0.030 A 
ATOM     18  C   UNL     1       8.938   4.543  -2.958  0.00  0.00    +0.026 A 
ATOM     19  C   UNL     1      10.195   4.172  -3.393  0.00  0.00    +0.040 A 
ATOM     20  C   UNL     1      11.287   4.983  -3.132  0.00  0.00    +0.124 A 
ATOM     21  C   UNL     1      11.120   6.170  -2.440  0.00  0.00    +0.040 A 
ATOM     22  C   UNL     1       9.864   6.548  -2.008  0.00  0.00    +0.026 A 
ATOM     23  F   UNL     1      12.517   4.615  -3.555  0.00  0.00    -0.205 F 
ENDBRANCH  14  17
ENDBRANCH   1  11
BRANCH   1  24
ATOM     24  C   UNL     1       2.786   5.061  -0.037  0.00  0.00    +0.128 C 
BRANCH  24  27
ATOM     25  C   UNL     1       2.568   2.771   0.766  0.00  0.00    +0.244 C 
ATOM     26  O   UNL     1       1.477   2.719   0.232  0.00  0.00    -0.270 OA
ATOM     27  N   UNL     1       3.302   3.899   0.689  0.00  0.00    -0.310 N 
ATOM     28  H   UNL     1       4.290   3.946   1.172  0.00  0.00    +0.149 HD
BRANCH  25  34
ATOM     29  C   UNL     1       2.331   0.429   1.580  0.00  0.00    +0.014 A 
ATOM     30  C   UNL     1       2.823  -0.662   2.265  0.00  0.00    +0.021 A 
ATOM     31  C   UNL     1       4.066  -0.599   2.873  0.00  0.00    +0.041 A 
ATOM     32  C   UNL     1       4.822   0.559   2.796  0.00  0.00    +0.021 A 
ATOM     33  C   UNL     1       4.341   1.656   2.114  0.00  0.00    +0.014 A 
ATOM     34  C   UNL     1       3.089   1.599   1.499  0.00  0.00    +0.037 A 
ATOM     35 CL   UNL     1       4.678  -1.976   3.734  0.00  0.00    -0.084 Cl
ENDBRANCH  25  34
ENDBRANCH  24  27
ENDBRANCH   1  24
TORSDOF 6
