REMARK  Name = ZINC08740038
REMARK  12 active torsions:
REMARK  status: ('A' for Active; 'I' for Inactive)
REMARK    1  A    between atoms: C_1  and  C_2
REMARK    2  A    between atoms: C_2  and  C_37
REMARK    3  A    between atoms: C_7  and  C_36
REMARK    4  A    between atoms: N_10  and  C_11
REMARK    5  A    between atoms: C_19  and  N_75
REMARK    6  A    between atoms: C_25  and  O_33
REMARK    7  A    between atoms: C_26  and  O_31
REMARK    8  A    between atoms: C_27  and  O_29
REMARK    9  A    between atoms: O_29  and  C_30
REMARK   10  A    between atoms: O_31  and  C_32
REMARK   11  A    between atoms: O_33  and  C_34
REMARK   12  A    between atoms: C_35  and  N_75
REMARK                            x       y       z     vdW  Elec       q    Type
REMARK                         _______ _______ _______ _____ _____    ______ ____
ROOT
ATOM      1  C   UNL     1      -1.279  -0.155  -0.304  0.00  0.00    +0.077 A 
ATOM      2  C   UNL     1      -1.322   0.246  -1.607  0.00  0.00    +0.027 A 
ATOM      3  C   UNL     1      -1.826  -0.404  -2.671  0.00  0.00    +0.011 A 
ATOM      4  C   UNL     1      -2.426  -1.629  -2.816  0.00  0.00    -0.012 A 
ATOM      5  C   UNL     1      -2.619  -2.576  -1.811  0.00  0.00    -0.050 A 
ATOM      6  C   UNL     1      -2.320  -2.401  -0.511  0.00  0.00    +0.055 A 
ATOM      7  C   UNL     1      -1.772  -1.363   0.185  0.00  0.00    +0.200 A 
ATOM      8  O   UNL     1      -1.706  -1.512   1.397  0.00  0.00    -0.286 OA
ATOM      9  C   UNL     1      -3.204  -3.921  -2.190  0.00  0.00    -0.040 C 
ATOM     10  C   UNL     1      -4.709  -3.853  -2.352  0.00  0.00    -0.007 C 
ATOM     11  C   UNL     1      -5.119  -2.621  -3.154  0.00  0.00    +0.035 C 
ATOM     12  C   UNL     1      -4.213  -2.469  -4.349  0.00  0.00    -0.033 A 
ATOM     13  C   UNL     1      -2.923  -1.976  -4.181  0.00  0.00    +0.031 A 
ATOM     14  C   UNL     1      -2.080  -1.817  -5.285  0.00  0.00    +0.173 A 
ATOM     15  C   UNL     1      -2.539  -2.163  -6.550  0.00  0.00    +0.204 A 
ATOM     16  C   UNL     1      -3.827  -2.663  -6.707  0.00  0.00    +0.165 A 
ATOM     17  C   UNL     1      -4.661  -2.814  -5.606  0.00  0.00    +0.054 A 
ENDROOT
BRANCH   1  26
ATOM     18  C   UNL     1       1.516   0.683  -2.220  0.00  0.00    +0.011 C 
ATOM     19  C   UNL     1       2.086   0.921  -0.808  0.00  0.00    -0.033 C 
ATOM     20  C   UNL     1       1.567  -0.153   0.122  0.00  0.00    +0.028 C 
ATOM     21  C   UNL     1       0.580   0.290   1.190  0.00  0.00    +0.075 C 
ATOM     22  C   UNL     1       1.138   1.601   1.814  0.00  0.00    +0.030 C 
ATOM     23  C   UNL     1       0.811   2.591   0.663  0.00  0.00    -0.014 C 
ATOM     24  C   UNL     1       1.857   2.369  -0.427  0.00  0.00    +0.014 C 
ATOM     25  C   UNL     1      -0.555   2.094   0.132  0.00  0.00    +0.112 C 
ATOM     26  N   UNL     1      -0.703   0.712   0.608  0.00  0.00    -0.323 N 
ATOM     27  C   UNL     1       0.752   4.048   1.144  0.00  0.00    +0.013 C 
ATOM     28  C   UNL     1       3.619   0.719  -0.929  0.00  0.00    +0.011 C 
ENDBRANCH   1  26
BRANCH   9  30
ATOM     29  C   UNL     1      -3.089  -6.271  -1.617  0.00  0.00    -0.100 C 
ATOM     30  N   UNL     1      -2.875  -4.894  -1.131  0.00  0.00    +0.382 N 
ATOM     31  H   UNL     1      -3.478  -4.726  -0.317  0.00  0.00    -0.085 HD
ATOM     32  H   UNL     1      -1.892  -4.780  -0.860  0.00  0.00    -0.085 HD
ENDBRANCH   9  30
BRANCH  16  33
ATOM     33  O   UNL     1      -4.272  -3.005  -7.945  0.00  0.00    -0.491 OA
ATOM     34  C   UNL     1      -5.605  -3.512  -8.038  0.00  0.00    +0.277 C 
ENDBRANCH  16  33
BRANCH  15  35
ATOM     35  O   UNL     1      -1.729  -2.014  -7.633  0.00  0.00    -0.488 OA
ATOM     36  C   UNL     1      -1.848  -0.795  -8.370  0.00  0.00    +0.277 C 
ENDBRANCH  15  35
BRANCH  14  37
ATOM     37  O   UNL     1      -0.823  -1.327  -5.123  0.00  0.00    -0.491 OA
ATOM     38  C   UNL     1       0.233  -2.281  -4.992  0.00  0.00    +0.277 C 
ENDBRANCH  14  37
TORSDOF 5
