REMARK  Name = ZINC36603976
REMARK  20 active torsions:
REMARK  status: ('A' for Active; 'I' for Inactive)
REMARK    1  A    between atoms: C_1  and  C_2
REMARK    2  A    between atoms: C_2  and  C_3
REMARK    3  A    between atoms: C_3  and  C_4
REMARK    4  A    between atoms: C_4  and  C_5
REMARK    5  A    between atoms: N_7  and  C_8
REMARK    6  A    between atoms: N_7  and  C_15
REMARK    7  A    between atoms: C_8  and  C_9
REMARK    8  A    between atoms: C_12  and  C_14
REMARK    9  A    between atoms: C_15  and  C_17
REMARK   10  A    between atoms: C_15  and  C_25
REMARK   11  A    between atoms: C_20  and  O_23
REMARK   12  A    between atoms: O_23  and  C_24
REMARK   13  A    between atoms: N_27  and  C_28
REMARK   14  A    between atoms: C_28  and  C_29
REMARK   15  A    between atoms: C_28  and  C_30
REMARK   16  A    between atoms: C_28  and  C_31
REMARK   17  A    between atoms: C_31  and  C_32
REMARK   18  A    between atoms: C_32  and  C_33
REMARK   19  A    between atoms: C_32  and  C_34
REMARK   20  A    between atoms: C_32  and  C_35
REMARK                            x       y       z     vdW  Elec       q    Type
REMARK                         _______ _______ _______ _____ _____    ______ ____
ROOT
ATOM      1  C   UNL     1      -0.945  -3.909   0.115  0.00  0.00    +0.193 C 
ENDROOT
BRANCH   1   2
ATOM      2  C   UNL     1      -0.879  -4.047  -1.384  0.00  0.00    -0.018 A 
ATOM      3  C   UNL     1      -0.242  -3.080  -2.139  0.00  0.00    +0.009 A 
ATOM      4  C   UNL     1      -0.181  -3.204  -3.514  0.00  0.00    +0.046 A 
ATOM      5  C   UNL     1      -0.760  -4.300  -4.136  0.00  0.00    +0.120 A 
ATOM      6  C   UNL     1      -1.398  -5.270  -3.376  0.00  0.00    +0.046 A 
ATOM      7  C   UNL     1      -1.452  -5.144  -2.002  0.00  0.00    +0.009 A 
BRANCH   5   8
ATOM      8  O   UNL     1      -0.701  -4.424  -5.488  0.00  0.00    -0.495 OA
ATOM      9  C   UNL     1      -1.318  -5.579  -6.061  0.00  0.00    +0.277 C 
ENDBRANCH   5   8
ENDBRANCH   1   2
BRANCH   1  10
ATOM     10  C   UNL     1       0.403  -4.229   0.708  0.00  0.00    +0.239 C 
ATOM     11  O   UNL     1       0.904  -3.476   1.516  0.00  0.00    -0.273 OA
ATOM     12  N   UNL     1       1.052  -5.351   0.341  0.00  0.00    -0.308 N 
ATOM     13  H   UNL     1       0.680  -5.922  -0.350  0.00  0.00    +0.149 HD
BRANCH  12  14
ATOM     14  C   UNL     1       2.318  -5.710   0.985  0.00  0.00    +0.030 C 
ATOM     15  C   UNL     1       3.446  -4.853   0.404  0.00  0.00    +0.031 C 
ATOM     16  C   UNL     1       2.213  -5.461   2.491  0.00  0.00    +0.031 C 
BRANCH  14  17
ATOM     17  C   UNL     1       2.619  -7.188   0.731  0.00  0.00    +0.031 C 
BRANCH  17  18
ATOM     18  C   UNL     1       1.348  -8.011   0.949  0.00  0.00    -0.036 C 
ATOM     19  C   UNL     1       0.448  -7.896  -0.283  0.00  0.00    +0.010 C 
ATOM     20  C   UNL     1       1.722  -9.478   1.172  0.00  0.00    +0.010 C 
ATOM     21  C   UNL     1       0.602  -7.483   2.176  0.00  0.00    +0.010 C 
ENDBRANCH  17  18
ENDBRANCH  14  17
ENDBRANCH  12  14
ENDBRANCH   1  10
BRANCH   1  24
ATOM     22  C   UNL     1      -2.518  -2.048   0.090  0.00  0.00    +0.217 C 
ATOM     23  O   UNL     1      -2.789  -0.884   0.293  0.00  0.00    -0.276 OA
ATOM     24  N   UNL     1      -1.318  -2.536   0.463  0.00  0.00    -0.279 N 
BRANCH  22  25
ATOM     25  C   UNL     1      -3.522  -2.950  -0.580  0.00  0.00    +0.096 C 
BRANCH  25  26
ATOM     26  C   UNL     1      -4.835  -2.191  -0.781  0.00  0.00    +0.009 C 
BRANCH  26  28
ATOM     27  C   UNL     1      -7.168  -2.348  -1.661  0.00  0.00    +0.004 C 
ATOM     28  C   UNL     1      -5.855  -3.107  -1.461  0.00  0.00    -0.003 C 
ENDBRANCH  26  28
ENDBRANCH  25  26
ENDBRANCH  22  25
BRANCH  24  29
ATOM     29  C   UNL     1      -0.387  -1.692   1.217  0.00  0.00    +0.183 C 
BRANCH  29  30
ATOM     30  C   UNL     1      -0.633  -1.868   2.694  0.00  0.00    +0.122 A 
ATOM     31  C   UNL     1       0.069  -2.666   3.518  0.00  0.00    +0.046 A 
ATOM     32  C   UNL     1      -0.499  -2.525   4.806  0.00  0.00    +0.045 A 
ATOM     33  C   UNL     1      -1.514  -1.650   4.691  0.00  0.00    +0.102 A 
ATOM     34  O   UNL     1      -1.587  -1.251   3.410  0.00  0.00    -0.463 OA
ATOM     35  C   UNL     1      -2.413  -1.190   5.809  0.00  0.00    +0.086 C 
ENDBRANCH  29  30
ENDBRANCH  24  29
ENDBRANCH   1  24
TORSDOF 12
