REMARK  Name = ZINC64508631
REMARK  9 active torsions:
REMARK  status: ('A' for Active; 'I' for Inactive)
REMARK    1  A    between atoms: C_1  and  C_2
REMARK    2  A    between atoms: C_3  and  C_8
REMARK    3  A    between atoms: C_4  and  C_7
REMARK    4  A    between atoms: C_8  and  N_9
REMARK    5  A    between atoms: N_9  and  C_10
REMARK    6  A    between atoms: N_9  and  C_11
REMARK    7  A    between atoms: C_11  and  C_12
REMARK    8  A    between atoms: N_14  and  C_15
REMARK    9  A    between atoms: N_18  and  C_21
REMARK                            x       y       z     vdW  Elec       q    Type
REMARK                         _______ _______ _______ _____ _____    ______ ____
ROOT
ATOM      1  C   UNL     1       2.776   0.695  -4.827  0.00  0.00    +0.197 C 
ATOM      2  O   UNL     1       3.702   0.447  -4.085  0.00  0.00    -0.278 OA
ATOM      3  N   UNL     1       3.010   1.232  -6.041  0.00  0.00    -0.314 N 
ATOM      4  H   UNL     1       2.269   1.430  -6.635  0.00  0.00    +0.149 HD
ENDROOT
BRANCH   3   5
ATOM      5  C   UNL     1       4.383   1.516  -6.464  0.00  0.00    +0.069 C 
ATOM      6  C   UNL     1       4.804   2.895  -5.946  0.00  0.00    +0.003 C 
ATOM      7  C   UNL     1       6.209   3.219  -6.457  0.00  0.00    -0.077 C 
ATOM      8  N   UNL     1       6.211   3.225  -7.925  0.00  0.00    +0.382 N 
ATOM      9  C   UNL     1       5.878   1.887  -8.429  0.00  0.00    -0.077 C 
ATOM     10  C   UNL     1       4.460   1.511  -7.993  0.00  0.00    +0.003 C 
ATOM     11  H   UNL     1       5.527   3.888  -8.258  0.00  0.00    -0.081 HD
BRANCH   8  12
ATOM     12  C   UNL     1       7.542   3.612  -8.410  0.00  0.00    -0.069 C 
ATOM     13  C   UNL     1       7.673   4.968  -9.106  0.00  0.00    -0.017 C 
ATOM     14  C   UNL     1       7.750   3.678  -9.925  0.00  0.00    -0.017 C 
ENDBRANCH   8  12
ENDBRANCH   3   5
BRANCH   1  15
ATOM     15  C   UNL     1       1.363   0.403  -4.393  0.00  0.00    +0.019 C 
BRANCH  15  16
ATOM     16  N   UNL     1       1.375  -0.174  -3.042  0.00  0.00    +0.386 N 
ATOM     17  C   UNL     1       2.050  -1.478  -3.073  0.00  0.00    -0.095 C 
ATOM     18  H   UNL     1       1.869   0.445  -2.416  0.00  0.00    -0.081 HD
BRANCH  16  19
ATOM     19  C   UNL     1      -0.005  -0.348  -2.571  0.00  0.00    -0.037 C 
BRANCH  19  22
ATOM     20  C   UNL     1      -0.018   1.503   0.010  0.00  0.00    +0.069 C 
ATOM     21  C   UNL     1       0.002  -0.004   0.002  0.00  0.00    +0.082 A 
ATOM     22  C   UNL     1       0.008  -0.824  -1.141  0.00  0.00    +0.001 A 
ATOM     23  C   UNL     1       0.027  -2.108  -0.735  0.00  0.00    +0.136 A 
ATOM     24  O   UNL     1       0.034  -2.119   0.606  0.00  0.00    -0.359 OA
ATOM     25  N   UNL     1       0.023  -0.775   1.052  0.00  0.00    -0.083 NA
ATOM     26  C   UNL     1       0.039  -3.320  -1.631  0.00  0.00    +0.089 C 
ENDBRANCH  19  22
ENDBRANCH  16  19
ENDBRANCH  15  16
ENDBRANCH   1  15
TORSDOF 6
