REMARK  Name = ZINC31301605
REMARK  10 active torsions:
REMARK  status: ('A' for Active; 'I' for Inactive)
REMARK    1  A    between atoms: C_1  and  C_2
REMARK    2  A    between atoms: C_6  and  N_9
REMARK    3  A    between atoms: C_7  and  C_8
REMARK    4  A    between atoms: C_10  and  C_12
REMARK    5  A    between atoms: C_12  and  N_13
REMARK    6  A    between atoms: N_13  and  C_14
REMARK    7  A    between atoms: N_13  and  C_15
REMARK    8  A    between atoms: C_15  and  C_16
REMARK    9  A    between atoms: N_18  and  C_19
REMARK   10  A    between atoms: C_21  and  C_26
REMARK                            x       y       z     vdW  Elec       q    Type
REMARK                         _______ _______ _______ _____ _____    ______ ____
ROOT
ATOM      1  C   UNL     1      -1.584   1.673  -0.842  0.00  0.00    +0.201 C 
ATOM      2  O   UNL     1      -2.555   0.948  -0.793  0.00  0.00    -0.278 OA
ATOM      3  N   UNL     1      -0.360   1.181  -0.567  0.00  0.00    -0.285 N 
ATOM      4  H   UNL     1       0.507   1.856  -0.523  0.00  0.00    +0.155 HD
ENDROOT
BRANCH   3   5
ATOM      5  C   UNL     1      -0.193  -0.191  -0.338  0.00  0.00    +0.070 A 
ATOM      6  C   UNL     1      -1.098  -1.097  -0.864  0.00  0.00    +0.037 A 
ATOM      7  C   UNL     1      -0.924  -2.462  -0.638  0.00  0.00    +0.021 A 
ATOM      8  C   UNL     1       0.155  -2.907   0.127  0.00  0.00    +0.014 A 
ATOM      9  C   UNL     1       1.049  -1.998   0.653  0.00  0.00    +0.041 A 
ATOM     10  C   UNL     1       0.881  -0.643   0.424  0.00  0.00    +0.145 A 
ATOM     11  F   UNL     1       1.760   0.242   0.942  0.00  0.00    -0.204 F 
BRANCH   7  12
ATOM     12  C   UNL     1      -1.885  -3.436  -1.203  0.00  0.00    +0.164 A 
ATOM     13  N   UNL     1      -3.100  -3.178  -1.636  0.00  0.00    -0.129 NA
ATOM     14  N   UNL     1      -3.647  -4.260  -2.067  0.00  0.00    -0.134 NA
ATOM     15  C   UNL     1      -2.822  -5.260  -1.930  0.00  0.00    +0.134 A 
ATOM     16  N   UNL     1      -1.683  -4.775  -1.369  0.00  0.00    -0.311 N 
ATOM     17  C   UNL     1      -0.492  -5.545  -1.009  0.00  0.00    +0.125 C 
ATOM     18  C   UNL     1      -0.382  -6.766  -1.927  0.00  0.00    +0.022 C 
ATOM     19  C   UNL     1      -1.142  -7.942  -1.315  0.00  0.00    +0.002 C 
ATOM     20  C   UNL     1      -2.623  -7.607  -1.171  0.00  0.00    +0.008 C 
ATOM     21  C   UNL     1      -3.059  -6.696  -2.322  0.00  0.00    +0.076 C 
ENDBRANCH   7  12
ENDBRANCH   3   5
BRANCH   1  22
ATOM     22  C   UNL     1      -1.746   3.126  -1.209  0.00  0.00    +0.019 C 
BRANCH  22  23
ATOM     23  N   UNL     1      -3.165   3.412  -1.459  0.00  0.00    +0.389 N 
ATOM     24  C   UNL     1      -3.645   2.695  -2.648  0.00  0.00    -0.095 C 
ATOM     25  H   UNL     1      -3.741   3.053  -0.593  0.00  0.00    -0.081 HD
BRANCH  23  26
ATOM     26  C   UNL     1      -3.397   4.857  -1.587  0.00  0.00    +0.019 C 
BRANCH  26  28
ATOM     27  N   UNL     1      -5.330   6.395  -1.705  0.00  0.00    -0.287 N 
ATOM     28  C   UNL     1      -4.879   5.130  -1.596  0.00  0.00    +0.201 C 
ATOM     29  O   UNL     1      -5.665   4.211  -1.506  0.00  0.00    -0.278 OA
ATOM     30  H   UNL     1      -4.620   7.235  -1.697  0.00  0.00    +0.155 HD
BRANCH  27  36
ATOM     31  C   UNL     1      -9.155   9.432  -1.140  0.00  0.00    +0.044 C 
ATOM     32  C   UNL     1      -8.584   8.103  -1.562  0.00  0.00    -0.046 A 
ATOM     33  C   UNL     1      -9.416   7.124  -2.073  0.00  0.00    +0.004 A 
ATOM     34  C   UNL     1      -8.895   5.903  -2.462  0.00  0.00    +0.002 A 
ATOM     35  C   UNL     1      -7.541   5.658  -2.341  0.00  0.00    +0.023 A 
ATOM     36  C   UNL     1      -6.703   6.640  -1.829  0.00  0.00    +0.036 A 
ATOM     37  C   UNL     1      -7.230   7.862  -1.434  0.00  0.00    -0.026 A 
ATOM     38  C   UNL     1      -6.324   8.928  -0.871  0.00  0.00    +0.046 C 
ENDBRANCH  27  36
ENDBRANCH  26  28
ENDBRANCH  23  26
ENDBRANCH  22  23
ENDBRANCH   1  22
TORSDOF 7
