REMARK  Name = ZINC11416346
REMARK  11 active torsions:
REMARK  status: ('A' for Active; 'I' for Inactive)
REMARK    1  A    between atoms: C_1  and  C_2
REMARK    2  A    between atoms: C_5  and  C_35
REMARK    3  A    between atoms: C_6  and  N_8
REMARK    4  A    between atoms: C_9  and  C_11
REMARK    5  A    between atoms: C_11  and  C_13
REMARK    6  A    between atoms: C_11  and  S_14
REMARK    7  A    between atoms: S_14  and  C_15
REMARK    8  A    between atoms: C_18  and  C_27
REMARK    9  A    between atoms: N_19  and  C_20
REMARK   10  A    between atoms: C_27  and  C_29
REMARK   11  A    between atoms: C_27  and  N_66
REMARK                            x       y       z     vdW  Elec       q    Type
REMARK                         _______ _______ _______ _____ _____    ______ ____
ROOT
ATOM      1  C   UNL     1       0.964   0.196  -7.488  0.00  0.00    +0.197 A 
ATOM      2  N   UNL     1       0.620   1.463  -7.454  0.00  0.00    -0.122 NA
ATOM      3  N   UNL     1       0.852   2.010  -8.593  0.00  0.00    -0.135 NA
ATOM      4  C   UNL     1       1.344   1.133  -9.421  0.00  0.00    +0.125 A 
ATOM      5  N   UNL     1       1.434  -0.056  -8.748  0.00  0.00    -0.275 N 
ENDROOT
BRANCH   5   6
ATOM      6  C   UNL     1       1.910  -1.279  -9.246  0.00  0.00    +0.050 A 
ATOM      7  C   UNL     1       3.239  -1.406  -9.623  0.00  0.00    +0.029 A 
ATOM      8  C   UNL     1       3.707  -2.611 -10.108  0.00  0.00    +0.040 A 
ATOM      9  C   UNL     1       2.847  -3.691 -10.228  0.00  0.00    +0.124 A 
ATOM     10  C   UNL     1       1.519  -3.564  -9.857  0.00  0.00    +0.040 A 
ATOM     11  C   UNL     1       1.050  -2.362  -9.366  0.00  0.00    +0.029 A 
ATOM     12  F   UNL     1       3.305  -4.868 -10.708  0.00  0.00    -0.205 F 
ENDBRANCH   5   6
BRANCH   4  13
ATOM     13  C   UNL     1       1.741   1.380 -10.854  0.00  0.00    -0.002 C 
ATOM     14  C   UNL     1       0.486   1.609 -11.698  0.00  0.00    -0.005 C 
BRANCH  13  20
ATOM     15  C   UNL     1       3.026   2.829 -12.307  0.00  0.00    -0.078 C 
ATOM     16  C   UNL     1       3.798   4.149 -12.364  0.00  0.00    -0.019 C 
ATOM     17  C   UNL     1       5.019   4.061 -11.445  0.00  0.00    -0.004 C 
ATOM     18  C   UNL     1       4.555   3.740 -10.021  0.00  0.00    -0.019 C 
ATOM     19  C   UNL     1       3.761   2.432 -10.032  0.00  0.00    -0.078 C 
ATOM     20  N   UNL     1       2.586   2.591 -10.915  0.00  0.00    +0.386 N 
ATOM     21  H   UNL     1       2.036   3.397 -10.597  0.00  0.00    -0.081 HD
ENDBRANCH  13  20
ENDBRANCH   4  13
BRANCH   1  22
ATOM     22  S   UNL     1       0.837  -0.960  -6.165  0.00  0.00    -0.073 S 
BRANCH  22  23
ATOM     23  C   UNL     1       0.147   0.109  -4.878  0.00  0.00    +0.137 C 
ATOM     24  C   UNL     1      -1.252   0.568  -5.292  0.00  0.00    +0.029 C 
BRANCH  23  26
ATOM     25  N   UNL     1      -0.030   0.008  -2.413  0.00  0.00    -0.284 N 
ATOM     26  C   UNL     1       0.062  -0.656  -3.582  0.00  0.00    +0.230 C 
ATOM     27  O   UNL     1       0.075  -1.869  -3.592  0.00  0.00    -0.274 OA
ATOM     28  H   UNL     1      -0.122   0.974  -2.409  0.00  0.00    +0.155 HD
BRANCH  25  34
ATOM     29  C   UNL     1       1.331  -3.978   0.123  0.00  0.00    +0.044 C 
ATOM     30  C   UNL     1       0.661  -2.630   0.053  0.00  0.00    -0.049 A 
ATOM     31  C   UNL     1       0.076  -2.091   1.185  0.00  0.00    +0.004 A 
ATOM     32  C   UNL     1      -0.541  -0.855   1.125  0.00  0.00    +0.005 A 
ATOM     33  C   UNL     1      -0.574  -0.155  -0.065  0.00  0.00    -0.029 A 
ATOM     34  C   UNL     1       0.008  -0.696  -1.204  0.00  0.00    +0.037 A 
ATOM     35  C   UNL     1       0.631  -1.935  -1.139  0.00  0.00    +0.027 A 
ATOM     36  C   UNL     1      -1.247   1.192  -0.130  0.00  0.00    +0.045 C 
ENDBRANCH  25  34
ENDBRANCH  23  26
ENDBRANCH  22  23
ENDBRANCH   1  22
TORSDOF 7
