REMARK  Name = ZINC38918067
REMARK  7 active torsions:
REMARK  status: ('A' for Active; 'I' for Inactive)
REMARK    1  A    between atoms: C_1  and  C_2
REMARK    2  A    between atoms: C_2  and  O_3
REMARK    3  A    between atoms: O_3  and  C_4
REMARK    4  A    between atoms: C_8  and  C_11
REMARK    5  A    between atoms: C_9  and  O_10
REMARK    6  A    between atoms: N_12  and  N_13
REMARK    7  A    between atoms: C_14  and  C_20
REMARK                            x       y       z     vdW  Elec       q    Type
REMARK                         _______ _______ _______ _____ _____    ______ ____
ROOT
ATOM      1  N   UNL     1       3.446  -4.006  -5.761  0.00  0.00    -0.172 N 
ATOM      2  C   UNL     1       4.178  -3.265  -6.805  0.00  0.00    +0.264 C 
ATOM      3  N   UNL     1       4.755  -4.322  -7.649  0.00  0.00    -0.189 NA
ATOM      4  N   UNL     1       4.418  -5.413  -7.181  0.00  0.00    -0.219 N 
ATOM      5  C   UNL     1       3.650  -5.307  -6.063  0.00  0.00    +0.174 C 
ATOM      6  S   UNL     1       3.029  -6.630  -5.171  0.00  0.00    -0.015 S 
ATOM      7  H   UNL     1       4.679  -6.263  -7.569  0.00  0.00    +0.176 HD
ENDROOT
BRANCH   2   8
ATOM      8  C   UNL     1       3.235  -2.402  -7.602  0.00  0.00    +0.001 A 
ATOM      9  C   UNL     1       2.092  -1.874  -7.021  0.00  0.00    +0.025 A 
ATOM     10  C   UNL     1       1.250  -1.088  -7.783  0.00  0.00    +0.083 A 
ATOM     11  N   UNL     1       1.522  -0.838  -9.049  0.00  0.00    -0.367 N 
ATOM     12  C   UNL     1       2.599  -1.323  -9.635  0.00  0.00    +0.083 A 
ATOM     13  C   UNL     1       3.491  -2.113  -8.934  0.00  0.00    +0.025 A 
ATOM     14  H   UNL     1       0.914  -0.283  -9.563  0.00  0.00    +0.165 HD
ENDBRANCH   2   8
BRANCH   1  16
ATOM     15  C   UNL     1       2.219  -4.272  -3.788  0.00  0.00    +0.142 C 
ATOM     16  N   UNL     1       2.709  -3.479  -4.693  0.00  0.00    -0.183 NA
BRANCH  15  21
ATOM     17  C   UNL     1       0.781  -1.807  -1.336  0.00  0.00    +0.162 A 
ATOM     18  C   UNL     1       0.261  -2.662  -0.377  0.00  0.00    +0.049 A 
ATOM     19  C   UNL     1       0.378  -4.033  -0.526  0.00  0.00    +0.004 A 
ATOM     20  C   UNL     1       1.012  -4.562  -1.631  0.00  0.00    +0.013 A 
ATOM     21  C   UNL     1       1.540  -3.712  -2.606  0.00  0.00    +0.040 A 
ATOM     22  C   UNL     1       1.418  -2.325  -2.457  0.00  0.00    +0.167 A 
BRANCH  22  23
ATOM     23  O   UNL     1       1.924  -1.489  -3.402  0.00  0.00    -0.503 OA
ATOM     24  H   UNL     1       2.842  -1.228  -3.246  0.00  0.00    +0.292 HD
ENDBRANCH  22  23
BRANCH  17  25
ATOM     25  O   UNL     1       0.663  -0.461  -1.182  0.00  0.00    -0.489 OA
BRANCH  25  27
ATOM     26  C   UNL     1      -0.039   1.531  -0.008  0.00  0.00    +0.048 C 
ATOM     27  C   UNL     1      -0.003   0.002  -0.005  0.00  0.00    +0.226 C 
ENDBRANCH  25  27
ENDBRANCH  17  25
ENDBRANCH  15  21
ENDBRANCH   1  16
TORSDOF 6
