REMARK  Name = ZINC13252312
REMARK  7 active torsions:
REMARK  status: ('A' for Active; 'I' for Inactive)
REMARK    1  A    between atoms: C_6  and  N_7
REMARK    2  A    between atoms: N_7  and  S_8
REMARK    3  A    between atoms: S_8  and  C_11
REMARK    4  A    between atoms: C_13  and  N_18
REMARK    5  A    between atoms: C_19  and  C_21
REMARK    6  A    between atoms: C_21  and  C_22
REMARK    7  A    between atoms: C_22  and  C_29
REMARK                            x       y       z     vdW  Elec       q    Type
REMARK                         _______ _______ _______ _____ _____    ______ ____
ROOT
ATOM      1  C   UNL     1      -2.913  -3.133   0.197  0.00  0.00    +0.130 A 
ATOM      2  C   UNL     1      -3.395  -3.911  -0.837  0.00  0.00    +0.053 A 
ATOM      3  C   UNL     1      -4.741  -3.862  -1.173  0.00  0.00    +0.035 A 
ATOM      4  C   UNL     1      -5.600  -3.029  -0.468  0.00  0.00    +0.025 A 
ATOM      5  C   UNL     1      -5.114  -2.252   0.565  0.00  0.00    +0.024 A 
ATOM      6  C   UNL     1      -3.772  -2.308   0.902  0.00  0.00    +0.068 A 
ATOM      7 CL   UNL     1      -3.165  -1.336   2.206  0.00  0.00    -0.082 Cl
ENDROOT
BRANCH   3   8
ATOM      8  N   UNL     1      -5.232  -4.649  -2.221  0.00  0.00    -0.285 N 
ATOM      9  C   UNL     1      -6.470  -5.177  -2.144  0.00  0.00    +0.218 C 
ATOM     10  O   UNL     1      -7.188  -4.906  -1.205  0.00  0.00    -0.275 OA
ATOM     11  H   UNL     1      -4.681  -4.816  -3.002  0.00  0.00    +0.155 HD
BRANCH   9  12
ATOM     12  C   UNL     1      -6.962  -6.104  -3.226  0.00  0.00    +0.114 C 
BRANCH  12  13
ATOM     13  C   UNL     1      -8.434  -6.441  -2.979  0.00  0.00    +0.080 C 
ATOM     14  C   UNL     1      -9.003  -7.137  -4.230  0.00  0.00    +0.019 C 
ATOM     15  C   UNL     1      -8.613  -8.624  -4.315  0.00  0.00    +0.001 C 
ATOM     16  C   UNL     1      -7.178  -8.867  -3.930  0.00  0.00    +0.000 C 
ATOM     17  C   UNL     1      -7.128  -9.235  -2.433  0.00  0.00    +0.000 C 
ATOM     18  C   UNL     1      -7.210  -8.065  -1.571  0.00  0.00    +0.001 C 
ATOM     19  C   UNL     1      -8.537  -7.297  -1.746  0.00  0.00    +0.019 C 
BRANCH  13  20
ATOM     20  C   UNL     1      -9.194  -5.160  -2.747  0.00  0.00    +0.362 C 
ATOM     21  O   UNL     1      -9.222  -4.302  -3.613  0.00  0.00    -0.246 OA
ATOM     22  O   UNL     1      -9.782  -4.982  -1.694  0.00  0.00    -0.246 OA
ENDBRANCH  13  20
ENDBRANCH  12  13
ENDBRANCH   9  12
ENDBRANCH   3   8
BRANCH   1  23
ATOM     23  S   UNL     1      -1.205  -3.195   0.624  0.00  0.00    +0.093 S 
ATOM     24  O   UNL     1      -0.592  -4.098  -0.285  0.00  0.00    -0.148 OA
ATOM     25  O   UNL     1      -1.145  -3.374   2.033  0.00  0.00    -0.148 OA
BRANCH  23  26
ATOM     26  N   UNL     1      -0.567  -1.700   0.309  0.00  0.00    -0.098 NA
BRANCH  26  32
ATOM     27  C   UNL     1       1.324  -0.199   0.290  0.00  0.00    +0.028 A 
ATOM     28  C   UNL     1       2.661   0.043   0.534  0.00  0.00    +0.022 A 
ATOM     29  C   UNL     1       3.467  -0.962   1.040  0.00  0.00    +0.041 A 
ATOM     30  C   UNL     1       2.934  -2.212   1.304  0.00  0.00    +0.022 A 
ATOM     31  C   UNL     1       1.597  -2.459   1.062  0.00  0.00    +0.028 A 
ATOM     32  C   UNL     1       0.787  -1.452   0.554  0.00  0.00    +0.074 A 
ATOM     33 CL   UNL     1       5.148  -0.654   1.345  0.00  0.00    -0.084 Cl
ENDBRANCH  26  32
ENDBRANCH  23  26
ENDBRANCH   1  23
TORSDOF 7
