REMARK  Name = ZINC04430765
REMARK  11 active torsions:
REMARK  status: ('A' for Active; 'I' for Inactive)
REMARK    1  A    between atoms: N_9  and  C_20
REMARK    2  A    between atoms: C_20  and  C_21
REMARK    3  A    between atoms: C_21  and  C_23
REMARK    4  A    between atoms: C_21  and  O_34
REMARK    5  A    between atoms: C_23  and  C_25
REMARK    6  A    between atoms: C_23  and  O_33
REMARK    7  A    between atoms: C_25  and  C_27
REMARK    8  A    between atoms: C_25  and  O_32
REMARK    9  A    between atoms: C_27  and  C_29
REMARK   10  A    between atoms: C_27  and  O_31
REMARK   11  A    between atoms: C_29  and  O_30
REMARK                            x       y       z     vdW  Elec       q    Type
REMARK                         _______ _______ _______ _____ _____    ______ ____
ROOT
ATOM      1  C   UNL     1      -7.706   1.643  -1.339  0.00  0.00    +0.051 A 
ATOM      2  C   UNL     1      -6.622   0.995  -1.964  0.00  0.00    +0.090 A 
ATOM      3  C   UNL     1      -5.338   1.584  -1.908  0.00  0.00    +0.071 A 
ATOM      4  C   UNL     1      -5.164   2.792  -1.239  0.00  0.00    +0.049 A 
ATOM      5  C   UNL     1      -6.242   3.405  -0.636  0.00  0.00    +0.061 A 
ATOM      6  C   UNL     1      -7.509   2.825  -0.690  0.00  0.00    +0.061 A 
ATOM      7 CL   UNL     1      -8.849   3.617   0.077  0.00  0.00    -0.082 Cl
ATOM      8 CL   UNL     1      -6.020   4.911   0.197  0.00  0.00    -0.082 Cl
ATOM      9  N   UNL     1      -4.263   0.968  -2.512  0.00  0.00    -0.319 N 
ATOM     10  C   UNL     1      -4.470  -0.211  -3.164  0.00  0.00    +0.170 A 
ATOM     11  N   UNL     1      -3.492  -0.868  -3.764  0.00  0.00    -0.173 NA
ATOM     12  C   UNL     1      -3.710  -2.021  -4.391  0.00  0.00    +0.351 A 
ATOM     13  O   UNL     1      -2.762  -2.569  -4.926  0.00  0.00    -0.245 OA
ATOM     14  N   UNL     1      -4.908  -2.617  -4.470  0.00  0.00    -0.272 N 
ATOM     15  H   UNL     1      -4.992  -3.485  -4.960  0.00  0.00    +0.174 HD
ATOM     16  C   UNL     1      -6.005  -2.068  -3.900  0.00  0.00    +0.282 A 
ATOM     17  O   UNL     1      -7.093  -2.607  -3.971  0.00  0.00    -0.265 OA
ATOM     18  C   UNL     1      -5.826  -0.784  -3.187  0.00  0.00    +0.171 A 
ATOM     19  N   UNL     1      -6.819  -0.167  -2.601  0.00  0.00    -0.237 NA
ENDROOT
BRANCH   9  20
ATOM     20  C   UNL     1      -2.928   1.570  -2.460  0.00  0.00    +0.158 C 
BRANCH  20  21
ATOM     21  C   UNL     1      -2.188   1.063  -1.221  0.00  0.00    +0.165 C 
BRANCH  21  22
ATOM     22  O   UNL     1      -2.857   1.524  -0.045  0.00  0.00    -0.387 OA
ATOM     23  H   UNL     1      -2.908   2.487   0.027  0.00  0.00    +0.210 HD
ENDBRANCH  21  22
BRANCH  21  24
ATOM     24  C   UNL     1      -0.753   1.593  -1.232  0.00  0.00    +0.176 C 
BRANCH  24  25
ATOM     25  O   UNL     1      -0.084   1.132  -2.407  0.00  0.00    -0.387 OA
ATOM     26  H   UNL     1      -0.033   0.169  -2.479  0.00  0.00    +0.210 HD
ENDBRANCH  24  25
BRANCH  24  27
ATOM     27  C   UNL     1      -0.013   1.086   0.008  0.00  0.00    +0.176 C 
BRANCH  27  28
ATOM     28  O   UNL     1      -0.682   1.547   1.184  0.00  0.00    -0.386 OA
ATOM     29  H   UNL     1      -0.732   2.510   1.256  0.00  0.00    +0.210 HD
ENDBRANCH  27  28
BRANCH  27  30
ATOM     30  C   UNL     1       1.423   1.615  -0.003  0.00  0.00    +0.171 C 
BRANCH  30  31
ATOM     31  O   UNL     1       2.091   1.155  -1.179  0.00  0.00    -0.387 OA
ATOM     32  H   UNL     1       2.142   0.192  -1.250  0.00  0.00    +0.210 HD
ENDBRANCH  30  31
BRANCH  30  33
ATOM     33  C   UNL     1       2.163   1.109   1.237  0.00  0.00    +0.189 C 
BRANCH  33  34
ATOM     34  O   UNL     1       3.464   1.696   1.288  0.00  0.00    -0.392 OA
ATOM     35  H   UNL     1       3.991   1.419   2.050  0.00  0.00    +0.210 HD
ENDBRANCH  33  34
ENDBRANCH  30  33
ENDBRANCH  27  30
ENDBRANCH  24  27
ENDBRANCH  21  24
ENDBRANCH  20  21
ENDBRANCH   9  20
TORSDOF 11
