REMARK  Name = ZINC47561560
REMARK  5 active torsions:
REMARK  status: ('A' for Active; 'I' for Inactive)
REMARK    1  A    between atoms: C_1  and  C_2
REMARK    2  A    between atoms: C_2  and  N_3
REMARK    3  A    between atoms: C_4  and  C_6
REMARK    4  A    between atoms: C_9  and  N_12
REMARK    5  A    between atoms: N_18  and  C_21
REMARK                            x       y       z     vdW  Elec       q    Type
REMARK                         _______ _______ _______ _____ _____    ______ ____
ROOT
ATOM      1  N   UNL     1       3.413  -3.624  -6.101  0.00  0.00    -0.269 N 
ATOM      2  C   UNL     1       3.692  -4.935  -6.241  0.00  0.00    +0.307 C 
ATOM      3  O   UNL     1       3.296  -5.733  -5.414  0.00  0.00    -0.252 OA
ATOM      4  N   UNL     1       4.411  -5.362  -7.298  0.00  0.00    -0.282 N 
ATOM      5  C   UNL     1       5.054  -4.399  -8.203  0.00  0.00    +0.128 C 
ATOM      6  C   UNL     1       6.551  -4.724  -8.281  0.00  0.00    +0.124 C 
ATOM      7  N   UNL     1       6.706  -6.160  -8.550  0.00  0.00    -0.325 N 
ATOM      8  C   UNL     1       6.063  -7.123  -7.645  0.00  0.00    +0.124 C 
ATOM      9  C   UNL     1       4.571  -6.799  -7.563  0.00  0.00    +0.128 C 
ATOM     10  H   UNL     1       3.612  -3.006  -6.821  0.00  0.00    +0.156 HD
ENDROOT
BRANCH   7  11
ATOM     11  C   UNL     1       7.452  -6.603  -9.647  0.00  0.00    +0.065 A 
ATOM     12  C   UNL     1       8.812  -6.849  -9.510  0.00  0.00    +0.026 A 
ATOM     13  C   UNL     1       9.546  -7.286 -10.595  0.00  0.00    +0.002 A 
ATOM     14  C   UNL     1       8.929  -7.480 -11.818  0.00  0.00    +0.003 A 
ATOM     15  C   UNL     1       7.575  -7.236 -11.959  0.00  0.00    +0.040 A 
ATOM     16  C   UNL     1       6.832  -6.803 -10.876  0.00  0.00    +0.144 A 
ATOM     17  F   UNL     1       5.509  -6.571 -11.012  0.00  0.00    -0.204 F 
ENDBRANCH   7  11
BRANCH   1  21
ATOM     18  C   UNL     1       1.694  -2.227  -2.574  0.00  0.00    +0.037 A 
ATOM     19  C   UNL     1       2.408  -1.353  -3.398  0.00  0.00    +0.015 A 
ATOM     20  C   UNL     1       2.975  -1.819  -4.563  0.00  0.00    +0.024 A 
ATOM     21  C   UNL     1       2.837  -3.156  -4.920  0.00  0.00    +0.035 A 
ATOM     22  C   UNL     1       2.126  -4.028  -4.102  0.00  0.00    +0.024 A 
ATOM     23  C   UNL     1       1.562  -3.571  -2.933  0.00  0.00    +0.015 A 
BRANCH  18  25
ATOM     24  N   UNL     1       1.213  -0.435  -0.979  0.00  0.00    -0.312 N 
ATOM     25  C   UNL     1       1.085  -1.732  -1.324  0.00  0.00    +0.244 C 
ATOM     26  O   UNL     1       0.468  -2.493  -0.605  0.00  0.00    -0.270 OA
ATOM     27  H   UNL     1       1.705   0.173  -1.553  0.00  0.00    +0.149 HD
BRANCH  24  29
ATOM     28  C   UNL     1       0.900   1.551   0.414  0.00  0.00    +0.024 C 
ATOM     29  C   UNL     1       0.609   0.057   0.262  0.00  0.00    +0.101 C 
ENDBRANCH  24  29
ENDBRANCH  18  25
ENDBRANCH   1  21
TORSDOF 4
