REMARK  Name = ZINC06157762
REMARK  4 active torsions:
REMARK  status: ('A' for Active; 'I' for Inactive)
REMARK    1  A    between atoms: C_3  and  C_10
REMARK    2  A    between atoms: C_5  and  N_7
REMARK    3  A    between atoms: C_10  and  N_12
REMARK    4  A    between atoms: N_14  and  C_25
REMARK                            x       y       z     vdW  Elec       q    Type
REMARK                         _______ _______ _______ _____ _____    ______ ____
ROOT
ATOM      1  N   UNL     1       3.800   3.394  -0.757  0.00  0.00    -0.155 NA
ATOM      2  C   UNL     1       4.811   4.114  -0.292  0.00  0.00    +0.154 C 
ATOM      3  N   UNL     1       6.058   3.678   0.074  0.00  0.00    -0.276 N 
ATOM      4  C   UNL     1       7.122   4.641   0.201  0.00  0.00    +0.116 C 
ATOM      5  C   UNL     1       8.394   4.264  -0.563  0.00  0.00    +0.190 C 
ATOM      6  S   UNL     1       8.305   5.346  -2.044  0.00  0.00    -0.028 S 
ATOM      7  O   UNL     1       9.548   6.017  -2.199  0.00  0.00    -0.174 OA
ATOM      8  O   UNL     1       7.776   4.598  -3.130  0.00  0.00    -0.174 OA
ATOM      9  C   UNL     1       7.043   6.555  -1.485  0.00  0.00    +0.182 C 
ATOM     10  C   UNL     1       6.695   6.093  -0.068  0.00  0.00    +0.097 C 
ATOM     11  S   UNL     1       4.861   5.878  -0.004  0.00  0.00    -0.086 S 
ENDROOT
BRANCH   3  12
ATOM     12  C   UNL     1       6.294   2.321   0.319  0.00  0.00    +0.036 A 
ATOM     13  C   UNL     1       7.018   1.565  -0.594  0.00  0.00    +0.024 A 
ATOM     14  C   UNL     1       7.250   0.226  -0.349  0.00  0.00    +0.017 A 
ATOM     15  C   UNL     1       6.761  -0.363   0.804  0.00  0.00    +0.018 A 
ATOM     16  C   UNL     1       6.039   0.388   1.715  0.00  0.00    +0.017 A 
ATOM     17  C   UNL     1       5.810   1.729   1.478  0.00  0.00    +0.024 A 
ATOM     18 BR   UNL     1       7.080  -2.197   1.135  0.00  0.00    -0.050 Br
ENDBRANCH   3  12
BRANCH   1  19
ATOM     19  C   UNL     1       3.985   2.105  -1.069  0.00  0.00    +0.269 C 
ATOM     20  O   UNL     1       4.837   1.791  -1.881  0.00  0.00    -0.268 OA
BRANCH  19  23
ATOM     21  C   UNL     1       1.405   0.441   1.097  0.00  0.00    +0.003 A 
ATOM     22  C   UNL     1       2.177   1.418   0.503  0.00  0.00    +0.013 A 
ATOM     23  C   UNL     1       3.153   1.061  -0.427  0.00  0.00    +0.041 A 
ATOM     24  C   UNL     1       3.343  -0.282  -0.751  0.00  0.00    +0.045 A 
ATOM     25  C   UNL     1       2.565  -1.250  -0.150  0.00  0.00    +0.127 A 
ATOM     26  C   UNL     1       1.598  -0.890   0.772  0.00  0.00    +0.033 A 
BRANCH  25  27
ATOM     27  N   UNL     1       2.764  -2.676  -0.492  0.00  0.00    +0.056 N 
ATOM     28  O   UNL     1       3.609  -2.992  -1.298  0.00  0.00    -0.126 OA
ATOM     29  O   UNL     1       2.083  -3.525   0.034  0.00  0.00    -0.126 OA
ENDBRANCH  25  27
ENDBRANCH  19  23
ENDBRANCH   1  19
TORSDOF 4
