REMARK  Name = ZINC65791238
REMARK  3 active torsions:
REMARK  status: ('A' for Active; 'I' for Inactive)
REMARK    1  A    between atoms: N_10  and  C_11
REMARK    2  A    between atoms: C_11  and  C_13
REMARK    3  A    between atoms: C_13  and  C_19
REMARK                            x       y       z     vdW  Elec       q    Type
REMARK                         _______ _______ _______ _____ _____    ______ ____
ROOT
ATOM      1  C   UNL     1       7.141  -1.110  -0.075  0.00  0.00    +0.079 C 
ATOM      2  C   UNL     1       7.260  -0.327  -1.386  0.00  0.00    +0.049 C 
ATOM      3  C   UNL     1       7.023  -1.276  -2.563  0.00  0.00    +0.161 C 
ATOM      4  O   UNL     1       7.964  -2.350  -2.504  0.00  0.00    -0.380 OA
ATOM      5  C   UNL     1       7.868  -3.147  -1.321  0.00  0.00    +0.161 C 
ATOM      6  C   UNL     1       8.139  -2.272  -0.095  0.00  0.00    +0.049 C 
ENDROOT
BRANCH   1   7
ATOM      7  C   UNL     1       7.447  -0.201   1.087  0.00  0.00    -0.014 A 
ATOM      8  C   UNL     1       7.856   1.100   0.859  0.00  0.00    +0.007 A 
ATOM      9  C   UNL     1       8.137   1.933   1.924  0.00  0.00    +0.020 A 
ATOM     10  C   UNL     1       8.010   1.467   3.221  0.00  0.00    +0.042 A 
ATOM     11  C   UNL     1       7.601   0.166   3.450  0.00  0.00    +0.040 A 
ATOM     12  C   UNL     1       7.315  -0.667   2.383  0.00  0.00    +0.047 A 
ATOM     13 CL   UNL     1       6.796  -2.299   2.670  0.00  0.00    -0.083 Cl
ATOM     14 CL   UNL     1       8.364   2.514   4.559  0.00  0.00    -0.083 Cl
ENDBRANCH   1   7
BRANCH   1  15
ATOM     15  C   UNL     1       5.741  -1.650   0.063  0.00  0.00    +0.250 C 
ATOM     16  O   UNL     1       5.563  -2.841   0.239  0.00  0.00    -0.273 OA
BRANCH  15  26
ATOM     17  C   UNL     1      -0.278   0.386   0.043  0.00  0.00    +0.005 A 
ATOM     18  C   UNL     1       0.825   1.247  -0.127  0.00  0.00    +0.018 A 
ATOM     19  C   UNL     1       2.079   0.761  -0.114  0.00  0.00    +0.096 A 
ATOM     20  N   UNL     1       2.309  -0.580   0.065  0.00  0.00    -0.271 N 
ATOM     21  C   UNL     1       1.249  -1.447   0.234  0.00  0.00    +0.160 A 
ATOM     22  C   UNL     1      -0.075  -0.943   0.221  0.00  0.00    +0.048 A 
ATOM     23  N   UNL     1       1.725  -2.663   0.384  0.00  0.00    -0.153 NA
ATOM     24  N   UNL     1       3.123  -2.596   0.312  0.00  0.00    -0.246 N 
ATOM     25  C   UNL     1       3.461  -1.308   0.116  0.00  0.00    +0.222 A 
ATOM     26  N   UNL     1       4.703  -0.828  -0.007  0.00  0.00    -0.145 NA
ATOM     27  H   UNL     1       3.736  -3.343   0.391  0.00  0.00    +0.192 HD
ENDBRANCH  15  26
ENDBRANCH   1  15
TORSDOF 3
