REMARK  Name = ZINC65789182
REMARK  9 active torsions:
REMARK  status: ('A' for Active; 'I' for Inactive)
REMARK    1  A    between atoms: C_1  and  C_2
REMARK    2  A    between atoms: C_3  and  C_8
REMARK    3  A    between atoms: C_4  and  C_7
REMARK    4  A    between atoms: C_8  and  N_9
REMARK    5  A    between atoms: N_9  and  C_10
REMARK    6  A    between atoms: N_13  and  C_14
REMARK    7  A    between atoms: C_18  and  C_20
REMARK    8  A    between atoms: C_20  and  N_21
REMARK    9  A    between atoms: C_25  and  C_26
REMARK                            x       y       z     vdW  Elec       q    Type
REMARK                         _______ _______ _______ _____ _____    ______ ____
ROOT
ATOM      1  C   UNL     1       3.973   2.355  -3.102  0.00  0.00    +0.035 A 
ATOM      2  C   UNL     1       3.383   3.407  -2.413  0.00  0.00    +0.023 A 
ATOM      3  C   UNL     1       4.091   4.573  -2.198  0.00  0.00    +0.002 A 
ATOM      4  C   UNL     1       5.386   4.694  -2.669  0.00  0.00    +0.002 A 
ATOM      5  C   UNL     1       5.976   3.649  -3.356  0.00  0.00    -0.062 A 
ATOM      6  C   UNL     1       5.274   2.478  -3.568  0.00  0.00    +0.025 A 
ENDROOT
BRANCH   1  11
ATOM      7  N   UNL     1       2.854  -0.732  -4.608  0.00  0.00    -0.284 N 
ATOM      8  C   UNL     1       1.972  -1.254  -3.561  0.00  0.00    +0.134 C 
ATOM      9  C   UNL     1       3.462   0.460  -4.446  0.00  0.00    +0.306 C 
ATOM     10  O   UNL     1       4.194   0.892  -5.315  0.00  0.00    -0.252 OA
ATOM     11  N   UNL     1       3.258   1.172  -3.320  0.00  0.00    -0.269 N 
ATOM     12  H   UNL     1       2.615   0.865  -2.662  0.00  0.00    +0.156 HD
BRANCH   7  13
ATOM     13  C   UNL     1       3.076  -1.507  -5.832  0.00  0.00    +0.149 C 
BRANCH  13  16
ATOM     14  C   UNL     1       3.363   0.807  -7.988  0.00  0.00    +0.069 C 
ATOM     15  C   UNL     1       2.172  -0.100  -7.817  0.00  0.00    +0.085 A 
ATOM     16  C   UNL     1       2.044  -1.125  -6.862  0.00  0.00    +0.034 A 
ATOM     17  C   UNL     1       0.841  -1.706  -7.029  0.00  0.00    +0.139 A 
ATOM     18  O   UNL     1       0.218  -1.086  -8.043  0.00  0.00    -0.359 OA
ATOM     19  N   UNL     1       1.078  -0.069  -8.524  0.00  0.00    -0.083 NA
ATOM     20  C   UNL     1       0.290  -2.850  -6.218  0.00  0.00    +0.089 C 
ENDBRANCH  13  16
ENDBRANCH   7  13
ENDBRANCH   1  11
BRANCH   5  21
ATOM     21  C   UNL     1       7.386   3.785  -3.868  0.00  0.00    -0.042 C 
BRANCH  21  22
ATOM     22  N   UNL     1       8.327   3.318  -2.842  0.00  0.00    +0.390 N 
ATOM     23  C   UNL     1       8.204   1.848  -2.665  0.00  0.00    -0.077 C 
ATOM     24  C   UNL     1       9.562   1.452  -2.033  0.00  0.00    -0.020 C 
ATOM     25  C   UNL     1      10.565   2.378  -2.760  0.00  0.00    -0.008 C 
ATOM     26  C   UNL     1       9.720   3.556  -3.280  0.00  0.00    +0.019 C 
ATOM     27  H   UNL     1       8.152   3.790  -1.968  0.00  0.00    -0.080 HD
BRANCH  26  28
ATOM     28  C   UNL     1      10.228   4.849  -2.697  0.00  0.00    +0.197 C 
ATOM     29  O   UNL     1       9.508   5.516  -1.984  0.00  0.00    -0.278 OA
ATOM     30  N   UNL     1      11.481   5.264  -2.968  0.00  0.00    -0.331 N 
ATOM     31  H   UNL     1      12.056   4.731  -3.538  0.00  0.00    +0.145 HD
ATOM     32  H   UNL     1      11.808   6.097  -2.592  0.00  0.00    +0.145 HD
ENDBRANCH  26  28
ENDBRANCH  21  22
ENDBRANCH   5  21
TORSDOF 6
