REMARK  Name = ZINC13218426
REMARK  8 active torsions:
REMARK  status: ('A' for Active; 'I' for Inactive)
REMARK    1  A    between atoms: C_1  and  C_2
REMARK    2  A    between atoms: C_2  and  N_3
REMARK    3  A    between atoms: C_7  and  C_27
REMARK    4  A    between atoms: C_11  and  C_12
REMARK    5  A    between atoms: C_12  and  S_13
REMARK    6  A    between atoms: S_13  and  C_14
REMARK    7  A    between atoms: C_17  and  C_20
REMARK    8  A    between atoms: N_18  and  N_19
REMARK                            x       y       z     vdW  Elec       q    Type
REMARK                         _______ _______ _______ _____ _____    ______ ____
ROOT
ATOM      1  S   UNL     1       4.532   8.793  -1.687  0.00  0.00    -0.077 S 
ENDROOT
BRANCH   1   2
ATOM      2  C   UNL     1       5.259  10.373  -1.403  0.00  0.00    +0.209 A 
ATOM      3  N   UNL     1       5.583  10.884  -0.237  0.00  0.00    -0.121 NA
ATOM      4  N   UNL     1       6.094  12.053  -0.393  0.00  0.00    -0.127 NA
ATOM      5  C   UNL     1       6.120  12.363  -1.669  0.00  0.00    +0.183 A 
ATOM      6  N   UNL     1       5.586  11.297  -2.355  0.00  0.00    -0.224 N 
BRANCH   5   7
ATOM      7  C   UNL     1       6.627  13.621  -2.257  0.00  0.00    +0.039 A 
ATOM      8  C   UNL     1       5.874  14.300  -3.216  0.00  0.00    +0.013 A 
ATOM      9  C   UNL     1       6.353  15.474  -3.761  0.00  0.00    +0.001 A 
ATOM     10  C   UNL     1       7.576  15.979  -3.357  0.00  0.00    +0.001 A 
ATOM     11  C   UNL     1       8.328  15.312  -2.408  0.00  0.00    +0.021 A 
ATOM     12  C   UNL     1       7.859  14.139  -1.850  0.00  0.00    +0.052 A 
ATOM     13 CL   UNL     1       8.800  13.306  -0.653  0.00  0.00    -0.083 Cl
ENDBRANCH   5   7
BRANCH   6  14
ATOM     14  N   UNL     1       5.417  11.186  -3.706  0.00  0.00    -0.295 N 
ATOM     15  H   UNL     1       4.551  11.614  -3.998  0.00  0.00    +0.163 HD
ATOM     16  H   UNL     1       6.202  11.580  -4.202  0.00  0.00    +0.163 HD
ENDBRANCH   6  14
ENDBRANCH   1   2
BRANCH   1  17
ATOM     17  C   UNL     1       4.416   8.191   0.016  0.00  0.00    +0.151 C 
BRANCH  17  26
ATOM     18  N   UNL     1       2.472   6.553   0.114  0.00  0.00    -0.327 N 
ATOM     19  C   UNL     1       2.317   5.184   0.085  0.00  0.00    +0.069 A 
ATOM     20  C   UNL     1       1.215   4.337   0.144  0.00  0.00    +0.029 A 
ATOM     21  C   UNL     1       1.386   2.985   0.086  0.00  0.00    +0.017 A 
ATOM     22  C   UNL     1       2.671   2.436  -0.022  0.00  0.00    +0.065 A 
ATOM     23  C   UNL     1       3.785   3.267  -0.081  0.00  0.00    +0.045 A 
ATOM     24  C   UNL     1       3.613   4.650  -0.028  0.00  0.00    +0.090 A 
ATOM     25  N   UNL     1       4.473   5.701  -0.062  0.00  0.00    -0.231 NA
ATOM     26  C   UNL     1       3.804   6.814   0.021  0.00  0.00    +0.121 A 
BRANCH  22  27
ATOM     27  C   UNL     1       2.842   0.971  -0.078  0.00  0.00    +0.387 C 
ATOM     28  O   UNL     1       3.955   0.493  -0.176  0.00  0.00    -0.241 OA
ATOM     29  O   UNL     1       1.765   0.164  -0.021  0.00  0.00    -0.241 OA
ENDBRANCH  22  27
BRANCH  18  31
ATOM     30  C   UNL     1       0.918   7.933  -1.175  0.00  0.00    +0.027 C 
ATOM     31  C   UNL     1       1.399   7.545   0.224  0.00  0.00    +0.120 C 
ENDBRANCH  18  31
ENDBRANCH  17  26
ENDBRANCH   1  17
TORSDOF 7
