REMARK  Name = ZINC39006942
REMARK  10 active torsions:
REMARK  status: ('A' for Active; 'I' for Inactive)
REMARK    1  A    between atoms: C_1  and  C_2
REMARK    2  A    between atoms: C_4  and  C_35
REMARK    3  A    between atoms: C_5  and  N_9
REMARK    4  A    between atoms: C_6  and  C_8
REMARK    5  A    between atoms: C_10  and  C_12
REMARK    6  A    between atoms: C_12  and  S_13
REMARK    7  A    between atoms: S_13  and  C_14
REMARK    8  A    between atoms: C_18  and  C_22
REMARK    9  A    between atoms: N_20  and  N_21
REMARK   10  A    between atoms: C_25  and  C_28
REMARK                            x       y       z     vdW  Elec       q    Type
REMARK                         _______ _______ _______ _____ _____    ______ ____
ROOT
ATOM      1  C   UNL     1       2.001  -8.558   1.729  0.00  0.00    +0.214 C 
ATOM      2  N   UNL     1       3.154  -8.894   0.864  0.00  0.00    -0.228 NA
ATOM      3  N   UNL     1       2.694 -10.042   0.067  0.00  0.00    -0.234 NA
ATOM      4  C   UNL     1       1.270  -9.712  -0.206  0.00  0.00    +0.185 C 
ATOM      5  N   UNL     1       0.797  -9.078   1.048  0.00  0.00    -0.197 NA
ATOM      6  H   UNL     1       3.399  -8.117   0.269  0.00  0.00    +0.143 HD
ATOM      7  H   UNL     1       2.772 -10.901   0.591  0.00  0.00    +0.143 HD
ENDROOT
BRANCH   4   8
ATOM      8  C   UNL     1       0.472 -10.984  -0.499  0.00  0.00    +0.187 C 
ATOM      9  C   UNL     1       1.055 -11.719  -1.694  0.00  0.00    +0.034 C 
ATOM     10  C   UNL     1       0.052 -11.719  -2.593  0.00  0.00    +0.091 C 
ATOM     11  N   UNL     1      -1.039 -11.085  -2.087  0.00  0.00    -0.154 NA
ATOM     12  N   UNL     1      -0.893 -10.652  -0.939  0.00  0.00    -0.176 NA
BRANCH  10  13
ATOM     13  C   UNL     1       0.127 -12.326  -3.945  0.00  0.00    +0.002 A 
ATOM     14  C   UNL     1       1.296 -12.959  -4.363  0.00  0.00    +0.011 A 
ATOM     15  C   UNL     1       1.361 -13.522  -5.621  0.00  0.00    +0.020 A 
ATOM     16  C   UNL     1       0.267 -13.459  -6.467  0.00  0.00    +0.041 A 
ATOM     17  C   UNL     1      -0.896 -12.831  -6.057  0.00  0.00    +0.020 A 
ATOM     18  C   UNL     1      -0.973 -12.271  -4.798  0.00  0.00    +0.011 A 
ATOM     19 CL   UNL     1       0.356 -14.168  -8.049  0.00  0.00    -0.084 Cl
ENDBRANCH  10  13
ENDBRANCH   4   8
BRANCH   5  20
ATOM     20  N   UNL     1      -0.146  -8.008   0.768  0.00  0.00    -0.264 NA
ATOM     21  H   UNL     1      -0.416  -7.533   1.615  0.00  0.00    +0.137 HD
ATOM     22  H   UNL     1       0.232  -7.359   0.094  0.00  0.00    +0.137 HD
ENDBRANCH   5  20
BRANCH   1  23
ATOM     23  S   UNL     1       1.875  -6.759   1.926  0.00  0.00    -0.115 S 
BRANCH  23  24
ATOM     24  C   UNL     1       3.144  -6.363   3.160  0.00  0.00    +0.168 C 
BRANCH  24  26
ATOM     25  N   UNL     1       3.916  -4.375   4.414  0.00  0.00    -0.284 N 
ATOM     26  C   UNL     1       3.064  -4.899   3.510  0.00  0.00    +0.227 C 
ATOM     27  O   UNL     1       2.233  -4.193   2.979  0.00  0.00    -0.275 OA
ATOM     28  H   UNL     1       4.526  -4.954   4.898  0.00  0.00    +0.155 HD
BRANCH  25  33
ATOM     29  C   UNL     1       3.936   1.214   5.387  0.00  0.00    +0.044 C 
ATOM     30  C   UNL     1       3.931  -0.271   5.128  0.00  0.00    -0.050 A 
ATOM     31  C   UNL     1       2.762  -0.994   5.283  0.00  0.00    +0.008 A 
ATOM     32  C   UNL     1       2.754  -2.355   5.047  0.00  0.00    -0.029 A 
ATOM     33  C   UNL     1       3.921  -2.997   4.653  0.00  0.00    +0.039 A 
ATOM     34  C   UNL     1       5.093  -2.268   4.499  0.00  0.00    -0.029 A 
ATOM     35  C   UNL     1       5.093  -0.906   4.732  0.00  0.00    +0.008 A 
ATOM     36  C   UNL     1       6.362  -2.960   4.072  0.00  0.00    +0.045 C 
ATOM     37  C   UNL     1       1.480  -3.142   5.216  0.00  0.00    +0.045 C 
ENDBRANCH  25  33
ENDBRANCH  24  26
ENDBRANCH  23  24
ENDBRANCH   1  23
TORSDOF 7
