REMARK  Name = ZINC03505437
REMARK  3 active torsions:
REMARK  status: ('A' for Active; 'I' for Inactive)
REMARK    1  A    between atoms: C_6  and  N_7
REMARK    2  A    between atoms: C_8  and  C_10
REMARK    3  A    between atoms: C_10  and  N_11
REMARK                            x       y       z     vdW  Elec       q    Type
REMARK                         _______ _______ _______ _____ _____    ______ ____
ROOT
ATOM      1  N   UNL     1       3.666   6.179   0.312  0.00  0.00    -0.215 N 
ATOM      2  C   UNL     1       4.414   6.530  -0.755  0.00  0.00    +0.247 C 
ATOM      3  O   UNL     1       4.090   6.491  -1.923  0.00  0.00    -0.273 OA
ATOM      4  C   UNL     1       5.739   6.984  -0.187  0.00  0.00    +0.113 C 
ATOM      5  C   UNL     1       5.995   8.445  -0.539  0.00  0.00    +0.035 C 
ATOM      6  C   UNL     1       7.327   8.893   0.068  0.00  0.00    +0.003 C 
ATOM      7  C   UNL     1       8.456   8.014  -0.476  0.00  0.00    +0.000 C 
ATOM      8  C   UNL     1       8.197   6.556  -0.094  0.00  0.00    +0.003 C 
ATOM      9  C   UNL     1       6.868   6.098  -0.701  0.00  0.00    +0.035 C 
ATOM     10  N   UNL     1       5.579   6.825   1.264  0.00  0.00    -0.285 N 
ATOM     11  C   UNL     1       4.332   6.354   1.460  0.00  0.00    +0.310 C 
ATOM     12  O   UNL     1       3.866   6.112   2.555  0.00  0.00    -0.252 OA
ATOM     13  H   UNL     1       6.239   7.023   1.946  0.00  0.00    +0.151 HD
ENDROOT
BRANCH   1  14
ATOM     14  C   UNL     1       2.293   5.674   0.225  0.00  0.00    +0.214 C 
BRANCH  14  16
ATOM     15  N   UNL     1       1.161   3.486   0.009  0.00  0.00    -0.284 N 
ATOM     16  C   UNL     1       2.317   4.172   0.104  0.00  0.00    +0.235 C 
ATOM     17  O   UNL     1       3.376   3.582   0.091  0.00  0.00    -0.274 OA
ATOM     18  H   UNL     1       0.318   3.961  -0.058  0.00  0.00    +0.155 HD
BRANCH  15  24
ATOM     19  C   UNL     1       2.133   1.400   0.745  0.00  0.00    +0.024 A 
ATOM     20  C   UNL     1       2.146   0.019   0.742  0.00  0.00    +0.017 A 
ATOM     21  C   UNL     1       1.207  -0.681   0.006  0.00  0.00    +0.018 A 
ATOM     22  C   UNL     1       0.253  -0.000  -0.729  0.00  0.00    +0.017 A 
ATOM     23  C   UNL     1       0.235   1.381  -0.730  0.00  0.00    +0.024 A 
ATOM     24  C   UNL     1       1.177   2.086   0.008  0.00  0.00    +0.033 A 
ATOM     25 BR   UNL     1       1.228  -2.572   0.004  0.00  0.00    -0.050 Br
ENDBRANCH  15  24
ENDBRANCH  14  16
ENDBRANCH   1  14
TORSDOF 3
