REMARK  Name = ZINC18889091
REMARK  4 active torsions:
REMARK  status: ('A' for Active; 'I' for Inactive)
REMARK    1  A    between atoms: C_5  and  O_19
REMARK    2  A    between atoms: C_6  and  C_7
REMARK    3  A    between atoms: N_8  and  N_9
REMARK    4  A    between atoms: N_9  and  C_10
REMARK                            x       y       z     vdW  Elec       q    Type
REMARK                         _______ _______ _______ _____ _____    ______ ____
ROOT
ATOM      1  C   UNL     1       3.825  -0.001   0.110  0.00  0.00    +0.142 C 
ATOM      2  N   UNL     1       4.792   0.835  -0.119  0.00  0.00    -0.190 NA
ENDROOT
BRANCH   1   8
ATOM      3  C   UNL     1       1.380  -0.462   0.168  0.00  0.00    +0.028 A 
ATOM      4  C   UNL     1       0.079  -0.098  -0.116  0.00  0.00    +0.020 A 
ATOM      5  C   UNL     1      -0.186   1.102  -0.754  0.00  0.00    +0.034 A 
ATOM      6  C   UNL     1       0.849   1.947  -1.113  0.00  0.00    +0.061 A 
ATOM      7  C   UNL     1       2.160   1.596  -0.836  0.00  0.00    +0.139 A 
ATOM      8  C   UNL     1       2.433   0.383  -0.190  0.00  0.00    +0.038 A 
ATOM      9 BR   UNL     1       0.473   3.582  -1.985  0.00  0.00    -0.046 Br
ATOM     10 BR   UNL     1      -1.346  -1.242   0.370  0.00  0.00    -0.050 Br
BRANCH   7  11
ATOM     11  O   UNL     1       3.177   2.425  -1.188  0.00  0.00    -0.505 OA
ATOM     12  H   UNL     1       3.418   2.375  -2.123  0.00  0.00    +0.292 HD
ENDBRANCH   7  11
ENDBRANCH   1   8
BRANCH   2  13
ATOM     13  N   UNL     1       6.119   0.388  -0.114  0.00  0.00    -0.235 N 
ATOM     14  H   UNL     1       6.311  -0.561  -0.062  0.00  0.00    +0.174 HD
BRANCH  13  15
ATOM     15  C   UNL     1       7.157   1.301  -0.182  0.00  0.00    +0.092 A 
ATOM     16  C   UNL     1       8.497   0.863  -0.118  0.00  0.00    +0.159 A 
ATOM     17  N   UNL     1       9.476   1.721  -0.183  0.00  0.00    -0.177 NA
ATOM     18  N   UNL     1       9.226   3.091  -0.316  0.00  0.00    -0.242 N 
ATOM     19  H   UNL     1       9.970   3.713  -0.362  0.00  0.00    +0.192 HD
ATOM     20  C   UNL     1       7.963   3.555  -0.381  0.00  0.00    +0.285 A 
ATOM     21  O   UNL     1       7.753   4.752  -0.497  0.00  0.00    -0.265 OA
ATOM     22  C   UNL     1       6.890   2.653  -0.320  0.00  0.00    +0.130 A 
ATOM     23 CL   UNL     1       5.253   3.223  -0.410  0.00  0.00    -0.076 Cl
ENDBRANCH  13  15
ENDBRANCH   2  13
TORSDOF 4
