REMARK  Name = ZINC40744375
REMARK  10 active torsions:
REMARK  status: ('A' for Active; 'I' for Inactive)
REMARK    1  A    between atoms: C_1  and  C_2
REMARK    2  A    between atoms: C_5  and  C_8
REMARK    3  A    between atoms: C_8  and  O_9
REMARK    4  A    between atoms: O_9  and  C_10
REMARK    5  A    between atoms: C_11  and  C_18
REMARK    6  A    between atoms: C_18  and  N_19
REMARK    7  A    between atoms: N_19  and  C_20
REMARK    8  A    between atoms: C_20  and  C_21
REMARK    9  A    between atoms: C_21  and  N_22
REMARK   10  A    between atoms: C_23  and  C_25
REMARK                            x       y       z     vdW  Elec       q    Type
REMARK                         _______ _______ _______ _____ _____    ______ ____
ROOT
ATOM      1  C   UNL     1       1.509  -6.243   2.354  0.00  0.00    -0.043 C 
ENDROOT
BRANCH   1   3
ATOM      2  C   UNL     1       1.455  -6.082  -0.147  0.00  0.00    +0.141 A 
ATOM      3  C   UNL     1       1.661  -6.855   0.986  0.00  0.00    -0.020 A 
ATOM      4  C   UNL     1       2.005  -8.187   0.859  0.00  0.00    +0.025 A 
ATOM      5  C   UNL     1       2.145  -8.750  -0.397  0.00  0.00    +0.043 A 
ATOM      6  C   UNL     1       1.940  -7.981  -1.529  0.00  0.00    +0.043 A 
ATOM      7  C   UNL     1       1.590  -6.649  -1.407  0.00  0.00    +0.084 A 
ATOM      8 CL   UNL     1       1.327  -5.686  -2.826  0.00  0.00    -0.080 Cl
ATOM      9 CL   UNL     1       2.578 -10.424  -0.553  0.00  0.00    -0.083 Cl
BRANCH   2  10
ATOM     10  O   UNL     1       1.116  -4.771  -0.024  0.00  0.00    -0.486 OA
BRANCH  10  11
ATOM     11  C   UNL     1       2.183  -3.820  -0.046  0.00  0.00    +0.264 C 
BRANCH  11  16
ATOM     12  C   UNL     1       0.002   1.530   0.083  0.00  0.00    +0.044 C 
ATOM     13  C   UNL     1       0.571   0.134   0.050  0.00  0.00    -0.050 A 
ATOM     14  C   UNL     1       0.868  -0.520   1.231  0.00  0.00    +0.004 A 
ATOM     15  C   UNL     1       1.389  -1.800   1.200  0.00  0.00    +0.007 A 
ATOM     16  C   UNL     1       1.613  -2.425  -0.012  0.00  0.00    -0.010 A 
ATOM     17  C   UNL     1       1.316  -1.772  -1.193  0.00  0.00    +0.007 A 
ATOM     18  C   UNL     1       0.790  -0.494  -1.162  0.00  0.00    +0.004 A 
ENDBRANCH  11  16
ENDBRANCH  10  11
ENDBRANCH   2  10
ENDBRANCH   1   3
BRANCH   1  19
ATOM     19  N   UNL     1       0.082  -6.121   2.681  0.00  0.00    +0.383 N 
ATOM     20  H   UNL     1      -0.356  -5.475   2.041  0.00  0.00    -0.085 HD
ATOM     21  H   UNL     1      -0.360  -7.025   2.601  0.00  0.00    -0.085 HD
BRANCH  19  22
ATOM     22  C   UNL     1      -0.065  -5.624   4.055  0.00  0.00    -0.063 C 
BRANCH  22  23
ATOM     23  C   UNL     1      -1.552  -5.497   4.395  0.00  0.00    +0.085 C 
BRANCH  23  24
ATOM     24  N   UNL     1      -1.698  -5.001   5.766  0.00  0.00    -0.312 N 
ATOM     25  C   UNL     1      -2.927  -4.809   6.285  0.00  0.00    +0.269 C 
ATOM     26  O   UNL     1      -3.913  -5.048   5.617  0.00  0.00    -0.268 OA
ATOM     27  H   UNL     1      -0.911  -4.810   6.299  0.00  0.00    +0.149 HD
BRANCH  25  28
ATOM     28  C   UNL     1      -3.075  -4.308   7.671  0.00  0.00    +0.209 A 
ATOM     29  C   UNL     1      -4.345  -4.060   8.365  0.00  0.00    +0.192 A 
ATOM     30  N   UNL     1      -4.077  -3.624   9.566  0.00  0.00    -0.033 NA
ATOM     31  O   UNL     1      -2.669  -3.570   9.706  0.00  0.00    -0.240 OA
ATOM     32  N   UNL     1      -2.098  -4.015   8.489  0.00  0.00    -0.042 NA
ATOM     33  N   UNL     1      -5.612  -4.255   7.834  0.00  0.00    -0.339 N 
ATOM     34  H   UNL     1      -5.713  -4.584   6.927  0.00  0.00    +0.144 HD
ATOM     35  H   UNL     1      -6.397  -4.063   8.370  0.00  0.00    +0.144 HD
ENDBRANCH  25  28
ENDBRANCH  23  24
ENDBRANCH  22  23
ENDBRANCH  19  22
ENDBRANCH   1  19
TORSDOF 9
