REMARK  Name = ZINC58791009
REMARK  5 active torsions:
REMARK  status: ('A' for Active; 'I' for Inactive)
REMARK    1  A    between atoms: C_1  and  C_2
REMARK    2  A    between atoms: C_2  and  C_27
REMARK    3  A    between atoms: C_8  and  O_11
REMARK    4  A    between atoms: O_11  and  S_12
REMARK    5  A    between atoms: S_12  and  C_15
REMARK                            x       y       z     vdW  Elec       q    Type
REMARK                         _______ _______ _______ _____ _____    ______ ____
ROOT
ATOM      1  S   UNL     1       1.992  -2.071   4.184  0.00  0.00    +0.153 S 
ATOM      2  O   UNL     1       3.344  -1.719   4.442  0.00  0.00    -0.131 OA
ATOM      3  O   UNL     1       0.931  -1.129   4.269  0.00  0.00    -0.131 OA
ENDROOT
BRANCH   1   4
ATOM      4  C   UNL     1       1.592  -3.382   5.290  0.00  0.00    +0.150 A 
ATOM      5  C   UNL     1       0.294  -3.528   5.745  0.00  0.00    +0.079 A 
ATOM      6  C   UNL     1      -0.020  -4.558   6.614  0.00  0.00    +0.144 A 
ATOM      7  C   UNL     1       0.972  -5.445   7.028  0.00  0.00    +0.077 A 
ATOM      8  C   UNL     1       2.270  -5.295   6.569  0.00  0.00    +0.049 A 
ATOM      9  C   UNL     1       2.576  -4.266   5.695  0.00  0.00    +0.071 A 
ATOM     10 CL   UNL     1       4.201  -4.080   5.112  0.00  0.00    -0.081 Cl
ATOM     11  N   UNL     1       0.639  -6.484   7.910  0.00  0.00    -0.280 N 
ATOM     12  C   UNL     1      -0.662  -6.797   8.090  0.00  0.00    +0.255 C 
ATOM     13  O   UNL     1      -0.975  -7.671   8.870  0.00  0.00    -0.272 OA
ATOM     14  C   UNL     1      -1.724  -6.057   7.317  0.00  0.00    +0.325 C 
ATOM     15  O   UNL     1      -1.292  -4.716   7.071  0.00  0.00    -0.481 OA
ATOM     16  H   UNL     1       1.333  -6.969   8.383  0.00  0.00    +0.155 HD
ENDBRANCH   1   4
BRANCH   1  17
ATOM     17  O   UNL     1       1.953  -2.643   2.774  0.00  0.00    -0.339 OA
BRANCH  17  25
ATOM     18  C   UNL     1      -0.464   1.331   0.096  0.00  0.00    +0.056 C 
ATOM     19  C   UNL     1      -0.281  -0.187   0.038  0.00  0.00    +0.109 C 
ATOM     20  C   UNL     1      -1.632  -0.910   0.250  0.00  0.00    +0.086 C 
ATOM     21  C   UNL     1      -1.214  -2.128   1.051  0.00  0.00    +0.002 A 
ATOM     22  C   UNL     1      -1.858  -3.313   1.337  0.00  0.00    +0.007 A 
ATOM     23  C   UNL     1      -1.228  -4.277   2.103  0.00  0.00    +0.004 A 
ATOM     24  C   UNL     1       0.049  -4.049   2.580  0.00  0.00    +0.052 A 
ATOM     25  C   UNL     1       0.697  -2.860   2.299  0.00  0.00    +0.198 A 
ATOM     26  C   UNL     1       0.065  -1.881   1.529  0.00  0.00    +0.169 A 
ATOM     27  O   UNL     1       0.504  -0.648   1.151  0.00  0.00    -0.482 OA
ATOM     28  C   UNL     1       0.360  -0.603  -1.287  0.00  0.00    +0.056 C 
ENDBRANCH  17  25
ENDBRANCH   1  17
TORSDOF 3
