REMARK  Name = ZINC02751150
REMARK  10 active torsions:
REMARK  status: ('A' for Active; 'I' for Inactive)
REMARK    1  A    between atoms: C_3  and  N_9
REMARK    2  A    between atoms: C_6  and  C_7
REMARK    3  A    between atoms: C_10  and  C_12
REMARK    4  A    between atoms: C_12  and  S_13
REMARK    5  A    between atoms: S_13  and  C_14
REMARK    6  A    between atoms: C_17  and  S_19
REMARK    7  A    between atoms: S_19  and  C_20
REMARK    8  A    between atoms: C_20  and  C_21
REMARK    9  A    between atoms: N_23  and  C_24
REMARK   10  A    between atoms: C_27  and  C_30
REMARK                            x       y       z     vdW  Elec       q    Type
REMARK                         _______ _______ _______ _____ _____    ______ ____
ROOT
ATOM      1  C   UNL     1      -0.119   1.696   0.399  0.00  0.00    +0.160 A 
ATOM      2  N   UNL     1      -0.157   0.387   0.245  0.00  0.00    -0.134 NA
ATOM      3  N   UNL     1       1.014  -0.335   0.234  0.00  0.00    -0.134 NA
ATOM      4  C   UNL     1       2.169   0.285   0.378  0.00  0.00    +0.160 A 
ATOM      5  S   UNL     1       1.638   1.983   0.541  0.00  0.00    -0.033 S 
ENDROOT
BRANCH   1   6
ATOM      6  S   UNL     1      -1.447   2.854   0.444  0.00  0.00    -0.088 S 
BRANCH   6   7
ATOM      7  C   UNL     1      -2.929   1.831   0.228  0.00  0.00    +0.172 C 
BRANCH   7   9
ATOM      8  N   UNL     1      -5.377   2.164   0.103  0.00  0.00    -0.285 N 
ATOM      9  C   UNL     1      -4.153   2.710   0.248  0.00  0.00    +0.227 C 
ATOM     10  O   UNL     1      -4.037   3.908   0.394  0.00  0.00    -0.275 OA
ATOM     11  H   UNL     1      -5.475   1.200   0.053  0.00  0.00    +0.155 HD
BRANCH   8  14
ATOM     12  C   UNL     1      -8.675   3.438  -0.881  0.00  0.00    +0.017 A 
ATOM     13  C   UNL     1      -7.563   2.630  -0.802  0.00  0.00    +0.024 A 
ATOM     14  C   UNL     1      -6.501   2.984   0.025  0.00  0.00    +0.033 A 
ATOM     15  C   UNL     1      -6.562   4.152   0.779  0.00  0.00    +0.024 A 
ATOM     16  C   UNL     1      -7.669   4.967   0.701  0.00  0.00    +0.017 A 
ATOM     17  C   UNL     1      -8.737   4.614  -0.129  0.00  0.00    +0.063 A 
BRANCH  17  18
ATOM     18  C   UNL     1      -9.926   5.482  -0.211  0.00  0.00    +0.387 C 
ATOM     19  O   UNL     1     -10.854   5.175  -0.933  0.00  0.00    -0.241 OA
ATOM     20  O   UNL     1      -9.985   6.616   0.514  0.00  0.00    -0.241 OA
ENDBRANCH  17  18
ENDBRANCH   8  14
ENDBRANCH   7   9
ENDBRANCH   6   7
ENDBRANCH   1   6
BRANCH   4  21
ATOM     21  S   UNL     1       3.800  -0.382   0.402  0.00  0.00    -0.088 S 
BRANCH  21  22
ATOM     22  C   UNL     1       3.547  -2.165   0.180  0.00  0.00    +0.172 C 
BRANCH  22  23
ATOM     23  C   UNL     1       4.882  -2.865   0.182  0.00  0.00    +0.227 C 
ATOM     24  O   UNL     1       5.903  -2.224   0.319  0.00  0.00    -0.275 OA
ATOM     25  N   UNL     1       4.941  -4.203   0.031  0.00  0.00    -0.285 N 
ATOM     26  H   UNL     1       4.124  -4.723  -0.005  0.00  0.00    +0.155 HD
BRANCH  25  27
ATOM     27  C   UNL     1       6.178  -4.838  -0.073  0.00  0.00    +0.033 A 
ATOM     28  C   UNL     1       7.237  -4.195  -0.706  0.00  0.00    +0.024 A 
ATOM     29  C   UNL     1       8.461  -4.818  -0.807  0.00  0.00    +0.017 A 
ATOM     30  C   UNL     1       8.635  -6.102  -0.282  0.00  0.00    +0.063 A 
ATOM     31  C   UNL     1       7.567  -6.747   0.348  0.00  0.00    +0.017 A 
ATOM     32  C   UNL     1       6.348  -6.116   0.450  0.00  0.00    +0.024 A 
BRANCH  30  33
ATOM     33  C   UNL     1       9.943  -6.774  -0.393  0.00  0.00    +0.387 C 
ATOM     34  O   UNL     1      10.093  -7.890   0.064  0.00  0.00    -0.241 OA
ATOM     35  O   UNL     1      10.972  -6.151  -1.001  0.00  0.00    -0.241 OA
ENDBRANCH  30  33
ENDBRANCH  25  27
ENDBRANCH  22  23
ENDBRANCH  21  22
ENDBRANCH   4  21
TORSDOF 10
