REMARK  Name = ZINC49564525
REMARK  6 active torsions:
REMARK  status: ('A' for Active; 'I' for Inactive)
REMARK    1  A    between atoms: C_1  and  O_2
REMARK    2  A    between atoms: O_2  and  C_3
REMARK    3  A    between atoms: C_8  and  N_9
REMARK    4  A    between atoms: N_9  and  C_10
REMARK    5  A    between atoms: C_13  and  N_20
REMARK    6  A    between atoms: C_15  and  C_16
REMARK                            x       y       z     vdW  Elec       q    Type
REMARK                         _______ _______ _______ _____ _____    ______ ____
ROOT
ATOM      1  C   UNL     1       0.060  -4.171  -0.238  0.00  0.00    +0.043 A 
ATOM      2  C   UNL     1       1.102  -4.839  -0.868  0.00  0.00    +0.025 A 
ATOM      3  C   UNL     1       1.066  -6.214  -0.990  0.00  0.00    +0.024 A 
ATOM      4  C   UNL     1      -0.012  -6.928  -0.484  0.00  0.00    +0.025 A 
ATOM      5  C   UNL     1      -1.054  -6.260   0.145  0.00  0.00    +0.037 A 
ATOM      6  C   UNL     1      -1.015  -4.886   0.273  0.00  0.00    +0.078 A 
ENDROOT
BRANCH   6   7
ATOM      7  C   UNL     1      -2.142  -4.161   0.963  0.00  0.00    +0.419 C 
ATOM      8  F   UNL     1      -3.101  -5.087   1.388  0.00  0.00    -0.166 F 
ATOM      9  F   UNL     1      -1.643  -3.466   2.069  0.00  0.00    -0.166 F 
ATOM     10  F   UNL     1      -2.730  -3.258   0.071  0.00  0.00    -0.166 F 
ENDBRANCH   6   7
BRANCH   4  11
ATOM     11  N   UNL     1      -0.048  -8.322  -0.609  0.00  0.00    -0.358 N 
ATOM     12  H   UNL     1       0.679  -8.789  -1.049  0.00  0.00    +0.142 HD
ATOM     13  H   UNL     1      -0.801  -8.821  -0.255  0.00  0.00    +0.142 HD
ENDBRANCH   4  11
BRANCH   1  14
ATOM     14  N   UNL     1       0.097  -2.777  -0.113  0.00  0.00    -0.311 N 
ATOM     15  H   UNL     1      -0.156  -2.358   0.725  0.00  0.00    +0.152 HD
BRANCH  14  21
ATOM     16  C   UNL     1       0.642  -0.610  -1.043  0.00  0.00    +0.141 A 
ATOM     17  C   UNL     1       1.044   0.165  -2.118  0.00  0.00    +0.048 A 
ATOM     18  C   UNL     1       1.296  -0.426  -3.342  0.00  0.00    +0.019 A 
ATOM     19  C   UNL     1       1.148  -1.793  -3.498  0.00  0.00    +0.020 A 
ATOM     20  C   UNL     1       0.746  -2.574  -2.430  0.00  0.00    +0.042 A 
ATOM     21  C   UNL     1       0.497  -1.988  -1.197  0.00  0.00    +0.075 A 
ATOM     22 BR   UNL     1       1.495  -2.594  -5.175  0.00  0.00    -0.050 Br
BRANCH  16  24
ATOM     23  C   UNL     1       0.562   1.387   0.246  0.00  0.00    +0.277 C 
ATOM     24  O   UNL     1       0.393  -0.030   0.162  0.00  0.00    -0.493 OA
ENDBRANCH  16  24
ENDBRANCH  14  21
ENDBRANCH   1  14
TORSDOF 5
