REMARK  Name = ZINC00046043
REMARK  4 active torsions:
REMARK  status: ('A' for Active; 'I' for Inactive)
REMARK    1  A    between atoms: C_6  and  N_7
REMARK    2  A    between atoms: C_8  and  C_9
REMARK    3  A    between atoms: C_12  and  O_16
REMARK    4  A    between atoms: C_13  and  O_15
REMARK                            x       y       z     vdW  Elec       q    Type
REMARK                         _______ _______ _______ _____ _____    ______ ____
ROOT
ATOM      1  C   UNL     1      -2.590  -2.479  -0.785  0.00  0.00    -0.003 A 
ATOM      2  C   UNL     1      -3.626  -2.106   0.079  0.00  0.00    +0.013 A 
ATOM      3  C   UNL     1      -4.807  -2.816   0.084  0.00  0.00    +0.050 A 
ATOM      4  C   UNL     1      -4.973  -3.901  -0.766  0.00  0.00    +0.158 A 
ATOM      5  C   UNL     1      -3.945  -4.278  -1.629  0.00  0.00    +0.159 A 
ATOM      6  C   UNL     1      -2.760  -3.569  -1.645  0.00  0.00    +0.058 A 
ENDROOT
BRANCH   1   8
ATOM      7  N   UNL     1      -1.172  -0.707   0.009  0.00  0.00    -0.255 NA
ATOM      8  C   UNL     1      -1.328  -1.723  -0.793  0.00  0.00    +0.119 C 
BRANCH   7  14
ATOM      9  C   UNL     1      -0.017   1.393   0.010  0.00  0.00    +0.029 A 
ATOM     10  C   UNL     1       1.170   2.095   0.002  0.00  0.00    +0.016 A 
ATOM     11  C   UNL     1       2.378   1.419  -0.013  0.00  0.00    +0.014 A 
ATOM     12  C   UNL     1       2.404   0.035  -0.021  0.00  0.00    +0.016 A 
ATOM     13  C   UNL     1       1.224  -0.680  -0.013  0.00  0.00    +0.029 A 
ATOM     14  C   UNL     1       0.002  -0.004   0.002  0.00  0.00    +0.064 A 
ATOM     15  I   UNL     1       4.175   2.496  -0.026  0.00  0.00    -0.044 I 
ENDBRANCH   7  14
ENDBRANCH   1   8
BRANCH   5  16
ATOM     16  O   UNL     1      -4.112  -5.342  -2.460  0.00  0.00    -0.503 OA
ATOM     17  H   UNL     1      -4.486  -5.113  -3.322  0.00  0.00    +0.292 HD
ENDBRANCH   5  16
BRANCH   4  18
ATOM     18  O   UNL     1      -6.139  -4.596  -0.757  0.00  0.00    -0.503 OA
ATOM     19  H   UNL     1      -6.803  -4.261  -1.375  0.00  0.00    +0.292 HD
ENDBRANCH   4  18
TORSDOF 4
