REMARK  Name = ZINC57984619
REMARK  11 active torsions:
REMARK  status: ('A' for Active; 'I' for Inactive)
REMARK    1  A    between atoms: C_1  and  C_2
REMARK    2  A    between atoms: C_2  and  C_3
REMARK    3  A    between atoms: C_3  and  C_5
REMARK    4  A    between atoms: C_3  and  N_12
REMARK    5  A    between atoms: N_12  and  C_13
REMARK    6  A    between atoms: N_12  and  C_21
REMARK    7  A    between atoms: C_13  and  C_14
REMARK    8  A    between atoms: C_21  and  C_22
REMARK    9  A    between atoms: N_24  and  C_25
REMARK   10  A    between atoms: C_28  and  S_31
REMARK   11  A    between atoms: S_31  and  N_34
REMARK                            x       y       z     vdW  Elec       q    Type
REMARK                         _______ _______ _______ _____ _____    ______ ____
ROOT
ATOM      1  N   UNL     1      -1.109  -0.442  -2.291  0.00  0.00    +0.393 N 
ATOM      2  H   UNL     1      -2.028  -0.817  -2.468  0.00  0.00    -0.080 HD
ENDROOT
BRANCH   1   3
ATOM      3  C   UNL     1      -0.148  -1.544  -2.150  0.00  0.00    -0.037 C 
BRANCH   3   4
ATOM      4  C   UNL     1       1.250  -0.986  -2.076  0.00  0.00    -0.061 A 
ATOM      5  C   UNL     1       1.785  -0.317  -3.161  0.00  0.00    +0.005 A 
ATOM      6  C   UNL     1       3.067   0.196  -3.094  0.00  0.00    +0.038 A 
ATOM      7  C   UNL     1       3.815   0.040  -1.939  0.00  0.00    +0.123 A 
ATOM      8  C   UNL     1       3.278  -0.630  -0.853  0.00  0.00    +0.038 A 
ATOM      9  C   UNL     1       1.994  -1.138  -0.921  0.00  0.00    +0.005 A 
ATOM     10  F   UNL     1       5.068   0.540  -1.873  0.00  0.00    -0.205 F 
ENDBRANCH   3   4
BRANCH   3  12
ATOM     11  C   UNL     1      -1.629  -3.161  -3.347  0.00  0.00    +0.002 C 
ATOM     12  C   UNL     1      -0.261  -2.476  -3.358  0.00  0.00    -0.014 C 
ENDBRANCH   3  12
ENDBRANCH   1   3
BRANCH   1  13
ATOM     13  C   UNL     1      -1.133   0.348  -1.052  0.00  0.00    -0.041 C 
BRANCH  13  14
ATOM     14  C   UNL     1      -1.783  -0.457   0.044  0.00  0.00    -0.061 A 
ATOM     15  C   UNL     1      -3.161  -0.504   0.142  0.00  0.00    +0.002 A 
ATOM     16  C   UNL     1      -3.759  -1.242   1.147  0.00  0.00    +0.003 A 
ATOM     17  C   UNL     1      -2.979  -1.933   2.055  0.00  0.00    +0.038 A 
ATOM     18  C   UNL     1      -1.598  -1.886   1.958  0.00  0.00    +0.124 A 
ATOM     19  C   UNL     1      -1.001  -1.152   0.947  0.00  0.00    +0.040 A 
ATOM     20  F   UNL     1      -0.835  -2.561   2.845  0.00  0.00    -0.205 F 
ENDBRANCH  13  14
ENDBRANCH   1  13
BRANCH   1  21
ATOM     21  C   UNL     1      -0.707   0.418  -3.412  0.00  0.00    +0.020 C 
BRANCH  21  22
ATOM     22  C   UNL     1      -1.782   1.442  -3.671  0.00  0.00    +0.201 C 
ATOM     23  O   UNL     1      -2.772   1.472  -2.970  0.00  0.00    -0.278 OA
ATOM     24  N   UNL     1      -1.645   2.323  -4.681  0.00  0.00    -0.287 N 
ATOM     25  H   UNL     1      -0.897   2.246  -5.293  0.00  0.00    +0.155 HD
BRANCH  24  26
ATOM     26  C   UNL     1      -2.582   3.349  -4.847  0.00  0.00    +0.033 A 
ATOM     27  C   UNL     1      -3.206   3.907  -3.739  0.00  0.00    +0.025 A 
ATOM     28  C   UNL     1      -4.131   4.919  -3.906  0.00  0.00    +0.030 A 
ATOM     29  C   UNL     1      -4.435   5.377  -5.175  0.00  0.00    +0.105 A 
ATOM     30  C   UNL     1      -3.816   4.823  -6.280  0.00  0.00    +0.030 A 
ATOM     31  C   UNL     1      -2.886   3.815  -6.119  0.00  0.00    +0.025 A 
BRANCH  29  32
ATOM     32  S   UNL     1      -5.615   6.669  -5.384  0.00  0.00    +0.056 S 
ATOM     33  O   UNL     1      -6.126   6.543  -6.704  0.00  0.00    -0.153 OA
ATOM     34  O   UNL     1      -6.454   6.642  -4.237  0.00  0.00    -0.153 OA
BRANCH  32  35
ATOM     35  N   UNL     1      -4.787   8.102  -5.332  0.00  0.00    -0.204 NA
ATOM     36  H   UNL     1      -3.826   8.102  -5.204  0.00  0.00    +0.144 HD
ATOM     37  H   UNL     1      -5.263   8.941  -5.429  0.00  0.00    +0.144 HD
ENDBRANCH  32  35
ENDBRANCH  29  32
ENDBRANCH  24  26
ENDBRANCH  21  22
ENDBRANCH   1  21
TORSDOF 10
