REMARK  Name = ZINC46009736
REMARK  4 active torsions:
REMARK  status: ('A' for Active; 'I' for Inactive)
REMARK    1  A    between atoms: C_1  and  C_2
REMARK    2  A    between atoms: C_4  and  N_9
REMARK    3  A    between atoms: N_12  and  C_13
REMARK    4  A    between atoms: N_22  and  C_23
REMARK                            x       y       z     vdW  Elec       q    Type
REMARK                         _______ _______ _______ _____ _____    ______ ____
ROOT
ATOM      1  N   UNL     1       0.188  -2.769  -2.404  0.00  0.00    -0.269 N 
ATOM      2  C   UNL     1       0.311  -4.111  -2.426  0.00  0.00    +0.308 C 
ATOM      3  O   UNL     1       0.476  -4.724  -1.389  0.00  0.00    -0.252 OA
ATOM      4  N   UNL     1       0.252  -4.774  -3.599  0.00  0.00    -0.269 N 
ATOM      5  H   UNL     1      -0.018  -2.287  -3.220  0.00  0.00    +0.156 HD
ATOM      6  H   UNL     1       0.196  -4.280  -4.432  0.00  0.00    +0.156 HD
ENDROOT
BRANCH   4   7
ATOM      7  C   UNL     1       0.272  -6.174  -3.613  0.00  0.00    +0.038 A 
ATOM      8  C   UNL     1      -0.321  -6.887  -2.577  0.00  0.00    +0.025 A 
ATOM      9  C   UNL     1      -0.304  -8.267  -2.587  0.00  0.00    +0.031 A 
ATOM     10  C   UNL     1       0.304  -8.943  -3.633  0.00  0.00    +0.090 A 
ATOM     11  C   UNL     1       0.899  -8.232  -4.675  0.00  0.00    +0.159 A 
ATOM     12  C   UNL     1       0.876  -6.847  -4.665  0.00  0.00    +0.072 A 
ATOM     13  O   UNL     1       1.408  -9.141  -5.544  0.00  0.00    -0.407 OA
ATOM     14  C   UNL     1       1.155 -10.377  -5.088  0.00  0.00    +0.421 A 
ATOM     15  O   UNL     1       1.482 -11.410  -5.641  0.00  0.00    -0.223 OA
ATOM     16  N   UNL     1       0.482 -10.298  -3.923  0.00  0.00    -0.277 N 
ATOM     17  C   UNL     1       0.022 -11.426  -3.109  0.00  0.00    +0.156 C 
ENDBRANCH   4   7
BRANCH   1  21
ATOM     18  C   UNL     1       2.402  -2.337   1.965  0.00  0.00    +0.045 C 
ATOM     19  C   UNL     1       1.424  -1.839   0.933  0.00  0.00    -0.035 A 
ATOM     20  C   UNL     1       1.258  -2.531  -0.252  0.00  0.00    +0.027 A 
ATOM     21  C   UNL     1       0.357  -2.071  -1.202  0.00  0.00    +0.035 A 
ATOM     22  C   UNL     1      -0.377  -0.917  -0.959  0.00  0.00    +0.024 A 
ATOM     23  C   UNL     1      -0.208  -0.230   0.227  0.00  0.00    +0.017 A 
ATOM     24  C   UNL     1       0.688  -0.693   1.175  0.00  0.00    +0.021 A 
ATOM     25 BR   UNL     1       0.911   0.246   2.801  0.00  0.00    -0.050 Br
ENDBRANCH   1  21
TORSDOF 2
