REMARK  Name = ZINC56527507
REMARK  10 active torsions:
REMARK  status: ('A' for Active; 'I' for Inactive)
REMARK    1  A    between atoms: C_1  and  C_2
REMARK    2  A    between atoms: C_6  and  C_28
REMARK    3  A    between atoms: C_7  and  N_8
REMARK    4  A    between atoms: N_11  and  C_12
REMARK    5  A    between atoms: C_12  and  C_14
REMARK    6  A    between atoms: C_12  and  C_15
REMARK    7  A    between atoms: C_18  and  N_21
REMARK    8  A    between atoms: N_24  and  C_27
REMARK    9  A    between atoms: C_28  and  C_29
REMARK   10  A    between atoms: C_28  and  C_30
REMARK                            x       y       z     vdW  Elec       q    Type
REMARK                         _______ _______ _______ _____ _____    ______ ____
ROOT
ATOM      1  N   UNL     1       0.223   0.092   2.329  0.00  0.00    -0.269 N 
ATOM      2  C   UNL     1      -0.207   1.369   2.371  0.00  0.00    +0.304 C 
ATOM      3  O   UNL     1      -0.759   1.856   1.403  0.00  0.00    -0.252 OA
ATOM      4  N   UNL     1      -0.026   2.104   3.485  0.00  0.00    -0.293 N 
ATOM      5  H   UNL     1       0.614  -0.314   3.118  0.00  0.00    +0.156 HD
ATOM      6  H   UNL     1       0.414   1.716   4.257  0.00  0.00    +0.151 HD
ENDROOT
BRANCH   1  13
ATOM      7  C   UNL     1      -2.386  -0.601   1.430  0.00  0.00    +0.045 C 
ATOM      8  C   UNL     1      -1.149  -1.007   0.672  0.00  0.00    -0.029 A 
ATOM      9  C   UNL     1      -1.261  -1.732  -0.498  0.00  0.00    +0.005 A 
ATOM     10  C   UNL     1      -0.126  -2.105  -1.194  0.00  0.00    +0.001 A 
ATOM     11  C   UNL     1       1.125  -1.754  -0.721  0.00  0.00    +0.006 A 
ATOM     12  C   UNL     1       1.244  -1.029   0.449  0.00  0.00    -0.023 A 
ATOM     13  C   UNL     1       0.106  -0.647   1.147  0.00  0.00    +0.041 A 
BRANCH  12  14
ATOM     14  C   UNL     1       2.608  -0.647   0.964  0.00  0.00    +0.015 C 
ATOM     15  C   UNL     1       3.426  -1.913   1.229  0.00  0.00    +0.012 C 
ATOM     16  C   UNL     1       3.325   0.213  -0.079  0.00  0.00    +0.012 C 
ENDBRANCH  12  14
ENDBRANCH   1  13
BRANCH   4  17
ATOM     17  C   UNL     1      -0.494   3.492   3.531  0.00  0.00    +0.102 C 
ATOM     18  C   UNL     1      -1.971   3.519   3.929  0.00  0.00    +0.033 C 
BRANCH  17  19
ATOM     19  C   UNL     1       0.314   4.262   4.544  0.00  0.00    -0.027 A 
ATOM     20  C   UNL     1       0.666   3.667   5.741  0.00  0.00    +0.007 A 
ATOM     21  C   UNL     1       1.407   4.369   6.671  0.00  0.00    +0.023 A 
ATOM     22  C   UNL     1       1.797   5.675   6.403  0.00  0.00    +0.030 A 
ATOM     23  C   UNL     1       1.441   6.270   5.199  0.00  0.00    +0.023 A 
ATOM     24  C   UNL     1       0.706   5.560   4.271  0.00  0.00    +0.007 A 
BRANCH  22  25
ATOM     25  N   UNL     1       2.546   6.388   7.342  0.00  0.00    -0.333 N 
ATOM     26  C   UNL     1       3.069   7.728   7.032  0.00  0.00    +0.086 C 
ATOM     27  C   UNL     1       2.683   8.676   8.172  0.00  0.00    -0.060 C 
ATOM     28  N   UNL     1       3.152   8.122   9.448  0.00  0.00    +0.380 N 
ATOM     29  C   UNL     1       2.457   6.860   9.732  0.00  0.00    -0.060 C 
ATOM     30  C   UNL     1       2.827   5.824   8.671  0.00  0.00    +0.086 C 
ATOM     31  C   UNL     1       2.879   9.082  10.526  0.00  0.00    -0.096 C 
ATOM     32  H   UNL     1       4.145   7.953   9.396  0.00  0.00    -0.082 HD
ENDBRANCH  22  25
ENDBRANCH  17  19
ENDBRANCH   4  17
TORSDOF 5
