REMARK  Name = ZINC40219856
REMARK  14 active torsions:
REMARK  status: ('A' for Active; 'I' for Inactive)
REMARK    1  A    between atoms: C_1  and  C_2
REMARK    2  A    between atoms: C_2  and  C_4
REMARK    3  A    between atoms: N_6  and  C_7
REMARK    4  A    between atoms: C_7  and  C_8
REMARK    5  A    between atoms: C_8  and  C_9
REMARK    6  A    between atoms: C_9  and  C_10
REMARK    7  A    between atoms: C_10  and  C_11
REMARK    8  A    between atoms: C_11  and  C_12
REMARK    9  A    between atoms: N_20  and  C_21
REMARK   10  A    between atoms: C_21  and  C_22
REMARK   11  A    between atoms: N_24  and  C_25
REMARK   12  A    between atoms: N_24  and  C_28
REMARK   13  A    between atoms: C_25  and  C_26
REMARK   14  A    between atoms: C_28  and  C_29
REMARK                            x       y       z     vdW  Elec       q    Type
REMARK                         _______ _______ _______ _____ _____    ______ ____
ROOT
ATOM      1  C   UNL     1      -0.101   0.692  -9.825  0.00  0.00    +0.111 A 
ATOM      2  N   UNL     1      -1.179   1.169 -10.375  0.00  0.00    -0.232 NA
ATOM      3  C   UNL     1      -0.841   2.029 -11.370  0.00  0.00    +0.089 A 
ATOM      4  C   UNL     1      -1.582   2.804 -12.267  0.00  0.00    +0.030 A 
ATOM      5  C   UNL     1      -0.939   3.591 -13.179  0.00  0.00    +0.002 A 
ATOM      6  C   UNL     1       0.448   3.631 -13.227  0.00  0.00    +0.002 A 
ATOM      7  C   UNL     1       1.199   2.874 -12.353  0.00  0.00    +0.028 A 
ATOM      8  C   UNL     1       0.562   2.069 -11.419  0.00  0.00    +0.069 A 
ATOM      9  N   UNL     1       1.002   1.217 -10.425  0.00  0.00    -0.319 N 
ENDROOT
BRANCH   1  10
ATOM     10  C   UNL     1      -0.076  -0.293  -8.685  0.00  0.00    +0.074 C 
BRANCH  10  11
ATOM     11  C   UNL     1      -0.074   0.465  -7.356  0.00  0.00    +0.008 C 
BRANCH  11  12
ATOM     12  C   UNL     1      -0.049  -0.536  -6.199  0.00  0.00    +0.002 C 
BRANCH  12  13
ATOM     13  C   UNL     1      -0.047   0.222  -4.869  0.00  0.00    +0.019 C 
BRANCH  13  14
ATOM     14  C   UNL     1      -0.023  -0.778  -3.712  0.00  0.00    +0.104 C 
BRANCH  14  17
ATOM     15  C   UNL     1      -0.000  -0.733  -1.276  0.00  0.00    +0.239 C 
ATOM     16  O   UNL     1       0.016  -1.949  -1.283  0.00  0.00    -0.271 OA
ATOM     17  N   UNL     1      -0.020  -0.053  -2.439  0.00  0.00    -0.312 N 
ATOM     18  H   UNL     1      -0.034   0.917  -2.434  0.00  0.00    +0.149 HD
BRANCH  15  20
ATOM     19  C   UNL     1      -0.018   1.503   0.010  0.00  0.00    +0.048 C 
ATOM     20  C   UNL     1       0.002  -0.004   0.002  0.00  0.00    +0.004 C 
ATOM     21  C   UNL     1       0.022  -0.675   1.150  0.00  0.00    +0.017 C 
ENDBRANCH  15  20
ENDBRANCH  14  17
ENDBRANCH  13  14
ENDBRANCH  12  13
ENDBRANCH  11  12
ENDBRANCH  10  11
ENDBRANCH   1  10
BRANCH   9  22
ATOM     22  C   UNL     1       2.397   0.929 -10.083  0.00  0.00    +0.219 C 
BRANCH  22  23
ATOM     23  C   UNL     1       2.881  -0.245 -10.894  0.00  0.00    +0.236 C 
ATOM     24  O   UNL     1       2.135  -0.787 -11.681  0.00  0.00    -0.274 OA
ATOM     25  N   UNL     1       4.144  -0.692 -10.745  0.00  0.00    -0.293 N 
BRANCH  25  26
ATOM     26  C   UNL     1       4.615  -1.833 -11.534  0.00  0.00    +0.135 C 
BRANCH  26  27
ATOM     27  C   UNL     1       5.210  -1.338 -12.827  0.00  0.00    -0.016 C 
ATOM     28  C   UNL     1       6.433  -1.674 -13.156  0.00  0.00    +0.005 C 
ENDBRANCH  26  27
ENDBRANCH  25  26
BRANCH  25  29
ATOM     29  C   UNL     1       5.046  -0.036  -9.795  0.00  0.00    +0.135 C 
BRANCH  29  30
ATOM     30  C   UNL     1       4.921  -0.697  -8.446  0.00  0.00    -0.016 C 
ATOM     31  C   UNL     1       5.986  -1.171  -7.848  0.00  0.00    +0.005 C 
ENDBRANCH  29  30
ENDBRANCH  25  29
ENDBRANCH  22  23
ENDBRANCH   9  22
TORSDOF 13
