REMARK  Name = ZINC35377886
REMARK  9 active torsions:
REMARK  status: ('A' for Active; 'I' for Inactive)
REMARK    1  A    between atoms: C_1  and  C_2
REMARK    2  A    between atoms: C_2  and  C_3
REMARK    3  A    between atoms: C_3  and  C_5
REMARK    4  A    between atoms: C_3  and  S_15
REMARK    5  A    between atoms: N_7  and  C_8
REMARK    6  A    between atoms: S_15  and  C_16
REMARK    7  A    between atoms: C_20  and  C_23
REMARK    8  A    between atoms: C_28  and  N_29
REMARK    9  A    between atoms: C_30  and  C_32
REMARK                            x       y       z     vdW  Elec       q    Type
REMARK                         _______ _______ _______ _____ _____    ______ ____
ROOT
ATOM      1  C   UNL     1       0.536   1.847  -3.133  0.00  0.00    +0.213 A 
ATOM      2  N   UNL     1      -0.252   2.539  -3.947  0.00  0.00    -0.180 NA
ATOM      3  C   UNL     1      -0.298   3.861  -3.843  0.00  0.00    +0.300 A 
ATOM      4  O   UNL     1      -1.094   4.593  -4.660  0.00  0.00    -0.263 OA
ATOM      5  C   UNL     1       0.496   4.487  -2.865  0.00  0.00    +0.161 A 
ATOM      6  N   UNL     1       1.263   3.737  -2.082  0.00  0.00    -0.141 NA
ATOM      7  N   UNL     1       1.274   2.457  -2.213  0.00  0.00    -0.122 NA
ENDROOT
BRANCH   5   8
ATOM      8  C   UNL     1       0.478   5.960  -2.712  0.00  0.00    +0.029 A 
ATOM      9  C   UNL     1       0.608   6.782  -3.829  0.00  0.00    +0.012 A 
ATOM     10  C   UNL     1       0.590   8.154  -3.681  0.00  0.00    +0.001 A 
ATOM     11  C   UNL     1       0.445   8.719  -2.425  0.00  0.00    +0.002 A 
ATOM     12  C   UNL     1       0.317   7.914  -1.309  0.00  0.00    +0.024 A 
ATOM     13  C   UNL     1       0.326   6.534  -1.444  0.00  0.00    +0.043 A 
BRANCH  13  14
ATOM     14  N   UNL     1       0.189   5.718  -0.317  0.00  0.00    -0.285 N 
ATOM     15  C   UNL     1       0.612   6.155   0.886  0.00  0.00    +0.214 C 
ATOM     16  O   UNL     1       1.034   7.286   1.007  0.00  0.00    -0.276 OA
ATOM     17  C   UNL     1       0.561   5.238   2.081  0.00  0.00    +0.109 C 
ATOM     18  H   UNL     1      -0.210   4.838  -0.400  0.00  0.00    +0.155 HD
ENDBRANCH  13  14
ENDBRANCH   5   8
BRANCH   1  19
ATOM     19  S   UNL     1       0.598   0.091  -3.271  0.00  0.00    -0.072 S 
BRANCH  19  20
ATOM     20  C   UNL     1       1.687  -0.418  -1.912  0.00  0.00    +0.140 C 
BRANCH  20  21
ATOM     21  C   UNL     1       3.081   0.097  -2.166  0.00  0.00    +0.231 C 
ATOM     22  O   UNL     1       3.415   0.415  -3.288  0.00  0.00    -0.274 OA
ATOM     23  N   UNL     1       3.955   0.205  -1.146  0.00  0.00    -0.285 N 
ATOM     24  H   UNL     1       3.668   0.015  -0.239  0.00  0.00    +0.155 HD
BRANCH  23  25
ATOM     25  C   UNL     1       5.278   0.590  -1.396  0.00  0.00    +0.034 A 
ATOM     26  C   UNL     1       5.973   1.339  -0.456  0.00  0.00    +0.026 A 
ATOM     27  C   UNL     1       7.278   1.717  -0.705  0.00  0.00    +0.040 A 
ATOM     28  C   UNL     1       7.893   1.351  -1.890  0.00  0.00    +0.124 A 
ATOM     29  C   UNL     1       7.201   0.604  -2.829  0.00  0.00    +0.040 A 
ATOM     30  C   UNL     1       5.898   0.218  -2.581  0.00  0.00    +0.026 A 
ATOM     31  F   UNL     1       9.169   1.723  -2.131  0.00  0.00    -0.205 F 
ENDBRANCH  23  25
ENDBRANCH  20  21
BRANCH  20  33
ATOM     32  C   UNL     1       0.327  -2.460  -1.443  0.00  0.00    +0.005 C 
ATOM     33  C   UNL     1       1.716  -1.945  -1.826  0.00  0.00    +0.020 C 
ENDBRANCH  20  33
ENDBRANCH  19  20
ENDBRANCH   1  19
TORSDOF 7
