REMARK  Name = ZINC44938347
REMARK  5 active torsions:
REMARK  status: ('A' for Active; 'I' for Inactive)
REMARK    1  A    between atoms: C_3  and  N_25
REMARK    2  A    between atoms: C_6  and  N_7
REMARK    3  A    between atoms: C_8  and  C_10
REMARK    4  A    between atoms: N_13  and  C_16
REMARK    5  A    between atoms: C_16  and  C_17
REMARK                            x       y       z     vdW  Elec       q    Type
REMARK                         _______ _______ _______ _____ _____    ______ ____
ROOT
ATOM      1  N   UNL     1      -1.201  -0.721   0.010  0.00  0.00    -0.285 N 
ATOM      2  C   UNL     1      -1.001  -2.050   0.113  0.00  0.00    +0.220 C 
ATOM      3  O   UNL     1       0.122  -2.484   0.264  0.00  0.00    -0.275 OA
ATOM      4  H   UNL     1      -2.104  -0.368  -0.032  0.00  0.00    +0.155 HD
ENDROOT
BRANCH   2   5
ATOM      5  C   UNL     1      -2.171  -2.996   0.042  0.00  0.00    +0.072 C 
ATOM      6  C   UNL     1      -3.149  -2.688   1.180  0.00  0.00    -0.006 C 
ATOM      7  C   UNL     1      -4.294  -3.703   1.150  0.00  0.00    -0.078 C 
ATOM      8  N   UNL     1      -3.756  -5.058   1.317  0.00  0.00    +0.382 N 
ATOM      9  C   UNL     1      -2.874  -5.387   0.192  0.00  0.00    -0.078 C 
ATOM     10  C   UNL     1      -1.674  -4.437   0.185  0.00  0.00    -0.006 C 
ATOM     11  H   UNL     1      -3.233  -5.107   2.179  0.00  0.00    -0.081 HD
BRANCH   8  12
ATOM     12  C   UNL     1      -4.865  -6.021   1.366  0.00  0.00    -0.042 C 
BRANCH  12  13
ATOM     13  C   UNL     1      -4.324  -7.396   1.661  0.00  0.00    -0.046 A 
ATOM     14  C   UNL     1      -4.141  -8.301   0.632  0.00  0.00    +0.004 A 
ATOM     15  C   UNL     1      -3.644  -9.563   0.902  0.00  0.00    +0.020 A 
ATOM     16  C   UNL     1      -3.330  -9.920   2.201  0.00  0.00    +0.042 A 
ATOM     17  C   UNL     1      -3.513  -9.014   3.231  0.00  0.00    +0.040 A 
ATOM     18  C   UNL     1      -4.006  -7.750   2.959  0.00  0.00    +0.044 A 
ATOM     19 CL   UNL     1      -4.230  -6.610   4.250  0.00  0.00    -0.083 Cl
ATOM     20 CL   UNL     1      -2.708 -11.505   2.540  0.00  0.00    -0.083 Cl
ENDBRANCH  12  13
ENDBRANCH   8  12
ENDBRANCH   2   5
BRANCH   1  26
ATOM     21  C   UNL     1       1.064  -0.238  -0.677  0.00  0.00    +0.025 A 
ATOM     22  C   UNL     1       2.143   0.621  -0.724  0.00  0.00    +0.025 A 
ATOM     23  C   UNL     1       2.059   1.875  -0.133  0.00  0.00    +0.036 A 
ATOM     24  C   UNL     1       0.889   2.264   0.505  0.00  0.00    +0.025 A 
ATOM     25  C   UNL     1      -0.190   1.405   0.552  0.00  0.00    +0.025 A 
ATOM     26  C   UNL     1      -0.106   0.151  -0.038  0.00  0.00    +0.034 A 
BRANCH  23  27
ATOM     27  N   UNL     1       3.155   2.747  -0.181  0.00  0.00    -0.271 N 
ATOM     28  C   UNL     1       3.136   4.128   0.316  0.00  0.00    +0.114 C 
ATOM     29  C   UNL     1       4.620   4.534   0.460  0.00  0.00    +0.029 C 
ATOM     30  C   UNL     1       5.303   3.601  -0.567  0.00  0.00    +0.098 C 
ATOM     31  C   UNL     1       4.359   2.424  -0.682  0.00  0.00    +0.220 C 
ATOM     32  O   UNL     1       4.647   1.347  -1.160  0.00  0.00    -0.275 OA
ENDBRANCH  23  27
ENDBRANCH   1  26
TORSDOF 5
