REMARK  Name = ZINC08877589
REMARK  5 active torsions:
REMARK  status: ('A' for Active; 'I' for Inactive)
REMARK    1  A    between atoms: C_1  and  C_2
REMARK    2  A    between atoms: C_9  and  C_36
REMARK    3  A    between atoms: C_10  and  C_16
REMARK    4  A    between atoms: C_16  and  C_17
REMARK    5  A    between atoms: C_17  and  C_18
REMARK                            x       y       z     vdW  Elec       q    Type
REMARK                         _______ _______ _______ _____ _____    ______ ____
ROOT
ATOM      1  C   UNL     1       0.102  -2.562   7.144  0.00  0.00    +0.052 C 
ENDROOT
BRANCH   1  11
ATOM      2  C   UNL     1      -0.018   1.503   0.010  0.00  0.00    +0.047 C 
ATOM      3  C   UNL     1       0.002  -0.004   0.002  0.00  0.00    -0.005 A 
ATOM      4  C   UNL     1       0.009  -0.802  -1.073  0.00  0.00    +0.199 A 
ATOM      5  O   UNL     1       0.028  -2.093  -0.695  0.00  0.00    -0.463 OA
ATOM      6  C   UNL     1       0.035  -2.202   0.649  0.00  0.00    +0.139 A 
ATOM      7  C   UNL     1       0.025  -0.893   1.172  0.00  0.00    +0.024 A 
ATOM      8  C   UNL     1       0.035  -0.683   2.544  0.00  0.00    +0.023 A 
ATOM      9  C   UNL     1       0.058  -1.782   3.403  0.00  0.00    +0.022 A 
ATOM     10  C   UNL     1       0.068  -1.597   4.857  0.00  0.00    -0.030 A 
ATOM     11  C   UNL     1       0.090  -2.703   5.644  0.00  0.00    +0.041 A 
ATOM     12  C   UNL     1       0.102  -3.985   5.054  0.00  0.00    +0.341 A 
ATOM     13  O   UNL     1       0.121  -4.968   5.772  0.00  0.00    -0.245 OA
ATOM     14  O   UNL     1       0.092  -4.149   3.722  0.00  0.00    -0.422 OA
ATOM     15  C   UNL     1       0.071  -3.092   2.879  0.00  0.00    +0.143 A 
ATOM     16  C   UNL     1       0.053  -3.290   1.510  0.00  0.00    +0.093 A 
ATOM     17  C   UNL     1       0.056  -0.217   5.462  0.00  0.00    +0.045 C 
ENDBRANCH   1  11
BRANCH   1  18
ATOM     18  C   UNL     1      -1.329  -2.659   7.677  0.00  0.00    +0.101 C 
BRANCH  18  19
ATOM     19  C   UNL     1      -1.318  -2.518   9.177  0.00  0.00    +0.216 C 
ATOM     20  O   UNL     1      -0.268  -2.357   9.763  0.00  0.00    -0.276 OA
ATOM     21  N   UNL     1      -2.474  -2.572   9.868  0.00  0.00    -0.301 N 
ATOM     22  C   UNL     1      -2.482  -2.431  11.329  0.00  0.00    +0.113 C 
ATOM     23  C   UNL     1      -3.278  -3.562  11.964  0.00  0.00    +0.027 C 
ATOM     24  C   UNL     1      -4.648  -3.709  11.300  0.00  0.00    +0.018 C 
ATOM     25  C   UNL     1      -4.435  -3.998   9.812  0.00  0.00    +0.054 C 
ATOM     26  C   UNL     1      -3.756  -2.767   9.174  0.00  0.00    +0.117 C 
ATOM     27  C   UNL     1      -3.520  -5.189   9.649  0.00  0.00    +0.027 A 
ATOM     28  C   UNL     1      -3.652  -5.930   8.517  0.00  0.00    +0.022 A 
ATOM     29  C   UNL     1      -2.794  -7.007   8.267  0.00  0.00    +0.007 A 
ATOM     30  C   UNL     1      -1.807  -7.285   9.167  0.00  0.00    +0.070 A 
ATOM     31  C   UNL     1      -1.696  -6.500  10.322  0.00  0.00    +0.251 A 
ATOM     32  O   UNL     1      -0.778  -6.698  11.102  0.00  0.00    -0.268 OA
ATOM     33  N   UNL     1      -2.598  -5.522  10.582  0.00  0.00    -0.312 N 
ATOM     34  C   UNL     1      -2.541  -4.887  11.894  0.00  0.00    +0.130 C 
ENDBRANCH  18  19
ENDBRANCH   1  18
TORSDOF 3
