REMARK  Name = ZINC12779955
REMARK  7 active torsions:
REMARK  status: ('A' for Active; 'I' for Inactive)
REMARK    1  A    between atoms: C_1  and  C_2
REMARK    2  A    between atoms: C_7  and  N_8
REMARK    3  A    between atoms: C_9  and  C_11
REMARK    4  A    between atoms: C_11  and  N_12
REMARK    5  A    between atoms: N_12  and  C_13
REMARK    6  A    between atoms: C_13  and  C_15
REMARK    7  A    between atoms: C_13  and  C_22
REMARK                            x       y       z     vdW  Elec       q    Type
REMARK                         _______ _______ _______ _____ _____    ______ ____
ROOT
ATOM      1  N   UNL     1      -0.241  -0.906   5.992  0.00  0.00    -0.297 NA
ATOM      2  H   UNL     1      -1.006  -1.551   5.862  0.00  0.00    +0.123 HD
ENDROOT
BRANCH   1   3
ATOM      3  C   UNL     1      -0.167   0.054   4.882  0.00  0.00    +0.178 C 
BRANCH   3   5
ATOM      4  N   UNL     1       0.026  -0.014   2.417  0.00  0.00    -0.284 N 
ATOM      5  C   UNL     1      -0.056  -0.694   3.578  0.00  0.00    +0.231 C 
ATOM      6  O   UNL     1      -0.040  -1.906   3.574  0.00  0.00    -0.274 OA
ATOM      7  H   UNL     1       0.079   0.955   2.425  0.00  0.00    +0.155 HD
BRANCH   4  14
ATOM      8  C   UNL     1      -1.265   1.183   0.182  0.00  0.00    +0.046 C 
ATOM      9  C   UNL     1      -0.584  -0.158   0.085  0.00  0.00    -0.028 A 
ATOM     10  C   UNL     1      -0.570  -0.840  -1.116  0.00  0.00    +0.020 A 
ATOM     11  C   UNL     1       0.055  -2.071  -1.206  0.00  0.00    +0.018 A 
ATOM     12  C   UNL     1       0.666  -2.623  -0.094  0.00  0.00    +0.017 A 
ATOM     13  C   UNL     1       0.655  -1.945   1.109  0.00  0.00    +0.024 A 
ATOM     14  C   UNL     1       0.034  -0.706   1.201  0.00  0.00    +0.036 A 
ATOM     15 BR   UNL     1       0.072  -3.002  -2.852  0.00  0.00    -0.050 Br
ENDBRANCH   4  14
ENDBRANCH   3   5
ENDBRANCH   1   3
BRANCH   1  16
ATOM     16  C   UNL     1      -0.350  -0.212   7.282  0.00  0.00    +0.122 C 
BRANCH  16  17
ATOM     17  C   UNL     1       0.179  -1.102   8.377  0.00  0.00    -0.025 A 
ATOM     18  C   UNL     1      -0.092  -2.457   8.357  0.00  0.00    +0.008 A 
ATOM     19  C   UNL     1       0.393  -3.275   9.361  0.00  0.00    +0.038 A 
ATOM     20  C   UNL     1       1.150  -2.735  10.387  0.00  0.00    +0.123 A 
ATOM     21  C   UNL     1       1.420  -1.377  10.406  0.00  0.00    +0.038 A 
ATOM     22  C   UNL     1       0.939  -0.563   9.399  0.00  0.00    +0.008 A 
ATOM     23  F   UNL     1       1.624  -3.533  11.369  0.00  0.00    -0.205 F 
ENDBRANCH  16  17
BRANCH  16  24
ATOM     24  C   UNL     1      -1.795   0.116   7.555  0.00  0.00    +0.011 A 
ATOM     25  C   UNL     1      -2.328   1.242   8.091  0.00  0.00    +0.013 A 
ATOM     26  C   UNL     1      -3.699   1.324   8.250  0.00  0.00    +0.008 A 
ATOM     27  C   UNL     1      -4.469   0.277   7.865  0.00  0.00    +0.045 A 
ATOM     28  S   UNL     1      -3.250  -0.873   7.250  0.00  0.00    -0.100 S 
ENDBRANCH  16  24
ENDBRANCH   1  16
TORSDOF 6
