REMARK  Name = ZINC38597848
REMARK  12 active torsions:
REMARK  status: ('A' for Active; 'I' for Inactive)
REMARK    1  A    between atoms: C_1  and  C_2
REMARK    2  A    between atoms: C_3  and  C_36
REMARK    3  A    between atoms: C_4  and  C_35
REMARK    4  A    between atoms: C_5  and  S_10
REMARK    5  A    between atoms: C_6  and  C_9
REMARK    6  A    between atoms: C_7  and  C_8
REMARK    7  A    between atoms: S_10  and  N_13
REMARK    8  A    between atoms: N_13  and  C_14
REMARK    9  A    between atoms: C_14  and  C_15
REMARK   10  A    between atoms: C_15  and  C_17
REMARK   11  A    between atoms: C_15  and  N_22
REMARK   12  A    between atoms: N_25  and  C_28
REMARK                            x       y       z     vdW  Elec       q    Type
REMARK                         _______ _______ _______ _____ _____    ______ ____
ROOT
ATOM      1  C   UNL     1       2.064  -5.277  -0.524  0.00  0.00    +0.015 C 
ENDROOT
BRANCH   1   2
ATOM      2  N   UNL     1       2.049  -4.917  -1.948  0.00  0.00    +0.389 N 
ATOM      3  C   UNL     1       0.700  -5.125  -2.489  0.00  0.00    -0.059 C 
ATOM      4  C   UNL     1       0.654  -4.643  -3.943  0.00  0.00    +0.086 C 
ATOM      5  N   UNL     1       1.720  -5.323  -4.694  0.00  0.00    -0.333 N 
ATOM      6  C   UNL     1       3.081  -5.304  -4.136  0.00  0.00    +0.086 C 
ATOM      7  C   UNL     1       3.013  -5.755  -2.673  0.00  0.00    -0.059 C 
ATOM      8  H   UNL     1       2.304  -3.947  -2.051  0.00  0.00    -0.081 HD
BRANCH   5   9
ATOM      9  C   UNL     1       1.448  -5.969  -5.904  0.00  0.00    +0.030 A 
ATOM     10  C   UNL     1       0.187  -5.870  -6.476  0.00  0.00    +0.026 A 
ATOM     11  C   UNL     1      -0.080  -6.508  -7.672  0.00  0.00    +0.040 A 
ATOM     12  C   UNL     1       0.910  -7.246  -8.300  0.00  0.00    +0.124 A 
ATOM     13  C   UNL     1       2.168  -7.345  -7.731  0.00  0.00    +0.040 A 
ATOM     14  C   UNL     1       2.441  -6.705  -6.538  0.00  0.00    +0.026 A 
ATOM     15  F   UNL     1       0.647  -7.870  -9.469  0.00  0.00    -0.205 F 
ENDBRANCH   5   9
ENDBRANCH   1   2
BRANCH   1  16
ATOM     16  C   UNL     1       3.430  -5.002   0.049  0.00  0.00    +0.093 A 
ATOM     17  C   UNL     1       4.088  -5.784   0.925  0.00  0.00    +0.043 A 
ATOM     18  C   UNL     1       5.324  -5.151   1.191  0.00  0.00    +0.041 A 
ATOM     19  C   UNL     1       5.348  -4.021   0.462  0.00  0.00    +0.195 A 
ATOM     20  O   UNL     1       4.201  -3.939  -0.232  0.00  0.00    -0.469 OA
ENDBRANCH   1  16
BRANCH   1  21
ATOM     21  C   UNL     1       1.021  -4.444   0.224  0.00  0.00    +0.098 C 
BRANCH  21  22
ATOM     22  N   UNL     1       1.268  -3.020  -0.019  0.00  0.00    -0.191 NA
ATOM     23  H   UNL     1       2.111  -2.733  -0.403  0.00  0.00    +0.148 HD
BRANCH  22  24
ATOM     24  S   UNL     1       0.108  -1.902   0.363  0.00  0.00    +0.059 S 
ATOM     25  O   UNL     1      -1.111  -2.374  -0.194  0.00  0.00    -0.153 OA
ATOM     26  O   UNL     1       0.650  -0.628   0.041  0.00  0.00    -0.153 OA
BRANCH  24  31
ATOM     27  C   UNL     1      -0.573  -2.018   6.357  0.00  0.00    +0.044 C 
ATOM     28  C   UNL     1      -0.403  -1.989   4.860  0.00  0.00    -0.044 A 
ATOM     29  C   UNL     1      -1.183  -2.802   4.060  0.00  0.00    -0.043 A 
ATOM     30  C   UNL     1      -1.028  -2.775   2.687  0.00  0.00    -0.021 A 
ATOM     31  C   UNL     1      -0.092  -1.935   2.114  0.00  0.00    +0.112 A 
ATOM     32  C   UNL     1       0.688  -1.121   2.914  0.00  0.00    -0.021 A 
ATOM     33  C   UNL     1       0.529  -1.145   4.287  0.00  0.00    -0.043 A 
ATOM     34  C   UNL     1       1.376  -0.254   5.159  0.00  0.00    +0.044 C 
ATOM     35  C   UNL     1       1.709  -0.205   2.289  0.00  0.00    +0.046 C 
ATOM     36  C   UNL     1      -1.878  -3.663   1.814  0.00  0.00    +0.046 C 
ATOM     37  C   UNL     1      -2.204  -3.718   4.685  0.00  0.00    +0.044 C 
ENDBRANCH  24  31
ENDBRANCH  22  24
ENDBRANCH  21  22
ENDBRANCH   1  21
TORSDOF 7
