REMARK  Name = ZINC34774593
REMARK  11 active torsions:
REMARK  status: ('A' for Active; 'I' for Inactive)
REMARK    1  A    between atoms: C_1  and  C_2
REMARK    2  A    between atoms: C_2  and  N_3
REMARK    3  A    between atoms: N_3  and  C_4
REMARK    4  A    between atoms: C_4  and  C_5
REMARK    5  A    between atoms: C_6  and  C_8
REMARK    6  A    between atoms: C_8  and  N_9
REMARK    7  A    between atoms: C_17  and  C_35
REMARK    8  A    between atoms: C_22  and  S_24
REMARK    9  A    between atoms: S_24  and  C_25
REMARK   10  A    between atoms: C_25  and  C_26
REMARK   11  A    between atoms: C_29  and  N_32
REMARK                            x       y       z     vdW  Elec       q    Type
REMARK                         _______ _______ _______ _____ _____    ______ ____
ROOT
ATOM      1  N   UNL     1      -1.331  -1.473  -3.957  0.00  0.00    +0.387 N 
ATOM      2  C   UNL     1      -1.106  -2.736  -4.671  0.00  0.00    -0.059 C 
ATOM      3  C   UNL     1      -1.877  -2.717  -5.995  0.00  0.00    +0.088 C 
ATOM      4  N   UNL     1      -3.290  -2.425  -5.708  0.00  0.00    -0.318 N 
ATOM      5  C   UNL     1      -3.599  -1.264  -4.858  0.00  0.00    +0.088 C 
ATOM      6  C   UNL     1      -2.747  -1.352  -3.588  0.00  0.00    -0.059 C 
ATOM      7  C   UNL     1      -4.299  -3.218  -6.223  0.00  0.00    +0.134 A 
ATOM      8  C   UNL     1      -4.776  -3.006  -7.546  0.00  0.00    +0.051 A 
ATOM      9  C   UNL     1      -4.360  -2.026  -8.536  0.00  0.00    -0.031 A 
ATOM     10  C   UNL     1      -4.959  -2.012  -9.735  0.00  0.00    +0.051 A 
ATOM     11  S   UNL     1      -6.147  -3.336  -9.623  0.00  0.00    -0.077 S 
ATOM     12  C   UNL     1      -5.807  -3.873  -7.968  0.00  0.00    +0.115 A 
ATOM     13  N   UNL     1      -6.284  -4.812  -7.175  0.00  0.00    -0.215 NA
ATOM     14  C   UNL     1      -5.801  -4.964  -5.949  0.00  0.00    +0.191 A 
ATOM     15  N   UNL     1      -4.827  -4.185  -5.492  0.00  0.00    -0.206 NA
ATOM     16  C   UNL     1      -3.268  -1.037  -8.218  0.00  0.00    +0.045 C 
ATOM     17  H   UNL     1      -1.073  -0.701  -4.554  0.00  0.00    -0.081 HD
ENDROOT
BRANCH   1  18
ATOM     18  C   UNL     1      -0.506  -1.446  -2.741  0.00  0.00    +0.019 C 
BRANCH  18  20
ATOM     19  N   UNL     1       1.899  -1.423  -2.166  0.00  0.00    -0.304 N 
ATOM     20  C   UNL     1       0.951  -1.446  -3.124  0.00  0.00    +0.199 C 
ATOM     21  O   UNL     1       1.272  -1.466  -4.293  0.00  0.00    -0.278 OA
BRANCH  19  23
ATOM     22  C   UNL     1       1.371   0.052  -0.288  0.00  0.00    +0.024 C 
ATOM     23  C   UNL     1       1.512  -1.399  -0.753  0.00  0.00    +0.104 C 
ENDBRANCH  19  23
BRANCH  19  24
ATOM     24  C   UNL     1       3.316  -1.423  -2.537  0.00  0.00    +0.104 C 
ATOM     25  C   UNL     1       3.817  -2.865  -2.640  0.00  0.00    +0.024 C 
ENDBRANCH  19  24
ENDBRANCH  18  20
ENDBRANCH   1  18
BRANCH  14  26
ATOM     26  S   UNL     1      -6.458  -6.226  -4.910  0.00  0.00    -0.081 S 
BRANCH  26  27
ATOM     27  C   UNL     1      -7.727  -7.021  -5.934  0.00  0.00    +0.112 C 
BRANCH  27  28
ATOM     28  C   UNL     1      -8.377  -8.135  -5.155  0.00  0.00    -0.037 A 
ATOM     29  C   UNL     1      -7.854  -9.413  -5.210  0.00  0.00    +0.007 A 
ATOM     30  C   UNL     1      -8.450 -10.435  -4.495  0.00  0.00    +0.033 A 
ATOM     31  C   UNL     1      -9.568 -10.179  -3.724  0.00  0.00    +0.126 A 
ATOM     32  C   UNL     1     -10.090  -8.900  -3.668  0.00  0.00    +0.033 A 
ATOM     33  C   UNL     1      -9.492  -7.877  -4.380  0.00  0.00    +0.007 A 
BRANCH  31  34
ATOM     34  N   UNL     1     -10.207 -11.273  -2.959  0.00  0.00    +0.056 N 
ATOM     35  O   UNL     1      -9.750 -12.392  -3.009  0.00  0.00    -0.126 OA
ATOM     36  O   UNL     1     -11.185 -11.049  -2.285  0.00  0.00    -0.126 OA
ENDBRANCH  31  34
ENDBRANCH  27  28
ENDBRANCH  26  27
ENDBRANCH  14  26
TORSDOF 8
