REMARK  Name = ZINC19827262
REMARK  7 active torsions:
REMARK  status: ('A' for Active; 'I' for Inactive)
REMARK    1  A    between atoms: C_1  and  C_2
REMARK    2  A    between atoms: C_5  and  C_8
REMARK    3  A    between atoms: C_10  and  C_14
REMARK    4  A    between atoms: C_17  and  S_20
REMARK    5  A    between atoms: N_18  and  N_19
REMARK    6  A    between atoms: S_20  and  C_21
REMARK    7  A    between atoms: C_21  and  C_22
REMARK                            x       y       z     vdW  Elec       q    Type
REMARK                         _______ _______ _______ _____ _____    ______ ____
ROOT
ATOM      1  C   UNL     1       9.434   4.982   1.303  0.00  0.00    +0.199 A 
ATOM      2  N   UNL     1       8.646   5.762   0.597  0.00  0.00    -0.125 NA
ATOM      3  N   UNL     1       7.454   5.281   0.580  0.00  0.00    -0.120 NA
ATOM      4  C   UNL     1       7.406   4.170   1.281  0.00  0.00    +0.209 A 
ATOM      5  N   UNL     1       8.663   3.938   1.762  0.00  0.00    -0.223 N 
ENDROOT
BRANCH   1   8
ATOM      6  C   UNL     1      12.906   6.107   1.717  0.00  0.00    +0.093 A 
ATOM      7  C   UNL     1      11.573   6.343   1.346  0.00  0.00    +0.061 A 
ATOM      8  C   UNL     1      10.872   5.187   1.555  0.00  0.00    +0.105 A 
ATOM      9  N   UNL     1      11.748   4.256   2.034  0.00  0.00    -0.273 N 
ATOM     10  H   UNL     1      11.398   3.241   2.271  0.00  0.00    +0.189 HD
ATOM     11  N   UNL     1      13.009   4.859   2.125  0.00  0.00    -0.173 NA
BRANCH   6  16
ATOM     12  C   UNL     1      17.199   9.939   1.474  0.00  0.00    +0.044 C 
ATOM     13  C   UNL     1      16.076   8.937   1.538  0.00  0.00    -0.050 A 
ATOM     14  C   UNL     1      16.323   7.653   1.989  0.00  0.00    +0.004 A 
ATOM     15  C   UNL     1      15.298   6.730   2.050  0.00  0.00    +0.010 A 
ATOM     16  C   UNL     1      14.012   7.095   1.655  0.00  0.00    +0.002 A 
ATOM     17  C   UNL     1      13.770   8.388   1.196  0.00  0.00    +0.010 A 
ATOM     18  C   UNL     1      14.802   9.303   1.145  0.00  0.00    +0.004 A 
ENDBRANCH   6  16
ENDBRANCH   1   8
BRANCH   5  19
ATOM     19  N   UNL     1       9.070   2.890   2.537  0.00  0.00    -0.295 N 
ATOM     20  H   UNL     1       8.349   2.116   2.838  0.00  0.00    +0.163 HD
ATOM     21  H   UNL     1      10.120   2.820   2.860  0.00  0.00    +0.163 HD
ENDBRANCH   5  19
BRANCH   4  22
ATOM     22  S   UNL     1       5.985   3.161   1.543  0.00  0.00    -0.075 S 
BRANCH  22  23
ATOM     23  C   UNL     1       4.752   4.107   0.614  0.00  0.00    +0.174 C 
BRANCH  23  24
ATOM     24  C   UNL     1       3.417   3.413   0.700  0.00  0.00    +0.234 C 
ATOM     25  O   UNL     1       3.360   2.248   1.034  0.00  0.00    -0.274 OA
ATOM     26  N   UNL     1       2.288   4.087   0.406  0.00  0.00    -0.237 N 
ATOM     27  C   UNL     1       1.067   3.401   0.405  0.00  0.00    +0.055 A 
ATOM     28  C   UNL     1       0.997   2.098  -0.063  0.00  0.00    +0.025 A 
ATOM     29  C   UNL     1      -0.213   1.427  -0.062  0.00  0.00    +0.002 A 
ATOM     30  C   UNL     1      -1.359   2.050   0.397  0.00  0.00    +0.001 A 
ATOM     31  C   UNL     1      -1.300   3.349   0.872  0.00  0.00    +0.017 A 
ATOM     32  C   UNL     1      -0.093   4.023   0.874  0.00  0.00    +0.035 A 
ATOM     33  S   UNL     1       0.013   5.683   1.468  0.00  0.00    -0.086 S 
ATOM     34  C   UNL     1       1.369   6.330   0.541  0.00  0.00    +0.035 A 
ATOM     35  C   UNL     1       2.367   5.453   0.108  0.00  0.00    +0.055 A 
ATOM     36  C   UNL     1       3.438   5.949  -0.621  0.00  0.00    +0.025 A 
ATOM     37  C   UNL     1       3.509   7.299  -0.911  0.00  0.00    +0.002 A 
ATOM     38  C   UNL     1       2.519   8.162  -0.480  0.00  0.00    +0.001 A 
ATOM     39  C   UNL     1       1.446   7.679   0.248  0.00  0.00    +0.017 A 
ENDBRANCH  23  24
ENDBRANCH  22  23
ENDBRANCH   4  22
TORSDOF 6
