REMARK  Name = ZINC02113625
REMARK  3 active torsions:
REMARK  status: ('A' for Active; 'I' for Inactive)
REMARK    1  A    between atoms: C_1  and  C_2
REMARK    2  A    between atoms: C_2  and  C_3
REMARK    3  A    between atoms: C_8  and  N_9
REMARK                            x       y       z     vdW  Elec       q    Type
REMARK                         _______ _______ _______ _____ _____    ______ ____
ROOT
ATOM      1  N   UNL     1       2.834  -0.263  -0.114  0.00  0.00    -0.269 N 
ATOM      2  C   UNL     1       4.165  -0.474  -0.091  0.00  0.00    +0.306 C 
ATOM      3  O   UNL     1       4.735  -0.871  -1.089  0.00  0.00    -0.252 OA
ATOM      4  N   UNL     1       4.864  -0.246   1.038  0.00  0.00    -0.284 N 
ATOM      5  C   UNL     1       6.328  -0.353   1.049  0.00  0.00    +0.114 C 
ATOM      6  C   UNL     1       6.782  -1.235   2.203  0.00  0.00    +0.027 C 
ATOM      7  C   UNL     1       6.136  -0.797   3.518  0.00  0.00    +0.018 C 
ATOM      8  C   UNL     1       4.616  -0.891   3.363  0.00  0.00    +0.054 C 
ATOM      9  C   UNL     1       4.177   0.123   2.286  0.00  0.00    +0.119 C 
ATOM     10  C   UNL     1       4.235  -2.277   2.900  0.00  0.00    +0.027 A 
ATOM     11  C   UNL     1       2.998  -2.732   3.235  0.00  0.00    +0.022 A 
ATOM     12  C   UNL     1       2.552  -3.979   2.785  0.00  0.00    +0.007 A 
ATOM     13  C   UNL     1       3.369  -4.721   1.982  0.00  0.00    +0.070 A 
ATOM     14  C   UNL     1       4.637  -4.222   1.652  0.00  0.00    +0.251 A 
ATOM     15  O   UNL     1       5.351  -4.846   0.884  0.00  0.00    -0.268 OA
ATOM     16  N   UNL     1       5.077  -3.053   2.179  0.00  0.00    -0.312 N 
ATOM     17  C   UNL     1       6.475  -2.701   1.956  0.00  0.00    +0.130 C 
ATOM     18  H   UNL     1       2.389   0.114   0.661  0.00  0.00    +0.156 HD
ENDROOT
BRANCH   1  24
ATOM     19  C   UNL     1       0.757  -0.946  -1.141  0.00  0.00    -0.026 A 
ATOM     20  C   UNL     1       0.028  -1.260  -2.271  0.00  0.00    +0.005 A 
ATOM     21  C   UNL     1       0.628  -1.223  -3.516  0.00  0.00    +0.000 A 
ATOM     22  C   UNL     1       1.961  -0.872  -3.634  0.00  0.00    +0.002 A 
ATOM     23  C   UNL     1       2.696  -0.557  -2.508  0.00  0.00    +0.023 A 
ATOM     24  C   UNL     1       2.094  -0.587  -1.257  0.00  0.00    +0.038 A 
BRANCH  19  26
ATOM     25  C   UNL     1      -0.394   0.413   0.584  0.00  0.00    +0.009 C 
ATOM     26  C   UNL     1       0.102  -0.986   0.215  0.00  0.00    +0.033 C 
ENDBRANCH  19  26
ENDBRANCH   1  24
TORSDOF 2
