REMARK  Name = ZINC01838693
REMARK  10 active torsions:
REMARK  status: ('A' for Active; 'I' for Inactive)
REMARK    1  A    between atoms: C_1  and  C_2
REMARK    2  A    between atoms: C_2  and  O_3
REMARK    3  A    between atoms: O_3  and  C_4
REMARK    4  A    between atoms: C_7  and  O_10
REMARK    5  A    between atoms: O_10  and  C_11
REMARK    6  A    between atoms: C_13  and  N_20
REMARK    7  A    between atoms: C_15  and  N_17
REMARK    8  A    between atoms: C_21  and  C_23
REMARK    9  A    between atoms: C_28  and  C_39
REMARK   10  A    between atoms: C_31  and  C_34
REMARK                            x       y       z     vdW  Elec       q    Type
REMARK                         _______ _______ _______ _____ _____    ______ ____
ROOT
ATOM      1  N   UNL     1       0.986   0.454  -5.372  0.00  0.00    -0.280 N 
ATOM      2  C   UNL     1       0.694   1.510  -4.587  0.00  0.00    +0.268 C 
ATOM      3  O   UNL     1       0.629   2.625  -5.067  0.00  0.00    -0.268 OA
ATOM      4  H   UNL     1       1.140  -0.538  -4.924  0.00  0.00    +0.155 HD
ENDROOT
BRANCH   2   5
ATOM      5  C   UNL     1       0.454   1.313  -3.143  0.00  0.00    +0.149 A 
ATOM      6  C   UNL     1       0.140   2.326  -2.209  0.00  0.00    +0.078 A 
ATOM      7  C   UNL     1      -0.001   1.738  -1.004  0.00  0.00    +0.119 A 
ATOM      8  N   UNL     1       0.210   0.398  -1.157  0.00  0.00    -0.238 N 
ATOM      9  N   UNL     1       0.494   0.159  -2.501  0.00  0.00    -0.164 NA
ATOM     10  C   UNL     1       0.135  -0.568  -0.057  0.00  0.00    +0.215 C 
ATOM     11  C   UNL     1      -0.660   0.055   1.096  0.00  0.00    +0.063 C 
ATOM     12  C   UNL     1      -0.111   1.450   1.415  0.00  0.00    +0.111 C 
ATOM     13  N   UNL     1      -0.308   2.313   0.233  0.00  0.00    -0.322 N 
ATOM     14  H   UNL     1      -0.675   3.342   0.358  0.00  0.00    +0.148 HD
BRANCH  12  15
ATOM     15  C   UNL     1      -0.852   2.029   2.592  0.00  0.00    +0.010 A 
ATOM     16  C   UNL     1      -0.475   2.087   3.893  0.00  0.00    +0.013 A 
ATOM     17  C   UNL     1      -1.326   2.672   4.812  0.00  0.00    +0.008 A 
ATOM     18  C   UNL     1      -2.513   3.169   4.385  0.00  0.00    +0.045 A 
ATOM     19  S   UNL     1      -2.451   2.821   2.635  0.00  0.00    -0.100 S 
ENDBRANCH  12  15
BRANCH  10  20
ATOM     20  C   UNL     1      -0.570  -1.839  -0.538  0.00  0.00    +0.412 C 
ATOM     21  F   UNL     1      -1.858  -1.519  -0.980  0.00  0.00    -0.168 F 
ATOM     22  F   UNL     1       0.157  -2.405  -1.590  0.00  0.00    -0.168 F 
ATOM     23  F   UNL     1      -0.653  -2.753   0.518  0.00  0.00    -0.168 F 
ENDBRANCH  10  20
ENDBRANCH   2   5
BRANCH   1  26
ATOM     24  C   UNL     1       0.518   1.812  -8.760  0.00  0.00    +0.132 A 
ATOM     25  C   UNL     1       0.406   1.648  -7.388  0.00  0.00    +0.069 A 
ATOM     26  C   UNL     1       1.093   0.621  -6.757  0.00  0.00    +0.039 A 
ATOM     27  C   UNL     1       1.883  -0.245  -7.502  0.00  0.00    +0.056 A 
ATOM     28  C   UNL     1       1.989  -0.081  -8.870  0.00  0.00    +0.131 A 
ATOM     29  C   UNL     1       1.309   0.944  -9.500  0.00  0.00    +0.079 A 
BRANCH  28  30
ATOM     30  N   UNL     1       2.831  -1.006  -9.662  0.00  0.00    +0.057 N 
ATOM     31  O   UNL     1       3.431  -1.910  -9.107  0.00  0.00    -0.126 OA
ATOM     32  O   UNL     1       2.925  -0.862 -10.867  0.00  0.00    -0.126 OA
ENDBRANCH  28  30
BRANCH  24  33
ATOM     33  O   UNL     1      -0.149   2.820  -9.381  0.00  0.00    -0.456 OA
BRANCH  33  37
ATOM     34  C   UNL     1      -3.528   1.858 -11.549  0.00  0.00    +0.121 A 
ATOM     35  C   UNL     1      -3.163   3.186 -11.386  0.00  0.00    +0.049 A 
ATOM     36  C   UNL     1      -2.033   3.508 -10.661  0.00  0.00    +0.050 A 
ATOM     37  C   UNL     1      -1.262   2.503 -10.095  0.00  0.00    +0.129 A 
ATOM     38  C   UNL     1      -1.624   1.174 -10.262  0.00  0.00    +0.050 A 
ATOM     39  C   UNL     1      -2.757   0.853 -10.983  0.00  0.00    +0.049 A 
BRANCH  34  40
ATOM     40  O   UNL     1      -4.641   1.541 -12.263  0.00  0.00    -0.492 OA
BRANCH  40  42
ATOM     41  C   UNL     1      -6.232  -0.006 -13.220  0.00  0.00    +0.048 C 
ATOM     42  C   UNL     1      -4.957   0.153 -12.390  0.00  0.00    +0.225 C 
ENDBRANCH  40  42
ENDBRANCH  34  40
ENDBRANCH  33  37
ENDBRANCH  24  33
ENDBRANCH   1  26
TORSDOF 9
