REMARK  Name = ZINC39674350
REMARK  8 active torsions:
REMARK  status: ('A' for Active; 'I' for Inactive)
REMARK    1  A    between atoms: C_1  and  C_2
REMARK    2  A    between atoms: C_6  and  C_9
REMARK    3  A    between atoms: C_13  and  C_22
REMARK    4  A    between atoms: N_24  and  C_25
REMARK    5  A    between atoms: C_25  and  C_27
REMARK    6  A    between atoms: C_25  and  C_28
REMARK    7  A    between atoms: C_29  and  C_35
REMARK    8  A    between atoms: C_32  and  C_34
REMARK                            x       y       z     vdW  Elec       q    Type
REMARK                         _______ _______ _______ _____ _____    ______ ____
ROOT
ATOM      1  C   UNL     1       0.108  -2.818   3.527  0.00  0.00    +0.252 C 
ATOM      2  O   UNL     1       1.078  -3.064   4.217  0.00  0.00    -0.270 OA
ATOM      3  N   UNL     1      -1.125  -3.159   3.951  0.00  0.00    -0.296 N 
ATOM      4  C   UNL     1      -2.416  -2.950   3.254  0.00  0.00    +0.121 C 
ATOM      5  C   UNL     1      -3.224  -4.237   3.536  0.00  0.00    +0.100 C 
ATOM      6  C   UNL     1      -2.617  -4.806   4.829  0.00  0.00    -0.004 C 
ATOM      7  C   UNL     1      -1.496  -3.833   5.219  0.00  0.00    +0.115 C 
ATOM      8  C   UNL     1      -3.674  -4.864   5.928  0.00  0.00    -0.010 C 
ATOM      9  C   UNL     1      -3.062  -5.487   7.186  0.00  0.00    -0.082 C 
ATOM     10  N   UNL     1      -2.574  -6.837   6.878  0.00  0.00    +0.379 N 
ATOM     11  C   UNL     1      -1.493  -6.764   5.887  0.00  0.00    -0.082 C 
ATOM     12  C   UNL     1      -2.038  -6.195   4.574  0.00  0.00    -0.010 C 
ATOM     13  H   UNL     1      -2.227  -7.268   7.721  0.00  0.00    -0.086 HD
ATOM     14  H   UNL     1      -3.331  -7.391   6.507  0.00  0.00    -0.086 HD
ENDROOT
BRANCH   1  20
ATOM     15  C   UNL     1       0.381   1.373   0.827  0.00  0.00    +0.047 C 
ATOM     16  C   UNL     1       0.412  -0.131   0.918  0.00  0.00    -0.014 A 
ATOM     17  C   UNL     1       0.604  -0.887  -0.225  0.00  0.00    +0.009 A 
ATOM     18  C   UNL     1       0.634  -2.268  -0.153  0.00  0.00    +0.039 A 
ATOM     19  C   UNL     1       0.474  -2.904   1.063  0.00  0.00    +0.138 A 
ATOM     20  C   UNL     1       0.280  -2.147   2.224  0.00  0.00    +0.107 A 
ATOM     21  C   UNL     1       0.256  -0.751   2.143  0.00  0.00    +0.141 A 
ATOM     22  F   UNL     1       0.076  -0.011   3.259  0.00  0.00    -0.204 F 
ATOM     23  F   UNL     1       0.503  -4.253   1.131  0.00  0.00    -0.205 F 
ENDBRANCH   1  20
BRANCH   5  24
ATOM     24  C   UNL     1      -4.681  -3.908   3.737  0.00  0.00    +0.219 C 
ATOM     25  O   UNL     1      -5.001  -2.839   4.213  0.00  0.00    -0.275 OA
ATOM     26  N   UNL     1      -5.628  -4.801   3.388  0.00  0.00    -0.309 N 
ATOM     27  H   UNL     1      -5.372  -5.655   3.007  0.00  0.00    +0.149 HD
BRANCH  26  28
ATOM     28  C   UNL     1      -7.044  -4.481   3.584  0.00  0.00    +0.100 C 
ATOM     29  C   UNL     1      -7.548  -3.653   2.400  0.00  0.00    +0.033 C 
BRANCH  28  30
ATOM     30  C   UNL     1      -7.839  -5.758   3.679  0.00  0.00    -0.001 C 
ATOM     31  C   UNL     1      -8.604  -6.177   4.689  0.00  0.00    +0.063 C 
ATOM     32  N   UNL     1      -9.159  -7.376   4.406  0.00  0.00    -0.159 NA
ATOM     33  N   UNL     1      -8.855  -7.832   3.301  0.00  0.00    -0.180 NA
ATOM     34  C   UNL     1      -7.960  -6.864   2.645  0.00  0.00    +0.154 C 
ATOM     35  C   UNL     1      -6.595  -7.495   2.366  0.00  0.00    +0.039 C 
ATOM     36  C   UNL     1      -8.821  -5.416   5.972  0.00  0.00    +0.067 C 
ENDBRANCH  28  30
ENDBRANCH  26  28
ENDBRANCH   5  24
TORSDOF 4
