REMARK  Name = ZINC19639170
REMARK  7 active torsions:
REMARK  status: ('A' for Active; 'I' for Inactive)
REMARK    1  A    between atoms: C_6  and  O_7
REMARK    2  A    between atoms: O_7  and  C_8
REMARK    3  A    between atoms: C_8  and  C_9
REMARK    4  A    between atoms: N_11  and  C_12
REMARK    5  A    between atoms: C_12  and  N_14
REMARK    6  A    between atoms: N_14  and  C_15
REMARK    7  A    between atoms: C_19  and  C_21
REMARK                            x       y       z     vdW  Elec       q    Type
REMARK                         _______ _______ _______ _____ _____    ______ ____
ROOT
ATOM      1  C   UNL     1       3.118   7.756  -0.252  0.00  0.00    +0.141 C 
ATOM      2  S   UNL     1       1.551   8.370  -0.562  0.00  0.00    -0.018 S 
ENDROOT
BRANCH   1   5
ATOM      3  C   UNL     1       2.320   5.580  -0.528  0.00  0.00    +0.256 C 
ATOM      4  O   UNL     1       1.210   6.015  -0.747  0.00  0.00    -0.272 OA
ATOM      5  N   UNL     1       3.336   6.426  -0.269  0.00  0.00    -0.265 N 
ATOM      6  H   UNL     1       4.344   6.031  -0.070  0.00  0.00    +0.157 HD
BRANCH   3   7
ATOM      7  C   UNL     1       2.564   4.093  -0.546  0.00  0.00    +0.324 C 
BRANCH   7   8
ATOM      8  O   UNL     1       1.342   3.413  -0.842  0.00  0.00    -0.483 OA
BRANCH   8  14
ATOM      9  C   UNL     1       0.238   1.333  -1.179  0.00  0.00    +0.047 A 
ATOM     10  C   UNL     1       0.287  -0.047  -1.235  0.00  0.00    +0.019 A 
ATOM     11  C   UNL     1       1.482  -0.707  -1.008  0.00  0.00    +0.018 A 
ATOM     12  C   UNL     1       2.629   0.013  -0.726  0.00  0.00    +0.019 A 
ATOM     13  C   UNL     1       2.584   1.392  -0.670  0.00  0.00    +0.047 A 
ATOM     14  C   UNL     1       1.388   2.056  -0.897  0.00  0.00    +0.121 A 
ATOM     15 BR   UNL     1       1.546  -2.595  -1.084  0.00  0.00    -0.050 Br
ENDBRANCH   8  14
ENDBRANCH   7   8
ENDBRANCH   3   7
ENDBRANCH   1   5
BRANCH   1  16
ATOM     16  N   UNL     1       4.135   8.602   0.007  0.00  0.00    -0.297 N 
ATOM     17  H   UNL     1       5.120   8.207   0.295  0.00  0.00    +0.154 HD
BRANCH  16  18
ATOM     18  C   UNL     1       3.937   9.984  -0.090  0.00  0.00    +0.033 A 
ATOM     19  C   UNL     1       3.204  10.509  -1.149  0.00  0.00    +0.025 A 
ATOM     20  C   UNL     1       3.001  11.872  -1.247  0.00  0.00    +0.022 A 
ATOM     21  C   UNL     1       3.533  12.724  -0.299  0.00  0.00    +0.055 A 
ATOM     22  C   UNL     1       4.276  12.207   0.766  0.00  0.00    +0.083 A 
ATOM     23  C   UNL     1       4.476  10.829   0.867  0.00  0.00    +0.039 A 
ATOM     24 CL   UNL     1       3.280  14.437  -0.431  0.00  0.00    -0.083 Cl
BRANCH  22  25
ATOM     25  C   UNL     1       4.846  13.115   1.781  0.00  0.00    +0.388 C 
ATOM     26  O   UNL     1       4.671  14.314   1.691  0.00  0.00    -0.241 OA
ATOM     27  O   UNL     1       5.561  12.614   2.807  0.00  0.00    -0.241 OA
ENDBRANCH  22  25
ENDBRANCH  16  18
ENDBRANCH   1  16
TORSDOF 7
