REMARK  Name = ZINC58951596
REMARK  7 active torsions:
REMARK  status: ('A' for Active; 'I' for Inactive)
REMARK    1  A    between atoms: C_3  and  O_19
REMARK    2  A    between atoms: C_6  and  C_7
REMARK    3  A    between atoms: N_8  and  N_9
REMARK    4  A    between atoms: C_10  and  C_12
REMARK    5  A    between atoms: C_12  and  C_13
REMARK    6  A    between atoms: O_19  and  C_20
REMARK    7  A    between atoms: C_20  and  C_21
REMARK                            x       y       z     vdW  Elec       q    Type
REMARK                         _______ _______ _______ _____ _____    ______ ____
ROOT
ATOM      1  C   UNL     1      -0.017   1.393   0.010  0.00  0.00    +0.013 A 
ATOM      2  C   UNL     1       1.168   2.096   0.002  0.00  0.00    +0.046 A 
ATOM      3  C   UNL     1       2.380   1.418  -0.013  0.00  0.00    +0.121 A 
ATOM      4  C   UNL     1       2.404   0.029  -0.021  0.00  0.00    +0.046 A 
ATOM      5  C   UNL     1       1.224  -0.682  -0.014  0.00  0.00    +0.013 A 
ATOM      6  C   UNL     1       0.002  -0.004   0.002  0.00  0.00    -0.005 A 
ENDROOT
BRANCH   6   7
ATOM      7  C   UNL     1      -1.263  -0.761   0.011  0.00  0.00    +0.138 C 
ATOM      8  N   UNL     1      -1.243  -2.058   0.003  0.00  0.00    -0.188 NA
BRANCH   8   9
ATOM      9  N   UNL     1      -2.446  -2.777   0.011  0.00  0.00    -0.207 N 
ATOM     10  C   UNL     1      -2.425  -4.125   0.004  0.00  0.00    +0.238 C 
ATOM     11  O   UNL     1      -1.365  -4.715  -0.010  0.00  0.00    -0.274 OA
ATOM     12  H   UNL     1      -3.293  -2.305   0.022  0.00  0.00    +0.177 HD
BRANCH  10  13
ATOM     13  C   UNL     1      -3.718  -4.898   0.013  0.00  0.00    +0.153 C 
BRANCH  13  14
ATOM     14  C   UNL     1      -3.420  -6.376   0.002  0.00  0.00    +0.059 A 
ATOM     15  C   UNL     1      -3.925  -7.206   0.946  0.00  0.00    +0.072 A 
ATOM     16  S   UNL     1      -3.243  -8.768   0.415  0.00  0.00    -0.061 S 
ATOM     17  C   UNL     1      -2.401  -8.210  -0.931  0.00  0.00    +0.156 A 
ATOM     18  N   UNL     1      -2.660  -6.919  -0.932  0.00  0.00    -0.230 NA
ATOM     19  N   UNL     1      -1.627  -8.934  -1.825  0.00  0.00    -0.338 N 
ATOM     20  H   UNL     1      -1.522  -9.891  -1.710  0.00  0.00    +0.144 HD
ATOM     21  H   UNL     1      -1.192  -8.483  -2.565  0.00  0.00    +0.144 HD
ENDBRANCH  13  14
ENDBRANCH  10  13
ENDBRANCH   8   9
ENDBRANCH   6   7
BRANCH   3  22
ATOM     22  O   UNL     1       3.546   2.115  -0.022  0.00  0.00    -0.487 OA
BRANCH  22  23
ATOM     23  C   UNL     1       4.756   1.356  -0.038  0.00  0.00    +0.266 C 
BRANCH  23  24
ATOM     24  C   UNL     1       5.937   2.292  -0.045  0.00  0.00    +0.008 A 
ATOM     25  C   UNL     1       5.735   3.659  -0.030  0.00  0.00    +0.010 A 
ATOM     26  C   UNL     1       6.817   4.519  -0.037  0.00  0.00    +0.020 A 
ATOM     27  C   UNL     1       8.104   4.010  -0.058  0.00  0.00    +0.042 A 
ATOM     28  C   UNL     1       8.307   2.642  -0.072  0.00  0.00    +0.040 A 
ATOM     29  C   UNL     1       7.223   1.783  -0.061  0.00  0.00    +0.049 A 
ATOM     30 CL   UNL     1       7.477   0.065  -0.072  0.00  0.00    -0.083 Cl
ATOM     31 CL   UNL     1       9.464   5.090  -0.067  0.00  0.00    -0.083 Cl
ENDBRANCH  23  24
ENDBRANCH  22  23
ENDBRANCH   3  22
TORSDOF 7
