REMARK  Name = ZINC40314501
REMARK  5 active torsions:
REMARK  status: ('A' for Active; 'I' for Inactive)
REMARK    1  A    between atoms: C_1  and  C_2
REMARK    2  A    between atoms: C_5  and  N_9
REMARK    3  A    between atoms: N_9  and  S_10
REMARK    4  A    between atoms: S_10  and  C_13
REMARK    5  A    between atoms: C_15  and  N_21
REMARK                            x       y       z     vdW  Elec       q    Type
REMARK                         _______ _______ _______ _____ _____    ______ ____
ROOT
ATOM      1  S   UNL     1       0.075  -5.008   1.404  0.00  0.00    +0.093 S 
ATOM      2  O   UNL     1       1.320  -4.722   2.026  0.00  0.00    -0.148 OA
ATOM      3  O   UNL     1      -1.170  -4.754   2.039  0.00  0.00    -0.148 OA
ENDROOT
BRANCH   1   4
ATOM      4  C   UNL     1       0.095  -6.723   1.002  0.00  0.00    +0.130 A 
ATOM      5  C   UNL     1       1.190  -7.497   1.337  0.00  0.00    +0.056 A 
ATOM      6  C   UNL     1       1.206  -8.849   1.021  0.00  0.00    +0.062 A 
ATOM      7  C   UNL     1       0.119  -9.420   0.368  0.00  0.00    +0.145 A 
ATOM      8  C   UNL     1      -0.973  -8.640   0.035  0.00  0.00    +0.062 A 
ATOM      9  C   UNL     1      -0.987  -7.294   0.357  0.00  0.00    +0.070 A 
ATOM     10 CL   UNL     1      -2.362  -6.319  -0.056  0.00  0.00    -0.081 Cl
ATOM     11  F   UNL     1       0.131 -10.735   0.058  0.00  0.00    -0.204 F 
BRANCH   6  12
ATOM     12  N   UNL     1       2.313  -9.634   1.359  0.00  0.00    -0.356 N 
ATOM     13  H   UNL     1       3.071  -9.235   1.814  0.00  0.00    +0.142 HD
ATOM     14  H   UNL     1       2.323 -10.579   1.137  0.00  0.00    +0.142 HD
ENDBRANCH   6  12
ENDBRANCH   1   4
BRANCH   1  15
ATOM     15  N   UNL     1       0.057  -4.170  -0.025  0.00  0.00    -0.095 NA
BRANCH  15  20
ATOM     16  C   UNL     1      -0.018   1.503   0.010  0.00  0.00    +0.044 C 
ATOM     17  C   UNL     1       0.002  -0.004   0.002  0.00  0.00    -0.048 A 
ATOM     18  C   UNL     1       0.006  -0.687  -1.200  0.00  0.00    +0.005 A 
ATOM     19  C   UNL     1       0.024  -2.068  -1.212  0.00  0.00    +0.030 A 
ATOM     20  C   UNL     1       0.039  -2.772  -0.016  0.00  0.00    +0.109 A 
ATOM     21  C   UNL     1       0.036  -2.083   1.192  0.00  0.00    +0.148 A 
ATOM     22  C   UNL     1       0.023  -0.700   1.197  0.00  0.00    +0.043 A 
ATOM     23  F   UNL     1       0.050  -2.763   2.359  0.00  0.00    -0.203 F 
ENDBRANCH  15  20
ENDBRANCH   1  15
TORSDOF 4
