REMARK  Name = ZINC39337577
REMARK  5 active torsions:
REMARK  status: ('A' for Active; 'I' for Inactive)
REMARK    1  A    between atoms: C_1  and  C_2
REMARK    2  A    between atoms: C_3  and  C_35
REMARK    3  A    between atoms: C_14  and  C_18
REMARK    4  A    between atoms: C_18  and  S_19
REMARK    5  A    between atoms: S_19  and  C_20
REMARK                            x       y       z     vdW  Elec       q    Type
REMARK                         _______ _______ _______ _____ _____    ______ ____
ROOT
ATOM      1  C   UNL     1       1.994  -4.698   1.500  0.00  0.00    +0.100 C 
ENDROOT
BRANCH   1  13
ATOM      2  C   UNL     1       4.362  -5.297   7.724  0.00  0.00    +0.041 C 
ATOM      3  C   UNL     1       4.019  -4.639   6.413  0.00  0.00    -0.049 C 
ATOM      4  C   UNL     1       4.937  -3.966   5.739  0.00  0.00    -0.016 C 
ATOM      5  S   UNL     1       4.117  -3.404   4.251  0.00  0.00    -0.106 S 
ATOM      6  C   UNL     1       2.704  -4.585   4.309  0.00  0.00    +0.154 C 
ATOM      7  C   UNL     1       2.622  -4.744   5.847  0.00  0.00    +0.134 C 
ATOM      8  C   UNL     1       1.796  -3.659   6.474  0.00  0.00    +0.248 C 
ATOM      9  O   UNL     1       1.897  -3.503   7.675  0.00  0.00    -0.273 OA
ATOM     10  N   UNL     1       0.968  -2.859   5.823  0.00  0.00    -0.159 NA
ATOM     11  C   UNL     1       0.833  -2.994   4.517  0.00  0.00    +0.150 C 
ATOM     12  N   UNL     1       1.500  -3.940   3.770  0.00  0.00    -0.294 N 
ATOM     13  C   UNL     1       0.894  -4.291   2.483  0.00  0.00    +0.097 C 
ATOM     14  C   UNL     1       0.118  -3.083   1.910  0.00  0.00    +0.100 C 
ATOM     15  S   UNL     1      -0.095  -2.083   3.473  0.00  0.00    -0.091 S 
ATOM     16  C   UNL     1       6.370  -3.724   6.139  0.00  0.00    +0.051 C 
ENDBRANCH   1  13
BRANCH   1  17
ATOM     17  S   UNL     1       3.079  -3.279   1.186  0.00  0.00    -0.086 S 
BRANCH  17  18
ATOM     18  C   UNL     1       4.276  -3.900   0.052  0.00  0.00    +0.170 A 
ATOM     19  N   UNL     1       5.267  -3.078  -0.399  0.00  0.00    -0.301 N 
ATOM     20  H   UNL     1       5.301  -2.159  -0.088  0.00  0.00    +0.171 HD
ATOM     21  C   UNL     1       6.199  -3.516  -1.265  0.00  0.00    +0.261 A 
ATOM     22  O   UNL     1       7.078  -2.769  -1.658  0.00  0.00    -0.267 OA
ATOM     23  C   UNL     1       6.143  -4.872  -1.719  0.00  0.00    +0.075 A 
ATOM     24  C   UNL     1       7.042  -5.554  -2.652  0.00  0.00    -0.023 A 
ATOM     25  C   UNL     1       6.775  -6.848  -2.923  0.00  0.00    -0.004 A 
ATOM     26  S   UNL     1       5.333  -7.231  -1.967  0.00  0.00    -0.073 S 
ATOM     27  C   UNL     1       5.090  -5.647  -1.204  0.00  0.00    +0.117 A 
ATOM     28  N   UNL     1       4.205  -5.154  -0.346  0.00  0.00    -0.216 NA
ATOM     29  C   UNL     1       7.536  -7.760  -3.837  0.00  0.00    +0.043 C 
ATOM     30  C   UNL     1       8.459  -6.904  -4.717  0.00  0.00    +0.005 C 
ATOM     31  C   UNL     1       9.204  -5.908  -3.823  0.00  0.00    +0.005 C 
ATOM     32  C   UNL     1       8.232  -4.851  -3.299  0.00  0.00    +0.037 C 
ENDBRANCH  17  18
ENDBRANCH   1  17
TORSDOF 3
