REMARK  Name = ZINC08738608
REMARK  5 active torsions:
REMARK  status: ('A' for Active; 'I' for Inactive)
REMARK    1  A    between atoms: C_1  and  N_50
REMARK    2  A    between atoms: C_3  and  C_25
REMARK    3  A    between atoms: C_5  and  C_18
REMARK    4  A    between atoms: C_18  and  C_20
REMARK    5  A    between atoms: C_29  and  N_31
REMARK                            x       y       z     vdW  Elec       q    Type
REMARK                         _______ _______ _______ _____ _____    ______ ____
ROOT
ATOM      1  C   UNL     1       0.969   2.343   1.381  0.00  0.00    -0.094 C 
ATOM      2  C   UNL     1       2.801   3.238   0.047  0.00  0.00    -0.068 C 
ATOM      3  C   UNL     1       3.402   4.650  -0.166  0.00  0.00    +0.013 C 
ATOM      4  C   UNL     1       2.918   5.425   1.083  0.00  0.00    +0.071 C 
ATOM      5  C   UNL     1       1.692   4.648   1.577  0.00  0.00    +0.051 C 
ATOM      6  C   UNL     1       0.480   5.537   1.642  0.00  0.00    -0.025 A 
ATOM      7  C   UNL     1      -0.207   6.268   0.699  0.00  0.00    +0.043 A 
ATOM      8  C   UNL     1      -1.315   7.013   1.072  0.00  0.00    +0.124 A 
ATOM      9  C   UNL     1      -1.731   7.013   2.393  0.00  0.00    +0.040 A 
ATOM     10  C   UNL     1      -1.041   6.285   3.340  0.00  0.00    +0.026 A 
ATOM     11  C   UNL     1       0.073   5.534   2.973  0.00  0.00    +0.036 A 
ATOM     12  N   UNL     1       0.919   4.723   3.734  0.00  0.00    -0.286 N 
ATOM     13  C   UNL     1       1.894   4.167   2.990  0.00  0.00    +0.212 C 
ATOM     14  O   UNL     1       2.767   3.422   3.383  0.00  0.00    -0.277 OA
ATOM     15  F   UNL     1      -1.991   7.731   0.149  0.00  0.00    -0.205 F 
ATOM     16  H   UNL     1       0.816   4.578   4.688  0.00  0.00    +0.155 HD
ATOM     17  N   UNL     1       1.497   3.536   0.651  0.00  0.00    +0.391 N 
ATOM     18  H   UNL     1       0.829   3.806  -0.081  0.00  0.00    -0.080 HD
ENDROOT
BRANCH   3  19
ATOM     19  C   UNL     1       4.908   4.588  -0.205  0.00  0.00    -0.043 A 
ATOM     20  C   UNL     1       5.557   3.394   0.045  0.00  0.00    +0.004 A 
ATOM     21  C   UNL     1       6.938   3.337   0.009  0.00  0.00    +0.002 A 
ATOM     22  C   UNL     1       7.669   4.475  -0.276  0.00  0.00    +0.033 A 
ATOM     23  C   UNL     1       7.020   5.669  -0.527  0.00  0.00    +0.126 A 
ATOM     24  C   UNL     1       5.639   5.725  -0.495  0.00  0.00    +0.036 A 
BRANCH  23  25
ATOM     25  N   UNL     1       7.803   6.888  -0.832  0.00  0.00    +0.056 N 
ATOM     26  O   UNL     1       9.020   6.838  -0.862  0.00  0.00    -0.126 OA
ATOM     27  O   UNL     1       7.231   7.940  -1.053  0.00  0.00    -0.126 OA
ENDBRANCH  23  25
ENDBRANCH   3  19
BRANCH   4  28
ATOM     28  C   UNL     1       3.992   5.439   2.141  0.00  0.00    +0.201 C 
ATOM     29  O   UNL     1       4.730   4.483   2.268  0.00  0.00    -0.289 OA
BRANCH  28  30
ATOM     30  C   UNL     1       4.139   6.563   2.984  0.00  0.00    +0.170 A 
ATOM     31  C   UNL     1       5.070   6.707   3.993  0.00  0.00    +0.053 A 
ATOM     32  C   UNL     1       4.852   7.970   4.559  0.00  0.00    +0.042 A 
ATOM     33  C   UNL     1       3.816   8.533   3.896  0.00  0.00    +0.196 A 
ATOM     34  O   UNL     1       3.390   7.686   2.951  0.00  0.00    -0.460 OA
ENDBRANCH  28  30
ENDBRANCH   4  28
TORSDOF 4
