REMARK  Name = ZINC39672149
REMARK  6 active torsions:
REMARK  status: ('A' for Active; 'I' for Inactive)
REMARK    1  A    between atoms: C_1  and  N_2
REMARK    2  A    between atoms: C_10  and  C_12
REMARK    3  A    between atoms: C_12  and  N_13
REMARK    4  A    between atoms: C_14  and  C_16
REMARK    5  A    between atoms: C_27  and  C_29
REMARK    6  A    between atoms: C_32  and  C_35
REMARK                            x       y       z     vdW  Elec       q    Type
REMARK                         _______ _______ _______ _____ _____    ______ ____
ROOT
ATOM      1  C   UNL     1       7.157  -3.744   2.459  0.00  0.00    +0.100 C 
ATOM      2  C   UNL     1       6.299  -4.652   3.368  0.00  0.00    +0.121 C 
ATOM      3  N   UNL     1       6.921  -5.992   3.252  0.00  0.00    -0.296 N 
ATOM      4  C   UNL     1       8.379  -5.721   3.229  0.00  0.00    +0.115 C 
ATOM      5  C   UNL     1       8.522  -4.447   2.373  0.00  0.00    -0.004 C 
ATOM      6  C   UNL     1       9.616  -3.548   2.943  0.00  0.00    -0.010 C 
ATOM      7  C   UNL     1      10.971  -4.244   2.793  0.00  0.00    -0.082 C 
ATOM      8  N   UNL     1      11.227  -4.522   1.375  0.00  0.00    +0.379 N 
ATOM      9  C   UNL     1      10.223  -5.460   0.859  0.00  0.00    -0.082 C 
ATOM     10  C   UNL     1       8.836  -4.816   0.927  0.00  0.00    -0.010 C 
ATOM     11  C   UNL     1       6.302  -7.188   3.184  0.00  0.00    +0.247 C 
ATOM     12  O   UNL     1       5.090  -7.241   3.107  0.00  0.00    -0.270 OA
ATOM     13  H   UNL     1      11.181  -3.660   0.851  0.00  0.00    -0.086 HD
ATOM     14  H   UNL     1      12.147  -4.925   1.273  0.00  0.00    -0.086 HD
ENDROOT
BRANCH  11  15
ATOM     15  C   UNL     1       7.097  -8.434   3.204  0.00  0.00    +0.037 A 
ATOM     16  C   UNL     1       8.364  -8.449   3.790  0.00  0.00    +0.013 A 
ATOM     17  C   UNL     1       9.100  -9.615   3.805  0.00  0.00    +0.013 A 
ATOM     18  C   UNL     1       8.586 -10.768   3.240  0.00  0.00    +0.055 A 
ATOM     19  C   UNL     1       7.332 -10.761   2.656  0.00  0.00    +0.013 A 
ATOM     20  C   UNL     1       6.582  -9.602   2.640  0.00  0.00    +0.013 A 
BRANCH  18  21
ATOM     21  C   UNL     1       9.396 -12.039   3.259  0.00  0.00    +0.417 C 
ATOM     22  F   UNL     1       9.107 -12.759   4.423  0.00  0.00    -0.166 F 
ATOM     23  F   UNL     1       9.076 -12.814   2.139  0.00  0.00    -0.166 F 
ATOM     24  F   UNL     1      10.759 -11.723   3.233  0.00  0.00    -0.166 F 
ENDBRANCH  18  21
ENDBRANCH  11  15
BRANCH   1  26
ATOM     25  N   UNL     1       6.857  -2.603   0.285  0.00  0.00    -0.311 N 
ATOM     26  C   UNL     1       6.536  -3.635   1.090  0.00  0.00    +0.218 C 
ATOM     27  O   UNL     1       5.747  -4.475   0.714  0.00  0.00    -0.275 OA
ATOM     28  H   UNL     1       7.488  -1.930   0.587  0.00  0.00    +0.149 HD
BRANCH  25  29
ATOM     29  C   UNL     1       6.253  -2.497  -1.046  0.00  0.00    +0.139 C 
BRANCH  29  39
ATOM     30  C   UNL     1       9.583   2.131  -4.220  0.00  0.00    +0.129 C 
ATOM     31  N   UNL     1       8.234   2.137  -3.648  0.00  0.00    -0.333 N 
ATOM     32  C   UNL     1       7.386   3.333  -3.749  0.00  0.00    +0.105 C 
ATOM     33  C   UNL     1       6.738   3.565  -2.378  0.00  0.00    +0.024 C 
ATOM     34  C   UNL     1       5.835   2.375  -2.051  0.00  0.00    +0.038 C 
ATOM     35  C   UNL     1       6.587   1.081  -2.220  0.00  0.00    -0.026 A 
ATOM     36  C   UNL     1       7.731   1.003  -3.002  0.00  0.00    +0.033 A 
ATOM     37  C   UNL     1       8.396  -0.209  -3.146  0.00  0.00    +0.024 A 
ATOM     38  C   UNL     1       7.917  -1.339  -2.514  0.00  0.00    +0.007 A 
ATOM     39  C   UNL     1       6.775  -1.264  -1.737  0.00  0.00    -0.030 A 
ATOM     40  C   UNL     1       6.117  -0.055  -1.583  0.00  0.00    +0.010 A 
ENDBRANCH  29  39
ENDBRANCH  25  29
ENDBRANCH   1  26
TORSDOF 5
