REMARK  Name = ZINC16637834
REMARK  19 active torsions:
REMARK  status: ('A' for Active; 'I' for Inactive)
REMARK    1  A    between atoms: C_1  and  C_2
REMARK    2  A    between atoms: C_2  and  C_3
REMARK    3  A    between atoms: C_3  and  C_4
REMARK    4  A    between atoms: C_4  and  C_5
REMARK    5  A    between atoms: C_5  and  C_6
REMARK    6  A    between atoms: C_6  and  C_7
REMARK    7  A    between atoms: C_6  and  C_8
REMARK    8  A    between atoms: C_6  and  C_9
REMARK    9  A    between atoms: C_12  and  O_15
REMARK   10  A    between atoms: O_15  and  C_16
REMARK   11  A    between atoms: C_16  and  C_17
REMARK   12  A    between atoms: C_17  and  O_18
REMARK   13  A    between atoms: O_18  and  C_19
REMARK   14  A    between atoms: C_19  and  C_20
REMARK   15  A    between atoms: C_20  and  N_21
REMARK   16  A    between atoms: N_21  and  C_22
REMARK   17  A    between atoms: N_21  and  C_23
REMARK   18  A    between atoms: N_21  and  C_24
REMARK   19  A    between atoms: C_24  and  C_25
REMARK                            x       y       z     vdW  Elec       q    Type
REMARK                         _______ _______ _______ _____ _____    ______ ____
ROOT
ATOM      1  O   UNL     1       0.702   3.642  -0.304  0.00  0.00    -0.490 OA
ENDROOT
BRANCH   1   5
ATOM      2  C   UNL     1       0.373  -0.454  -0.672  0.00  0.00    -0.041 A 
ATOM      3  C   UNL     1      -0.766   0.325  -0.586  0.00  0.00    +0.008 A 
ATOM      4  C   UNL     1      -0.658   1.697  -0.462  0.00  0.00    +0.046 A 
ATOM      5  C   UNL     1       0.594   2.293  -0.425  0.00  0.00    +0.121 A 
ATOM      6  C   UNL     1       1.735   1.509  -0.511  0.00  0.00    +0.046 A 
ATOM      7  C   UNL     1       1.623   0.138  -0.635  0.00  0.00    +0.008 A 
BRANCH   2   8
ATOM      8  C   UNL     1       0.253  -1.950  -0.806  0.00  0.00    -0.010 C 
ATOM      9  C   UNL     1      -0.489  -2.513   0.407  0.00  0.00    +0.016 C 
ATOM     10  C   UNL     1      -0.523  -2.287  -2.081  0.00  0.00    +0.016 C 
BRANCH   8  11
ATOM     11  C   UNL     1       1.650  -2.569  -0.881  0.00  0.00    +0.011 C 
BRANCH  11  12
ATOM     12  C   UNL     1       1.528  -4.088  -1.018  0.00  0.00    +0.001 C 
BRANCH  12  13
ATOM     13  C   UNL     1       2.925  -4.707  -1.093  0.00  0.00    -0.000 C 
BRANCH  13  15
ATOM     14  C   UNL     1       4.200  -6.845  -1.304  0.00  0.00    +0.004 C 
ATOM     15  C   UNL     1       2.803  -6.226  -1.229  0.00  0.00    -0.003 C 
ENDBRANCH  13  15
ENDBRANCH  12  13
ENDBRANCH  11  12
ENDBRANCH   8  11
ENDBRANCH   2   8
ENDBRANCH   1   5
BRANCH   1  16
ATOM     16  C   UNL     1       2.023   4.187  -0.272  0.00  0.00    +0.257 C 
BRANCH  16  17
ATOM     17  C   UNL     1       1.944   5.708  -0.133  0.00  0.00    +0.200 C 
BRANCH  17  18
ATOM     18  O   UNL     1       1.367   6.042   1.131  0.00  0.00    -0.378 OA
BRANCH  18  19
ATOM     19  C   UNL     1       1.247   7.447   1.363  0.00  0.00    +0.142 C 
BRANCH  19  20
ATOM     20  C   UNL     1       0.621   7.685   2.739  0.00  0.00    -0.047 C 
BRANCH  20  21
ATOM     21  N   UNL     1       1.567   7.277   3.785  0.00  0.00    +0.380 N 
ATOM     22  C   UNL     1       1.920   5.863   3.603  0.00  0.00    -0.092 C 
ATOM     23  C   UNL     1       2.781   8.100   3.696  0.00  0.00    -0.092 C 
BRANCH  21  24
ATOM     24  C   UNL     1       0.948   7.461   5.104  0.00  0.00    -0.040 C 
BRANCH  24  25
ATOM     25  C   UNL     1       1.919   7.042   6.178  0.00  0.00    -0.063 A 
ATOM     26  C   UNL     1       1.930   5.735   6.628  0.00  0.00    +0.002 A 
ATOM     27  C   UNL     1       2.824   5.350   7.610  0.00  0.00    +0.000 A 
ATOM     28  C   UNL     1       3.700   6.275   8.149  0.00  0.00    +0.000 A 
ATOM     29  C   UNL     1       3.684   7.583   7.702  0.00  0.00    +0.000 A 
ATOM     30  C   UNL     1       2.794   7.967   6.717  0.00  0.00    +0.002 A 
ENDBRANCH  24  25
ENDBRANCH  21  24
ENDBRANCH  20  21
ENDBRANCH  19  20
ENDBRANCH  18  19
ENDBRANCH  17  18
ENDBRANCH  16  17
ENDBRANCH   1  16
TORSDOF 14
