REMARK  Name = ZINC07669475
REMARK  11 active torsions:
REMARK  status: ('A' for Active; 'I' for Inactive)
REMARK    1  A    between atoms: C_1  and  C_2
REMARK    2  A    between atoms: C_2  and  N_54
REMARK    3  A    between atoms: C_3  and  C_4
REMARK    4  A    between atoms: C_3  and  N_54
REMARK    5  A    between atoms: N_6  and  C_7
REMARK    6  A    between atoms: C_10  and  N_13
REMARK    7  A    between atoms: C_14  and  C_16
REMARK    8  A    between atoms: C_17  and  C_19
REMARK    9  A    between atoms: C_17  and  C_20
REMARK   10  A    between atoms: C_17  and  N_54
REMARK   11  A    between atoms: N_22  and  C_23
REMARK                            x       y       z     vdW  Elec       q    Type
REMARK                         _______ _______ _______ _____ _____    ______ ____
ROOT
ATOM      1  C   UNL     1      -5.548   6.993  -0.570  0.00  0.00    +0.020 C 
ENDROOT
BRANCH   1   2
ATOM      2  C   UNL     1      -4.372   6.052  -0.500  0.00  0.00    +0.201 C 
ATOM      3  O   UNL     1      -3.242   6.488  -0.556  0.00  0.00    -0.278 OA
ATOM      4  N   UNL     1      -4.578   4.726  -0.374  0.00  0.00    -0.287 N 
ATOM      5  H   UNL     1      -5.478   4.383  -0.259  0.00  0.00    +0.155 HD
BRANCH   4   6
ATOM      6  C   UNL     1      -3.491   3.843  -0.407  0.00  0.00    +0.033 A 
ATOM      7  C   UNL     1      -3.532   2.663   0.324  0.00  0.00    +0.025 A 
ATOM      8  C   UNL     1      -2.462   1.792   0.289  0.00  0.00    +0.025 A 
ATOM      9  C   UNL     1      -1.343   2.096  -0.475  0.00  0.00    +0.033 A 
ATOM     10  C   UNL     1      -1.299   3.279  -1.202  0.00  0.00    +0.025 A 
ATOM     11  C   UNL     1      -2.373   4.147  -1.172  0.00  0.00    +0.025 A 
BRANCH   9  12
ATOM     12  N   UNL     1      -0.257   1.213  -0.510  0.00  0.00    -0.286 N 
ATOM     13  C   UNL     1      -0.469  -0.118  -0.465  0.00  0.00    +0.214 C 
ATOM     14  O   UNL     1      -1.592  -0.548  -0.307  0.00  0.00    -0.276 OA
ATOM     15  C   UNL     1       0.690  -1.071  -0.610  0.00  0.00    +0.109 C 
ATOM     16  H   UNL     1       0.648   1.558  -0.563  0.00  0.00    +0.155 HD
ENDBRANCH   9  12
ENDBRANCH   4   6
ENDBRANCH   1   2
BRANCH   1  17
ATOM     17  N   UNL     1      -5.043   8.373  -0.736  0.00  0.00    +0.393 N 
ATOM     18  H   UNL     1      -4.337   8.382  -1.482  0.00  0.00    -0.080 HD
BRANCH  17  20
ATOM     19  C   UNL     1      -5.392   8.683   1.692  0.00  0.00    -0.017 C 
ATOM     20  C   UNL     1      -4.419   8.836   0.521  0.00  0.00    -0.081 C 
ENDBRANCH  17  20
BRANCH  17  21
ATOM     21  C   UNL     1      -6.152   9.274  -1.112  0.00  0.00    +0.017 C 
ATOM     22  C   UNL     1      -6.895   8.680  -2.310  0.00  0.00    -0.004 C 
BRANCH  21  23
ATOM     23  C   UNL     1      -5.580  10.616  -1.492  0.00  0.00    +0.203 C 
ATOM     24  O   UNL     1      -4.384  10.741  -1.656  0.00  0.00    -0.277 OA
ATOM     25  N   UNL     1      -6.396  11.677  -1.648  0.00  0.00    -0.287 N 
ATOM     26  H   UNL     1      -7.343  11.593  -1.455  0.00  0.00    +0.155 HD
BRANCH  25  27
ATOM     27  C   UNL     1      -5.878  12.899  -2.089  0.00  0.00    +0.033 A 
ATOM     28  C   UNL     1      -6.427  14.092  -1.637  0.00  0.00    +0.023 A 
ATOM     29  C   UNL     1      -5.909  15.297  -2.069  0.00  0.00    +0.002 A 
ATOM     30  C   UNL     1      -4.853  15.317  -2.962  0.00  0.00    +0.000 A 
ATOM     31  C   UNL     1      -4.308  14.131  -3.419  0.00  0.00    +0.002 A 
ATOM     32  C   UNL     1      -4.817  12.923  -2.985  0.00  0.00    +0.023 A 
ENDBRANCH  25  27
ENDBRANCH  21  23
ENDBRANCH  17  21
ENDBRANCH   1  17
TORSDOF 8
