REMARK  Name = ZINC31301521
REMARK  11 active torsions:
REMARK  status: ('A' for Active; 'I' for Inactive)
REMARK    1  A    between atoms: C_1  and  C_2
REMARK    2  A    between atoms: C_6  and  N_9
REMARK    3  A    between atoms: C_7  and  C_8
REMARK    4  A    between atoms: C_10  and  C_12
REMARK    5  A    between atoms: C_12  and  N_13
REMARK    6  A    between atoms: N_13  and  C_14
REMARK    7  A    between atoms: N_13  and  C_15
REMARK    8  A    between atoms: C_15  and  C_16
REMARK    9  A    between atoms: N_18  and  C_19
REMARK   10  A    between atoms: C_22  and  N_26
REMARK   11  A    between atoms: C_27  and  C_29
REMARK                            x       y       z     vdW  Elec       q    Type
REMARK                         _______ _______ _______ _____ _____    ______ ____
ROOT
ATOM      1  C   UNL     1       1.330   1.205   0.030  0.00  0.00    +0.019 C 
ENDROOT
BRANCH   1   2
ATOM      2  C   UNL     1      -0.062   0.629   0.001  0.00  0.00    +0.201 C 
ATOM      3  O   UNL     1      -0.222  -0.574   0.013  0.00  0.00    -0.278 OA
ATOM      4  N   UNL     1      -1.130   1.450  -0.043  0.00  0.00    -0.287 N 
ATOM      5  H   UNL     1      -0.991   2.538   0.036  0.00  0.00    +0.155 HD
BRANCH   4   6
ATOM      6  C   UNL     1      -2.417   0.917  -0.191  0.00  0.00    +0.035 A 
ATOM      7  C   UNL     1      -3.495   1.521   0.444  0.00  0.00    +0.025 A 
ATOM      8  C   UNL     1      -4.765   1.000   0.294  0.00  0.00    +0.026 A 
ATOM      9  C   UNL     1      -4.963  -0.134  -0.483  0.00  0.00    +0.052 A 
ATOM     10  C   UNL     1      -3.884  -0.742  -1.113  0.00  0.00    +0.064 A 
ATOM     11  C   UNL     1      -2.614  -0.217  -0.968  0.00  0.00    +0.045 A 
ATOM     12 CL   UNL     1      -4.131  -2.159  -2.084  0.00  0.00    -0.082 Cl
BRANCH   9  13
ATOM     13  N   UNL     1      -6.251  -0.666  -0.630  0.00  0.00    -0.285 N 
ATOM     14  C   UNL     1      -7.319   0.155  -0.667  0.00  0.00    +0.214 C 
ATOM     15  O   UNL     1      -7.159   1.357  -0.672  0.00  0.00    -0.276 OA
ATOM     16  C   UNL     1      -8.711  -0.420  -0.702  0.00  0.00    +0.109 C 
ATOM     17  H   UNL     1      -6.390  -1.754  -0.716  0.00  0.00    +0.155 HD
ENDBRANCH   9  13
ENDBRANCH   4   6
ENDBRANCH   1   2
BRANCH   1  18
ATOM     18  N   UNL     1       2.311   0.112   0.070  0.00  0.00    +0.389 N 
ATOM     19  C   UNL     1       2.216  -0.635   1.331  0.00  0.00    -0.095 C 
ATOM     20  H   UNL     1       2.079  -0.582  -0.752  0.00  0.00    -0.081 HD
BRANCH  18  21
ATOM     21  C   UNL     1       3.674   0.620  -0.140  0.00  0.00    +0.019 C 
BRANCH  21  23
ATOM     22  N   UNL     1       5.928  -0.312  -0.548  0.00  0.00    -0.287 N 
ATOM     23  C   UNL     1       4.617  -0.539  -0.337  0.00  0.00    +0.201 C 
ATOM     24  O   UNL     1       4.195  -1.676  -0.306  0.00  0.00    -0.278 OA
ATOM     25  H   UNL     1       6.322   0.714  -0.511  0.00  0.00    +0.155 HD
BRANCH  22  31
ATOM     26  C   UNL     1      10.080  -2.003  -2.567  0.00  0.00    +0.044 C 
ATOM     27  C   UNL     1       8.809  -2.231  -1.790  0.00  0.00    -0.046 A 
ATOM     28  C   UNL     1       8.493  -3.499  -1.338  0.00  0.00    +0.004 A 
ATOM     29  C   UNL     1       7.328  -3.712  -0.624  0.00  0.00    +0.002 A 
ATOM     30  C   UNL     1       6.476  -2.657  -0.361  0.00  0.00    +0.023 A 
ATOM     31  C   UNL     1       6.790  -1.383  -0.813  0.00  0.00    +0.036 A 
ATOM     32  C   UNL     1       7.958  -1.173  -1.535  0.00  0.00    -0.026 A 
ATOM     33  C   UNL     1       8.300   0.207  -2.033  0.00  0.00    +0.046 C 
ENDBRANCH  22  31
ENDBRANCH  21  23
ENDBRANCH  18  21
ENDBRANCH   1  18
TORSDOF 7
