REMARK  Name = ZINC12664170
REMARK  6 active torsions:
REMARK  status: ('A' for Active; 'I' for Inactive)
REMARK    1  A    between atoms: C_1  and  C_2
REMARK    2  A    between atoms: N_10  and  C_11
REMARK    3  A    between atoms: C_11  and  C_13
REMARK    4  A    between atoms: N_18  and  S_20
REMARK    5  A    between atoms: S_20  and  C_23
REMARK    6  A    between atoms: N_30  and  C_31
REMARK                            x       y       z     vdW  Elec       q    Type
REMARK                         _______ _______ _______ _____ _____    ______ ____
ROOT
ATOM      1  C   UNL     1      -3.276   0.978  -0.278  0.00  0.00    +0.093 C 
ATOM      2  C   UNL     1      -2.628   0.300   0.932  0.00  0.00    +0.015 C 
ATOM      3  C   UNL     1      -1.103   0.439   0.844  0.00  0.00    +0.018 C 
ATOM      4  C   UNL     1      -0.608  -0.258  -0.427  0.00  0.00    +0.109 C 
ATOM      5  N   UNL     1      -1.333   0.288  -1.582  0.00  0.00    -0.176 NA
ATOM      6  C   UNL     1      -2.802   0.286  -1.560  0.00  0.00    +0.122 C 
ENDROOT
BRANCH   5   7
ATOM      7  S   UNL     1      -0.509   0.894  -2.885  0.00  0.00    +0.061 S 
ATOM      8  O   UNL     1      -1.385   1.809  -3.529  0.00  0.00    -0.153 OA
ATOM      9  O   UNL     1       0.776   1.273  -2.413  0.00  0.00    -0.153 OA
BRANCH   7  10
ATOM     10  C   UNL     1      -0.259  -0.439  -4.010  0.00  0.00    +0.106 A 
ATOM     11  C   UNL     1       0.881  -1.216  -3.917  0.00  0.00    +0.031 A 
ATOM     12  C   UNL     1       1.075  -2.266  -4.795  0.00  0.00    +0.040 A 
ATOM     13  C   UNL     1       0.133  -2.532  -5.774  0.00  0.00    +0.124 A 
ATOM     14  C   UNL     1      -1.006  -1.750  -5.869  0.00  0.00    +0.040 A 
ATOM     15  C   UNL     1      -1.200  -0.704  -4.987  0.00  0.00    +0.031 A 
ATOM     16  F   UNL     1       0.325  -3.555  -6.636  0.00  0.00    -0.205 F 
ENDBRANCH   7  10
ENDBRANCH   5   7
BRANCH   1  17
ATOM     17  C   UNL     1      -4.775   0.869  -0.172  0.00  0.00    +0.243 C 
ATOM     18  O   UNL     1      -5.405   0.294  -1.039  0.00  0.00    -0.273 OA
BRANCH  17  28
ATOM     19  C   UNL     1     -10.793   6.857   0.010  0.00  0.00    +0.044 C 
ATOM     20  C   UNL     1      -9.696   5.837  -0.158  0.00  0.00    -0.049 A 
ATOM     21  C   UNL     1      -9.129   5.617  -1.401  0.00  0.00    +0.005 A 
ATOM     22  C   UNL     1      -8.128   4.691  -1.574  0.00  0.00    +0.027 A 
ATOM     23  C   UNL     1      -7.651   3.939  -0.489  0.00  0.00    +0.057 A 
ATOM     24  C   UNL     1      -8.244   4.183   0.758  0.00  0.00    +0.039 A 
ATOM     25  C   UNL     1      -9.245   5.110   0.930  0.00  0.00    +0.020 A 
ATOM     26  S   UNL     1      -7.395   3.061   1.839  0.00  0.00    -0.052 S 
ATOM     27  C   UNL     1      -6.328   2.345   0.675  0.00  0.00    +0.166 A 
ATOM     28  N   UNL     1      -5.409   1.402   0.867  0.00  0.00    -0.156 NA
ATOM     29  N   UNL     1      -6.660   2.975  -0.483  0.00  0.00    -0.324 N 
ATOM     30  C   UNL     1      -5.966   2.632  -1.727  0.00  0.00    +0.151 C 
ENDBRANCH  17  28
ENDBRANCH   1  17
TORSDOF 4
