REMARK  Name = ZINC65301327
REMARK  9 active torsions:
REMARK  status: ('A' for Active; 'I' for Inactive)
REMARK    1  A    between atoms: C_1  and  C_2
REMARK    2  A    between atoms: C_2  and  N_3
REMARK    3  A    between atoms: N_3  and  C_4
REMARK    4  A    between atoms: C_4  and  C_5
REMARK    5  A    between atoms: C_6  and  C_8
REMARK    6  A    between atoms: C_13  and  N_14
REMARK    7  A    between atoms: C_17  and  C_20
REMARK    8  A    between atoms: N_22  and  C_23
REMARK    9  A    between atoms: C_30  and  C_33
REMARK                            x       y       z     vdW  Elec       q    Type
REMARK                         _______ _______ _______ _____ _____    ______ ____
ROOT
ATOM      1  C   UNL     1      -1.615  -0.753   2.196  0.00  0.00    +0.074 A 
ATOM      2  C   UNL     1      -0.301  -0.272   2.239  0.00  0.00    +0.098 A 
ATOM      3  N   UNL     1       0.344  -0.192   3.383  0.00  0.00    -0.353 N 
ATOM      4  C   UNL     1      -0.214  -0.557   4.519  0.00  0.00    +0.107 A 
ATOM      5  C   UNL     1      -1.534  -1.058   4.600  0.00  0.00    +0.050 A 
ATOM      6  C   UNL     1      -2.255  -1.149   3.379  0.00  0.00    +0.055 A 
ATOM      7  C   UNL     1      -1.916  -1.383   5.912  0.00  0.00    +0.058 A 
ATOM      8  N   UNL     1      -1.094  -1.216   6.902  0.00  0.00    -0.213 NA
ATOM      9  S   UNL     1       0.305  -0.601   6.215  0.00  0.00    +0.030 S 
ATOM     10  C   UNL     1      -3.296  -1.930   6.173  0.00  0.00    +0.067 C 
ATOM     11  H   UNL     1       1.254   0.144   3.390  0.00  0.00    +0.166 HD
ENDROOT
BRANCH   6  12
ATOM     12  N   UNL     1      -3.551  -1.621   3.358  0.00  0.00    -0.329 N 
ATOM     13  C   UNL     1      -3.821  -3.065   3.333  0.00  0.00    +0.106 C 
ATOM     14  C   UNL     1      -4.745  -3.374   2.151  0.00  0.00    +0.031 C 
ATOM     15  C   UNL     1      -5.999  -2.501   2.248  0.00  0.00    +0.078 C 
ATOM     16  C   UNL     1      -5.601  -1.025   2.178  0.00  0.00    +0.031 C 
ATOM     17  C   UNL     1      -4.687  -0.690   3.366  0.00  0.00    +0.106 C 
BRANCH  15  18
ATOM     18  C   UNL     1      -6.926  -2.826   1.105  0.00  0.00    +0.220 C 
ATOM     19  O   UNL     1      -6.615  -3.672   0.293  0.00  0.00    -0.275 OA
ATOM     20  N   UNL     1      -8.101  -2.177   0.984  0.00  0.00    -0.283 N 
ATOM     21  H   UNL     1      -8.315  -1.447   1.586  0.00  0.00    +0.155 HD
BRANCH  20  22
ATOM     22  C   UNL     1      -9.012  -2.555  -0.010  0.00  0.00    +0.069 A 
ATOM     23  C   UNL     1      -9.086  -3.880  -0.417  0.00  0.00    +0.026 A 
ATOM     24  C   UNL     1      -9.985  -4.251  -1.398  0.00  0.00    +0.002 A 
ATOM     25  C   UNL     1     -10.812  -3.304  -1.974  0.00  0.00    +0.003 A 
ATOM     26  C   UNL     1     -10.742  -1.983  -1.572  0.00  0.00    +0.040 A 
ATOM     27  C   UNL     1      -9.848  -1.606  -0.587  0.00  0.00    +0.144 A 
ATOM     28  F   UNL     1      -9.783  -0.316  -0.190  0.00  0.00    -0.204 F 
ENDBRANCH  20  22
ENDBRANCH  15  18
ENDBRANCH   6  12
BRANCH   1  30
ATOM     29  N   UNL     1      -2.562   0.279   0.195  0.00  0.00    -0.298 N 
ATOM     30  C   UNL     1      -2.327  -0.839   0.910  0.00  0.00    +0.250 C 
ATOM     31  O   UNL     1      -2.702  -1.918   0.493  0.00  0.00    -0.270 OA
BRANCH  29  33
ATOM     32  C   UNL     1      -2.466   0.059  -2.239  0.00  0.00    +0.024 C 
ATOM     33  C   UNL     1      -3.378   0.213  -1.020  0.00  0.00    +0.104 C 
ENDBRANCH  29  33
BRANCH  29  34
ATOM     34  C   UNL     1      -2.002   1.560   0.632  0.00  0.00    +0.104 C 
ATOM     35  C   UNL     1      -2.993   2.257   1.567  0.00  0.00    +0.024 C 
ENDBRANCH  29  34
ENDBRANCH   1  30
TORSDOF 6
