REMARK  Name = ZINC09106687
REMARK  11 active torsions:
REMARK  status: ('A' for Active; 'I' for Inactive)
REMARK    1  A    between atoms: C_1  and  C_2
REMARK    2  A    between atoms: C_5  and  C_33
REMARK    3  A    between atoms: C_6  and  S_8
REMARK    4  A    between atoms: S_8  and  C_11
REMARK    5  A    between atoms: C_11  and  C_13
REMARK    6  A    between atoms: C_11  and  C_28
REMARK    7  A    between atoms: C_13  and  N_14
REMARK    8  A    between atoms: C_15  and  C_17
REMARK    9  A    between atoms: N_19  and  C_20
REMARK   10  A    between atoms: N_19  and  C_21
REMARK   11  A    between atoms: C_21  and  C_22
REMARK                            x       y       z     vdW  Elec       q    Type
REMARK                         _______ _______ _______ _____ _____    ______ ____
ROOT
ATOM      1  C   UNL     1      -1.395   0.618   1.134  0.00  0.00    +0.189 C 
ENDROOT
BRANCH   1   2
ATOM      2  C   UNL     1      -0.825  -0.111   2.324  0.00  0.00    +0.016 A 
ATOM      3  C   UNL     1      -1.422  -1.017   3.136  0.00  0.00    +0.013 A 
ATOM      4  C   UNL     1      -0.696  -1.565   4.177  0.00  0.00    +0.008 A 
ATOM      5  C   UNL     1       0.588  -1.172   4.361  0.00  0.00    +0.045 A 
ATOM      6  S   UNL     1       0.808   0.002   3.035  0.00  0.00    -0.100 S 
ENDBRANCH   1   2
BRANCH   1   7
ATOM      7  S   UNL     1      -1.340   2.406   1.437  0.00  0.00    +0.006 S 
ATOM      8  O   UNL     1      -0.006   2.816   1.705  0.00  0.00    -0.169 OA
ATOM      9  O   UNL     1      -2.129   3.090   0.473  0.00  0.00    -0.169 OA
BRANCH   7  15
ATOM     10  C   UNL     1      -1.447   3.791   6.476  0.00  0.00    +0.044 C 
ATOM     11  C   UNL     1      -2.186   3.280   5.266  0.00  0.00    -0.049 A 
ATOM     12  C   UNL     1      -3.536   2.992   5.352  0.00  0.00    +0.004 A 
ATOM     13  C   UNL     1      -4.214   2.524   4.242  0.00  0.00    +0.005 A 
ATOM     14  C   UNL     1      -3.545   2.350   3.045  0.00  0.00    -0.026 A 
ATOM     15  C   UNL     1      -2.195   2.634   2.961  0.00  0.00    +0.092 A 
ATOM     16  C   UNL     1      -1.516   3.101   4.071  0.00  0.00    +0.030 A 
ATOM     17  C   UNL     1      -4.286   1.846   1.834  0.00  0.00    +0.046 C 
ENDBRANCH   7  15
ENDBRANCH   1   7
BRANCH   1  18
ATOM     18  C   UNL     1      -0.570   0.286  -0.110  0.00  0.00    +0.136 C 
BRANCH  18  19
ATOM     19  N   UNL     1      -1.123   0.994  -1.267  0.00  0.00    -0.305 N 
ATOM     20  C   UNL     1      -0.554   0.852  -2.480  0.00  0.00    +0.299 C 
ATOM     21  O   UNL     1       0.417   0.137  -2.615  0.00  0.00    -0.265 OA
ATOM     22  H   UNL     1      -1.900   1.566  -1.159  0.00  0.00    +0.149 HD
BRANCH  20  23
ATOM     23  C   UNL     1      -1.119   1.575  -3.660  0.00  0.00    +0.302 C 
ATOM     24  O   UNL     1      -2.150   2.204  -3.549  0.00  0.00    -0.265 OA
ATOM     25  N   UNL     1      -0.483   1.527  -4.848  0.00  0.00    -0.293 N 
ATOM     26  C   UNL     1       0.718   0.702  -5.003  0.00  0.00    +0.133 C 
BRANCH  25  27
ATOM     27  C   UNL     1      -0.993   2.299  -5.983  0.00  0.00    +0.143 C 
BRANCH  27  28
ATOM     28  C   UNL     1      -0.360   3.667  -5.984  0.00  0.00    -0.030 A 
ATOM     29  C   UNL     1      -0.965   4.709  -5.308  0.00  0.00    +0.005 A 
ATOM     30  C   UNL     1      -0.382   5.963  -5.305  0.00  0.00    +0.000 A 
ATOM     31  C   UNL     1       0.801   6.176  -5.987  0.00  0.00    +0.000 A 
ATOM     32  C   UNL     1       1.403   5.135  -6.668  0.00  0.00    +0.000 A 
ATOM     33  C   UNL     1       0.823   3.881  -6.667  0.00  0.00    +0.005 A 
ENDBRANCH  27  28
ENDBRANCH  25  27
ENDBRANCH  20  23
ENDBRANCH  18  19
ENDBRANCH   1  18
TORSDOF 8
