REMARK  Name = ZINC62566479
REMARK  9 active torsions:
REMARK  status: ('A' for Active; 'I' for Inactive)
REMARK    1  A    between atoms: C_1  and  C_2
REMARK    2  A    between atoms: C_2  and  C_3
REMARK    3  A    between atoms: C_12  and  C_13
REMARK    4  A    between atoms: C_15  and  C_16
REMARK    5  A    between atoms: C_15  and  C_18
REMARK    6  A    between atoms: C_18  and  C_20
REMARK    7  A    between atoms: C_23  and  N_26
REMARK    8  A    between atoms: N_26  and  S_27
REMARK    9  A    between atoms: S_27  and  C_30
REMARK                            x       y       z     vdW  Elec       q    Type
REMARK                         _______ _______ _______ _____ _____    ______ ____
ROOT
ATOM      1  C   UNL     1      -5.187  -1.658  -3.064  0.00  0.00    +0.209 C 
ATOM      2  O   UNL     1      -5.505  -1.511  -4.367  0.00  0.00    -0.286 OA
ATOM      3  C   UNL     1      -6.132  -2.161  -2.166  0.00  0.00    +0.146 C 
ENDROOT
BRANCH   1  13
ATOM      4  C   UNL     1      -1.021   0.939  -2.212  0.00  0.00    -0.024 A 
ATOM      5  C   UNL     1      -1.362   2.097  -2.877  0.00  0.00    +0.005 A 
ATOM      6  C   UNL     1      -2.590   2.212  -3.511  0.00  0.00    +0.001 A 
ATOM      7  C   UNL     1      -3.487   1.167  -3.483  0.00  0.00    +0.011 A 
ATOM      8  C   UNL     1      -3.156  -0.009  -2.815  0.00  0.00    +0.011 A 
ATOM      9  C   UNL     1      -1.911  -0.130  -2.178  0.00  0.00    +0.050 A 
ATOM     10  N   UNL     1      -1.851  -1.387  -1.610  0.00  0.00    -0.360 N 
ATOM     11  H   UNL     1      -1.097  -1.729  -1.104  0.00  0.00    +0.165 HD
ATOM     12  C   UNL     1      -2.990  -2.075  -1.857  0.00  0.00    +0.095 A 
ATOM     13  C   UNL     1      -3.853  -1.290  -2.590  0.00  0.00    +0.048 A 
BRANCH   4  15
ATOM     14  C   UNL     1       1.317   0.155  -2.471  0.00  0.00    +0.009 C 
ATOM     15  C   UNL     1       0.317   0.828  -1.528  0.00  0.00    +0.034 C 
ENDBRANCH   4  15
ENDBRANCH   1  13
BRANCH   3  16
ATOM     16  C   UNL     1      -7.392  -2.643  -2.649  0.00  0.00    +0.107 C 
ATOM     17  N   UNL     1      -8.391  -3.025  -3.031  0.00  0.00    -0.191 NA
ENDBRANCH   3  16
BRANCH   3  18
ATOM     18  C   UNL     1      -5.836  -2.196  -0.735  0.00  0.00    +0.207 C 
ATOM     19  O   UNL     1      -5.717  -1.156  -0.112  0.00  0.00    -0.286 OA
BRANCH  18  20
ATOM     20  C   UNL     1      -5.681  -3.492  -0.044  0.00  0.00    +0.023 A 
ATOM     21  C   UNL     1      -5.902  -4.685  -0.737  0.00  0.00    +0.013 A 
ATOM     22  C   UNL     1      -5.756  -5.892  -0.091  0.00  0.00    +0.027 A 
ATOM     23  C   UNL     1      -5.390  -5.924   1.252  0.00  0.00    +0.074 A 
ATOM     24  C   UNL     1      -5.170  -4.737   1.945  0.00  0.00    +0.027 A 
ATOM     25  C   UNL     1      -5.307  -3.527   1.302  0.00  0.00    +0.013 A 
BRANCH  23  26
ATOM     26  N   UNL     1      -5.245  -7.145   1.902  0.00  0.00    -0.097 NA
BRANCH  26  27
ATOM     27  S   UNL     1      -4.809  -7.185   3.500  0.00  0.00    +0.098 S 
ATOM     28  O   UNL     1      -3.484  -6.676   3.572  0.00  0.00    -0.148 OA
ATOM     29  O   UNL     1      -5.886  -6.613   4.229  0.00  0.00    -0.148 OA
BRANCH  27  30
ATOM     30  C   UNL     1      -4.724  -8.880   3.974  0.00  0.00    +0.148 A 
ATOM     31  C   UNL     1      -3.666  -9.726   3.931  0.00  0.00    +0.037 A 
ATOM     32  C   UNL     1      -3.833 -11.030   4.361  0.00  0.00    +0.010 A 
ATOM     33  C   UNL     1      -5.049 -11.423   4.811  0.00  0.00    +0.047 A 
ATOM     34  S   UNL     1      -6.007  -9.926   4.643  0.00  0.00    -0.077 S 
ENDBRANCH  27  30
ENDBRANCH  26  27
ENDBRANCH  23  26
ENDBRANCH  18  20
ENDBRANCH   3  18
TORSDOF 8
