REMARK  Name = ZINC08777322
REMARK  6 active torsions:
REMARK  status: ('A' for Active; 'I' for Inactive)
REMARK    1  A    between atoms: C_1  and  C_2
REMARK    2  A    between atoms: C_6  and  C_9
REMARK    3  A    between atoms: C_10  and  C_11
REMARK    4  A    between atoms: C_10  and  N_59
REMARK    5  A    between atoms: C_11  and  C_12
REMARK    6  A    between atoms: N_17  and  C_18
REMARK                            x       y       z     vdW  Elec       q    Type
REMARK                         _______ _______ _______ _____ _____    ______ ____
ROOT
ATOM      1  C   UNL     1      -5.136   1.732  -3.410  0.00  0.00    +0.219 C 
ATOM      2  O   UNL     1      -4.538   2.201  -4.354  0.00  0.00    -0.275 OA
ATOM      3  N   UNL     1      -6.476   1.595  -3.463  0.00  0.00    -0.240 N 
ATOM      4  C   UNL     1      -7.150   1.979  -4.565  0.00  0.00    +0.306 C 
ATOM      5  O   UNL     1      -6.550   2.450  -5.511  0.00  0.00    -0.252 OA
ATOM      6  N   UNL     1      -8.490   1.842  -4.617  0.00  0.00    -0.294 N 
ATOM      7  H   UNL     1      -6.955   1.219  -2.708  0.00  0.00    +0.159 HD
ATOM      8  H   UNL     1      -8.969   1.466  -3.862  0.00  0.00    +0.151 HD
ENDROOT
BRANCH   6   9
ATOM      9  C   UNL     1      -9.223   2.260  -5.815  0.00  0.00    +0.037 C 
ATOM     10  C   UNL     1      -8.994   3.753  -6.057  0.00  0.00    +0.029 C 
ATOM     11  C   UNL     1      -9.760   4.190  -7.308  0.00  0.00    -0.008 C 
ATOM     12  C   UNL     1     -11.254   3.929  -7.109  0.00  0.00    +0.007 C 
ATOM     13  C   UNL     1     -11.482   2.435  -6.867  0.00  0.00    -0.008 C 
ATOM     14  C   UNL     1     -10.717   1.998  -5.616  0.00  0.00    +0.029 C 
ATOM     15  C   UNL     1     -10.982   1.640  -8.074  0.00  0.00    +0.007 C 
ATOM     16  C   UNL     1      -9.488   1.902  -8.274  0.00  0.00    -0.008 C 
ATOM     17  C   UNL     1      -9.259   3.395  -8.516  0.00  0.00    +0.007 C 
ATOM     18  C   UNL     1      -8.722   1.465  -7.023  0.00  0.00    +0.029 C 
ENDBRANCH   6   9
BRANCH   1  19
ATOM     19  C   UNL     1      -4.383   1.302  -2.179  0.00  0.00    +0.078 C 
BRANCH  19  20
ATOM     20  C   UNL     1      -2.888   1.563  -2.377  0.00  0.00    -0.069 C 
BRANCH  20  28
ATOM     21  C   UNL     1       1.422   1.616  -0.003  0.00  0.00    +0.036 C 
ATOM     22  C   UNL     1      -0.013   1.086   0.008  0.00  0.00    +0.099 C 
ATOM     23  C   UNL     1      -0.755   1.594  -1.231  0.00  0.00    -0.047 C 
ATOM     24  C   UNL     1      -2.812   1.636   0.042  0.00  0.00    -0.047 C 
ATOM     25  C   UNL     1      -2.049   1.128   1.269  0.00  0.00    +0.099 C 
ATOM     26  O   UNL     1      -0.684   1.548   1.183  0.00  0.00    -0.378 OA
ATOM     27  C   UNL     1      -2.682   1.701   2.538  0.00  0.00    +0.036 C 
ATOM     28  N   UNL     1      -2.153   1.117  -1.175  0.00  0.00    +0.383 N 
ATOM     29  H   UNL     1      -2.155   0.091  -1.144  0.00  0.00    -0.082 HD
ENDBRANCH  20  28
ENDBRANCH  19  20
ENDBRANCH   1  19
TORSDOF 4
