REMARK  Name = ZINC13284823
REMARK  10 active torsions:
REMARK  status: ('A' for Active; 'I' for Inactive)
REMARK    1  A    between atoms: C_2  and  C_23
REMARK    2  A    between atoms: C_5  and  N_8
REMARK    3  A    between atoms: N_8  and  C_9
REMARK    4  A    between atoms: C_9  and  C_10
REMARK    5  A    between atoms: C_16  and  N_21
REMARK    6  A    between atoms: N_25  and  C_26
REMARK    7  A    between atoms: C_26  and  C_28
REMARK    8  A    between atoms: C_26  and  C_33
REMARK    9  A    between atoms: C_28  and  C_29
REMARK   10  A    between atoms: C_29  and  C_30
REMARK                            x       y       z     vdW  Elec       q    Type
REMARK                         _______ _______ _______ _____ _____    ______ ____
ROOT
ATOM      1  C   UNL     1       1.754   4.187  -0.071  0.00  0.00    +0.035 A 
ATOM      2  C   UNL     1       0.456   3.670  -0.020  0.00  0.00    +0.040 A 
ATOM      3  C   UNL     1      -0.638   4.538   0.043  0.00  0.00    +0.035 A 
ATOM      4  C   UNL     1      -0.433   5.900   0.065  0.00  0.00    +0.064 A 
ATOM      5  C   UNL     1       0.861   6.413   0.015  0.00  0.00    +0.065 A 
ATOM      6  C   UNL     1       1.952   5.550  -0.053  0.00  0.00    +0.064 A 
ATOM      7 CL   UNL     1       3.563   6.193  -0.115  0.00  0.00    -0.082 Cl
ATOM      8 CL   UNL     1      -1.791   6.979   0.150  0.00  0.00    -0.082 Cl
ENDROOT
BRANCH   2   9
ATOM      9  C   UNL     1       0.241   2.211  -0.040  0.00  0.00    +0.245 C 
ATOM     10  O   UNL     1       1.193   1.456  -0.099  0.00  0.00    -0.270 OA
ATOM     11  N   UNL     1      -1.011   1.713   0.009  0.00  0.00    -0.300 N 
ATOM     12  H   UNL     1      -1.770   2.315   0.053  0.00  0.00    +0.150 HD
BRANCH  11  13
ATOM     13  C   UNL     1      -1.225   0.264  -0.010  0.00  0.00    +0.159 C 
BRANCH  13  14
ATOM     14  C   UNL     1      -1.242  -0.222  -1.436  0.00  0.00    +0.231 C 
ATOM     15  O   UNL     1      -1.090   0.564  -2.347  0.00  0.00    -0.274 OA
ATOM     16  N   UNL     1      -1.425  -1.531  -1.699  0.00  0.00    -0.328 N 
ATOM     17  H   UNL     1      -1.546  -2.160  -0.971  0.00  0.00    +0.145 HD
ATOM     18  H   UNL     1      -1.437  -1.845  -2.617  0.00  0.00    +0.145 HD
ENDBRANCH  13  14
BRANCH  13  19
ATOM     19  C   UNL     1      -2.562  -0.063   0.657  0.00  0.00    +0.041 C 
BRANCH  19  20
ATOM     20  C   UNL     1      -2.501   0.318   2.137  0.00  0.00    +0.098 C 
BRANCH  20  21
ATOM     21  C   UNL     1      -3.819  -0.004   2.794  0.00  0.00    +0.211 C 
ATOM     22  O   UNL     1      -4.718  -0.490   2.142  0.00  0.00    -0.276 OA
ATOM     23  N   UNL     1      -3.997   0.248   4.106  0.00  0.00    -0.329 N 
ATOM     24  H   UNL     1      -3.278   0.637   4.627  0.00  0.00    +0.145 HD
ATOM     25  H   UNL     1      -4.846   0.041   4.528  0.00  0.00    +0.145 HD
ENDBRANCH  20  21
ENDBRANCH  19  20
ENDBRANCH  13  19
ENDBRANCH  11  13
ENDBRANCH   2   9
BRANCH   5  26
ATOM     26  N   UNL     1       1.064   7.789   0.033  0.00  0.00    -0.336 N 
ATOM     27  H   UNL     1       1.880   8.027   0.575  0.00  0.00    +0.147 HD
BRANCH  26  28
ATOM     28  C   UNL     1       1.163   8.325  -1.332  0.00  0.00    +0.158 C 
BRANCH  28  29
ATOM     29  C   UNL     1       1.264   9.827  -1.276  0.00  0.00    +0.077 A 
ATOM     30  C   UNL     1       2.518  10.437  -1.300  0.00  0.00    +0.138 A 
ATOM     31  N   UNL     1       2.630  11.748  -1.252  0.00  0.00    -0.232 NA
ATOM     32  C   UNL     1       1.530  12.501  -1.180  0.00  0.00    +0.185 A 
ATOM     33  C   UNL     1       0.259  11.876  -1.156  0.00  0.00    +0.148 A 
ATOM     34  N   UNL     1       0.167  10.552  -1.210  0.00  0.00    -0.242 NA
ATOM     35  C   UNL     1      -0.924  12.736  -1.077  0.00  0.00    +0.149 A 
ATOM     36  N   UNL     1      -0.731  14.047  -1.032  0.00  0.00    -0.198 NA
ATOM     37  C   UNL     1       0.493  14.566  -1.058  0.00  0.00    +0.216 A 
ATOM     38  N   UNL     1       1.589  13.838  -1.129  0.00  0.00    -0.193 NA
ATOM     39  N   UNL     1       0.622  15.940  -1.008  0.00  0.00    -0.327 N 
ATOM     40  H   UNL     1       1.503  16.346  -1.026  0.00  0.00    +0.145 HD
ATOM     41  H   UNL     1      -0.169  16.500  -0.955  0.00  0.00    +0.145 HD
BRANCH  35  42
ATOM     42  N   UNL     1      -2.193  12.201  -1.049  0.00  0.00    -0.341 N 
ATOM     43  H   UNL     1      -2.965  12.786  -0.996  0.00  0.00    +0.144 HD
ATOM     44  H   UNL     1      -2.315  11.239  -1.083  0.00  0.00    +0.144 HD
ENDBRANCH  35  42
ENDBRANCH  28  29
ENDBRANCH  26  28
ENDBRANCH   5  26
TORSDOF 10
