REMARK  Name = ZINC20609130
REMARK  15 active torsions:
REMARK  status: ('A' for Active; 'I' for Inactive)
REMARK    1  A    between atoms: C_1  and  C_2
REMARK    2  A    between atoms: C_2  and  O_3
REMARK    3  A    between atoms: O_3  and  C_4
REMARK    4  A    between atoms: C_4  and  C_6
REMARK    5  A    between atoms: C_6  and  C_7
REMARK    6  A    between atoms: C_6  and  N_11
REMARK    7  A    between atoms: C_6  and  N_27
REMARK    8  A    between atoms: N_11  and  C_12
REMARK    9  A    between atoms: C_15  and  S_18
REMARK   10  A    between atoms: S_18  and  N_21
REMARK   11  A    between atoms: N_21  and  C_22
REMARK   12  A    between atoms: C_28  and  C_30
REMARK   13  A    between atoms: C_30  and  C_31
REMARK   14  A    between atoms: C_31  and  C_32
REMARK   15  A    between atoms: C_31  and  C_33
REMARK                            x       y       z     vdW  Elec       q    Type
REMARK                         _______ _______ _______ _____ _____    ______ ____
ROOT
ATOM      1  C   UNL     1       1.451   1.648   0.010  0.00  0.00    +0.295 C 
ENDROOT
BRANCH   1   2
ATOM      2  C   UNL     1       0.966   1.885  -1.421  0.00  0.00    +0.438 C 
ATOM      3  F   UNL     1      -0.242   2.590  -1.394  0.00  0.00    -0.166 F 
ATOM      4  F   UNL     1       1.924   2.627  -2.121  0.00  0.00    -0.166 F 
ATOM      5  F   UNL     1       0.773   0.654  -2.058  0.00  0.00    -0.166 F 
ENDBRANCH   1   2
BRANCH   1   6
ATOM      6  N   UNL     1       2.682   0.855  -0.016  0.00  0.00    -0.278 N 
ATOM      7  C   UNL     1       3.804   1.371  -0.556  0.00  0.00    +0.215 C 
ATOM      8  O   UNL     1       3.818   2.520  -0.944  0.00  0.00    -0.276 OA
ATOM      9  H   UNL     1       2.692  -0.161   0.406  0.00  0.00    +0.152 HD
BRANCH   7  10
ATOM     10  C   UNL     1       5.042   0.519  -0.679  0.00  0.00    +0.099 C 
BRANCH  10  11
ATOM     11  C   UNL     1       6.163   1.339  -1.320  0.00  0.00    -0.008 C 
ATOM     12  C   UNL     1       6.553   2.487  -0.388  0.00  0.00    +0.008 C 
ATOM     13  C   UNL     1       7.378   0.441  -1.559  0.00  0.00    +0.008 C 
ENDBRANCH  10  11
ENDBRANCH   7  10
ENDBRANCH   1   6
BRANCH   1  14
ATOM     14  C   UNL     1       1.720   2.973   0.675  0.00  0.00    +0.359 C 
ATOM     15  O   UNL     1       2.792   3.183   1.191  0.00  0.00    -0.246 OA
BRANCH  14  16
ATOM     16  O   UNL     1       0.769   3.920   0.694  0.00  0.00    -0.462 OA
BRANCH  16  18
ATOM     17  C   UNL     1      -0.100   6.120   1.273  0.00  0.00    +0.048 C 
ATOM     18  C   UNL     1       1.098   5.172   1.352  0.00  0.00    +0.229 C 
ENDBRANCH  16  18
ENDBRANCH  14  16
ENDBRANCH   1  14
BRANCH   1  19
ATOM     19  N   UNL     1       0.421   0.925   0.761  0.00  0.00    -0.307 N 
ATOM     20  H   UNL     1      -0.605   0.864   0.368  0.00  0.00    +0.149 HD
BRANCH  19  21
ATOM     21  C   UNL     1       0.741   0.315   1.976  0.00  0.00    +0.029 A 
ATOM     22  C   UNL     1       1.981   0.536   2.561  0.00  0.00    +0.025 A 
ATOM     23  C   UNL     1       2.293  -0.065   3.764  0.00  0.00    +0.030 A 
ATOM     24  C   UNL     1       1.376  -0.896   4.382  0.00  0.00    +0.111 A 
ATOM     25  C   UNL     1       0.143  -1.123   3.800  0.00  0.00    +0.030 A 
ATOM     26  C   UNL     1      -0.178  -0.520   2.599  0.00  0.00    +0.025 A 
BRANCH  24  27
ATOM     27  S   UNL     1       1.781  -1.667   5.913  0.00  0.00    +0.093 S 
ATOM     28  O   UNL     1       2.784  -0.864   6.520  0.00  0.00    -0.148 OA
ATOM     29  O   UNL     1       0.549  -1.963   6.557  0.00  0.00    -0.148 OA
BRANCH  27  30
ATOM     30  N   UNL     1       2.490  -3.120   5.557  0.00  0.00    -0.070 NA
BRANCH  30  31
ATOM     31  C   UNL     1       3.708  -3.154   4.897  0.00  0.00    +0.201 A 
ATOM     32  N   UNL     1       4.447  -2.148   4.469  0.00  0.00    -0.231 NA
ATOM     33  C   UNL     1       5.597  -2.358   3.855  0.00  0.00    +0.120 A 
ATOM     34  C   UNL     1       6.002  -3.635   3.661  0.00  0.00    +0.068 A 
ATOM     35  S   UNL     1       4.650  -4.530   4.413  0.00  0.00    -0.058 S 
ENDBRANCH  30  31
ENDBRANCH  27  30
ENDBRANCH  24  27
ENDBRANCH  19  21
ENDBRANCH   1  19
TORSDOF 12
