REMARK  Name = ZINC33652076
REMARK  7 active torsions:
REMARK  status: ('A' for Active; 'I' for Inactive)
REMARK    1  A    between atoms: C_4  and  C_7
REMARK    2  A    between atoms: C_8  and  C_9
REMARK    3  A    between atoms: C_12  and  C_15
REMARK    4  A    between atoms: N_23  and  C_26
REMARK    5  A    between atoms: C_32  and  C_34
REMARK    6  A    between atoms: C_32  and  C_38
REMARK    7  A    between atoms: C_34  and  C_35
REMARK                            x       y       z     vdW  Elec       q    Type
REMARK                         _______ _______ _______ _____ _____    ______ ____
ROOT
ATOM      1  C   UNL     1       8.741  -4.817  -0.109  0.00  0.00    -0.027 C 
ATOM      2  C   UNL     1       9.075  -5.359   1.278  0.00  0.00    +0.077 C 
ATOM      3  C   UNL     1      10.154  -6.412   0.822  0.00  0.00    +0.086 C 
ATOM      4  C   UNL     1      10.839  -6.694   2.060  0.00  0.00    +0.225 C 
ATOM      5  O   UNL     1      11.329  -7.746   2.410  0.00  0.00    -0.275 OA
ATOM      6  N   UNL     1      10.816  -5.510   2.755  0.00  0.00    -0.239 N 
ATOM      7  C   UNL     1       9.942  -4.586   2.220  0.00  0.00    +0.225 C 
ATOM      8  O   UNL     1       9.887  -3.398   2.455  0.00  0.00    -0.275 OA
ATOM      9  C   UNL     1       9.498  -7.116  -0.288  0.00  0.00    +0.058 C 
ATOM     10  N   UNL     1       8.648  -6.055  -0.949  0.00  0.00    +0.396 N 
ATOM     11  H   UNL     1       7.691  -6.371  -0.988  0.00  0.00    -0.083 HD
ATOM     12  H   UNL     1       8.985  -5.864  -1.880  0.00  0.00    -0.083 HD
ENDROOT
BRANCH   1  16
ATOM     13  C   UNL     1       5.003  -2.740  -0.061  0.00  0.00    -0.025 A 
ATOM     14  C   UNL     1       6.203  -2.024  -0.064  0.00  0.00    +0.008 A 
ATOM     15  C   UNL     1       7.405  -2.701  -0.079  0.00  0.00    +0.002 A 
ATOM     16  C   UNL     1       7.424  -4.085  -0.092  0.00  0.00    -0.061 A 
ATOM     17  C   UNL     1       6.239  -4.800  -0.090  0.00  0.00    +0.002 A 
ATOM     18  C   UNL     1       5.030  -4.137  -0.069  0.00  0.00    +0.008 A 
BRANCH  13  20
ATOM     19  C   UNL     1       3.693  -0.681  -0.037  0.00  0.00    +0.008 C 
ATOM     20  C   UNL     1       3.715  -2.024  -0.045  0.00  0.00    +0.008 C 
BRANCH  19  24
ATOM     21  C   UNL     1      -0.017   1.380   0.010  0.00  0.00    +0.000 A 
ATOM     22  C   UNL     1       1.168   2.095   0.002  0.00  0.00    +0.001 A 
ATOM     23  C   UNL     1       2.377   1.431  -0.013  0.00  0.00    +0.008 A 
ATOM     24  C   UNL     1       2.404   0.034  -0.021  0.00  0.00    -0.025 A 
ATOM     25  C   UNL     1       1.204  -0.681  -0.013  0.00  0.00    +0.008 A 
ATOM     26  C   UNL     1       0.002  -0.004   0.002  0.00  0.00    +0.001 A 
ENDBRANCH  19  24
ENDBRANCH  13  20
ENDBRANCH   1  16
BRANCH   6  27
ATOM     27  C   UNL     1      11.624  -5.256   3.950  0.00  0.00    +0.084 C 
ATOM     28  C   UNL     1      10.704  -4.943   5.132  0.00  0.00    +0.023 C 
ATOM     29  C   UNL     1      11.548  -4.678   6.380  0.00  0.00    +0.002 C 
ATOM     30  C   UNL     1      12.473  -3.486   6.125  0.00  0.00    +0.000 C 
ATOM     31  C   UNL     1      13.394  -3.798   4.944  0.00  0.00    +0.002 C 
ATOM     32  C   UNL     1      12.550  -4.064   3.696  0.00  0.00    +0.023 C 
ENDBRANCH   6  27
BRANCH   9  33
ATOM     33  C   UNL     1       8.655  -8.250   0.235  0.00  0.00    +0.347 C 
ATOM     34  O   UNL     1       7.455  -8.268   0.019  0.00  0.00    -0.248 OA
ATOM     35  O   UNL     1       9.173  -9.151   0.873  0.00  0.00    -0.248 OA
ENDBRANCH   9  33
BRANCH   9  36
ATOM     36  C   UNL     1      10.540  -7.636  -1.280  0.00  0.00    +0.125 C 
BRANCH  36  37
ATOM     37  C   UNL     1       9.842  -8.246  -2.468  0.00  0.00    +0.355 C 
ATOM     38  O   UNL     1       8.624  -8.262  -2.517  0.00  0.00    -0.246 OA
ATOM     39  O   UNL     1      10.495  -8.722  -3.381  0.00  0.00    -0.246 OA
ENDBRANCH  36  37
ENDBRANCH   9  36
TORSDOF 7
