REMARK  Name = ZINC34783311
REMARK  10 active torsions:
REMARK  status: ('A' for Active; 'I' for Inactive)
REMARK    1  A    between atoms: C_1  and  C_2
REMARK    2  A    between atoms: N_6  and  C_21
REMARK    3  A    between atoms: N_9  and  C_17
REMARK    4  A    between atoms: C_12  and  C_13
REMARK    5  A    between atoms: N_15  and  N_16
REMARK    6  A    between atoms: C_17  and  C_18
REMARK    7  A    between atoms: C_21  and  C_22
REMARK    8  A    between atoms: N_24  and  C_25
REMARK    9  A    between atoms: C_28  and  O_31
REMARK   10  A    between atoms: O_31  and  C_32
REMARK                            x       y       z     vdW  Elec       q    Type
REMARK                         _______ _______ _______ _____ _____    ______ ____
ROOT
ATOM      1  C   UNL     1      -0.045   1.509   0.002  0.00  0.00    +0.046 C 
ATOM      2  C   UNL     1      -0.015   0.003  -0.002  0.00  0.00    -0.017 A 
ATOM      3  C   UNL     1      -0.003  -0.724  -1.199  0.00  0.00    +0.074 A 
ATOM      4  C   UNL     1      -0.017  -0.215  -2.592  0.00  0.00    +0.266 A 
ATOM      5  O   UNL     1      -0.041   0.982  -2.810  0.00  0.00    -0.267 OA
ATOM      6  N   UNL     1      -0.002  -1.092  -3.611  0.00  0.00    -0.251 N 
ATOM      7  C   UNL     1       0.024  -2.418  -3.403  0.00  0.00    +0.334 A 
ATOM      8  O   UNL     1       0.037  -3.169  -4.359  0.00  0.00    -0.246 OA
ATOM      9  N   UNL     1       0.038  -2.935  -2.160  0.00  0.00    -0.278 N 
ATOM     10  C   UNL     1       0.025  -2.120  -1.064  0.00  0.00    +0.098 A 
ATOM     11  S   UNL     1       0.035  -2.398   0.584  0.00  0.00    -0.065 S 
ATOM     12  C   UNL     1       0.008  -0.712   1.161  0.00  0.00    +0.081 A 
ENDROOT
BRANCH  12  13
ATOM     13  C   UNL     1       0.009  -0.217   2.539  0.00  0.00    +0.264 C 
ATOM     14  O   UNL     1      -0.013   0.981   2.756  0.00  0.00    -0.268 OA
ATOM     15  N   UNL     1       0.034  -1.087   3.568  0.00  0.00    -0.249 N 
ATOM     16  H   UNL     1       0.052  -2.042   3.395  0.00  0.00    +0.169 HD
BRANCH  15  17
ATOM     17  N   UNL     1       0.035  -0.626   4.853  0.00  0.00    -0.254 NA
ATOM     18  H   UNL     1       0.055  -1.390   5.512  0.00  0.00    +0.140 HD
ATOM     19  H   UNL     1       0.805   0.007   5.010  0.00  0.00    +0.140 HD
ENDBRANCH  15  17
ENDBRANCH  12  13
BRANCH   9  20
ATOM     20  C   UNL     1       0.067  -4.389  -1.981  0.00  0.00    +0.222 C 
BRANCH  20  21
ATOM     21  C   UNL     1       1.497  -4.860  -1.924  0.00  0.00    +0.230 C 
ATOM     22  O   UNL     1       2.403  -4.060  -2.023  0.00  0.00    -0.274 OA
ATOM     23  N   UNL     1       1.769  -6.170  -1.763  0.00  0.00    -0.328 N 
ATOM     24  H   UNL     1       1.044  -6.809  -1.684  0.00  0.00    +0.145 HD
ATOM     25  H   UNL     1       2.690  -6.473  -1.726  0.00  0.00    +0.145 HD
ENDBRANCH  20  21
ENDBRANCH   9  20
BRANCH   6  26
ATOM     26  C   UNL     1      -0.016  -0.587  -4.986  0.00  0.00    +0.226 C 
BRANCH  26  27
ATOM     27  C   UNL     1       1.399  -0.385  -5.462  0.00  0.00    +0.237 C 
ATOM     28  O   UNL     1       2.329  -0.638  -4.724  0.00  0.00    -0.274 OA
ATOM     29  N   UNL     1       1.633   0.077  -6.706  0.00  0.00    -0.284 N 
ATOM     30  H   UNL     1       0.894   0.216  -7.319  0.00  0.00    +0.155 HD
BRANCH  29  31
ATOM     31  C   UNL     1       2.943   0.357  -7.115  0.00  0.00    +0.034 A 
ATOM     32  C   UNL     1       3.192   1.424  -7.968  0.00  0.00    +0.027 A 
ATOM     33  C   UNL     1       4.484   1.699  -8.370  0.00  0.00    +0.047 A 
ATOM     34  C   UNL     1       5.534   0.909  -7.923  0.00  0.00    +0.120 A 
ATOM     35  C   UNL     1       5.286  -0.157  -7.071  0.00  0.00    +0.047 A 
ATOM     36  C   UNL     1       3.995  -0.430  -6.663  0.00  0.00    +0.027 A 
BRANCH  34  37
ATOM     37  O   UNL     1       6.805   1.180  -8.320  0.00  0.00    -0.495 OA
ATOM     38  C   UNL     1       7.837   0.327  -7.821  0.00  0.00    +0.277 C 
ENDBRANCH  34  37
ENDBRANCH  29  31
ENDBRANCH  26  27
ENDBRANCH   6  26
TORSDOF 8
