REMARK  Name = ZINC20114356
REMARK  7 active torsions:
REMARK  status: ('A' for Active; 'I' for Inactive)
REMARK    1  A    between atoms: C_1  and  C_2
REMARK    2  A    between atoms: C_4  and  C_11
REMARK    3  A    between atoms: C_7  and  N_8
REMARK    4  A    between atoms: N_13  and  C_14
REMARK    5  A    between atoms: C_20  and  C_31
REMARK    6  A    between atoms: C_22  and  N_24
REMARK    7  A    between atoms: N_27  and  C_30
REMARK                            x       y       z     vdW  Elec       q    Type
REMARK                         _______ _______ _______ _____ _____    ______ ____
ROOT
ATOM      1  C   UNL     1       0.618   3.618   0.116  0.00  0.00    +0.034 A 
ATOM      2  C   UNL     1      -0.707   4.053   0.001  0.00  0.00    +0.025 A 
ATOM      3  C   UNL     1      -1.014   5.378   0.026  0.00  0.00    +0.028 A 
ATOM      4  C   UNL     1       0.009   6.333   0.160  0.00  0.00    +0.048 A 
ATOM      5  C   UNL     1       1.353   5.900   0.272  0.00  0.00    +0.003 A 
ATOM      6  C   UNL     1       1.644   4.528   0.248  0.00  0.00    +0.033 A 
ATOM      7  C   UNL     1       2.376   6.861   0.406  0.00  0.00    -0.038 A 
ATOM      8  C   UNL     1       2.026   8.178   0.422  0.00  0.00    +0.045 A 
ATOM      9  C   UNL     1       0.678   8.544   0.308  0.00  0.00    +0.099 A 
ATOM     10  N   UNL     1      -0.273   7.641   0.183  0.00  0.00    -0.343 N 
ATOM     11  C   UNL     1       3.818   6.443   0.527  0.00  0.00    +0.044 C 
ATOM     12  H   UNL     1      -1.316   7.981   0.097  0.00  0.00    +0.167 HD
ENDROOT
BRANCH   9  13
ATOM     13  N   UNL     1       0.337   9.889   0.326  0.00  0.00    -0.314 N 
ATOM     14  C   UNL     1       0.836  10.542   1.544  0.00  0.00    +0.122 C 
ATOM     15  C   UNL     1       0.510  12.036   1.489  0.00  0.00    +0.103 C 
ATOM     16  N   UNL     1      -0.943  12.213   1.358  0.00  0.00    -0.302 NA
ATOM     17  C   UNL     1      -1.442  11.560   0.139  0.00  0.00    +0.103 C 
ATOM     18  C   UNL     1      -1.116  10.066   0.194  0.00  0.00    +0.122 C 
ATOM     19  C   UNL     1      -1.304  13.637   1.377  0.00  0.00    +0.105 C 
ENDBRANCH   9  13
BRANCH   1  22
ATOM     20  C   UNL     1       0.042   1.371   0.643  0.00  0.00    +0.248 C 
ATOM     21  O   UNL     1      -0.933   1.774   1.248  0.00  0.00    -0.270 OA
ATOM     22  N   UNL     1       0.903   2.249   0.091  0.00  0.00    -0.281 N 
ATOM     23  H   UNL     1       1.829   1.889  -0.379  0.00  0.00    +0.155 HD
BRANCH  20  27
ATOM     24  C   UNL     1      -1.343  -3.333   1.565  0.00  0.00    +0.046 C 
ATOM     25  C   UNL     1      -0.384  -2.348   0.949  0.00  0.00    -0.020 A 
ATOM     26  C   UNL     1      -0.611  -0.993   1.079  0.00  0.00    +0.018 A 
ATOM     27  C   UNL     1       0.279  -0.082   0.508  0.00  0.00    +0.037 A 
ATOM     28  C   UNL     1       1.391  -0.548  -0.196  0.00  0.00    +0.015 A 
ATOM     29  C   UNL     1       1.608  -1.905  -0.314  0.00  0.00    +0.034 A 
ATOM     30  C   UNL     1       0.723  -2.803   0.254  0.00  0.00    +0.129 A 
BRANCH  30  31
ATOM     31  N   UNL     1       0.960  -4.258   0.119  0.00  0.00    +0.057 N 
ATOM     32  O   UNL     1       2.098  -4.693   0.132  0.00  0.00    -0.126 OA
ATOM     33  O   UNL     1       0.018  -5.019  -0.006  0.00  0.00    -0.126 OA
ENDBRANCH  30  31
ENDBRANCH  20  27
ENDBRANCH   1  22
TORSDOF 4
