REMARK  Name = ZINC12849402
REMARK  5 active torsions:
REMARK  status: ('A' for Active; 'I' for Inactive)
REMARK    1  A    between atoms: C_3  and  C_6
REMARK    2  A    between atoms: C_9  and  C_28
REMARK    3  A    between atoms: C_14  and  C_16
REMARK    4  A    between atoms: N_18  and  C_19
REMARK    5  A    between atoms: C_24  and  O_25
REMARK                            x       y       z     vdW  Elec       q    Type
REMARK                         _______ _______ _______ _____ _____    ______ ____
ROOT
ATOM      1  C   UNL     1       3.758   1.796  -0.051  0.00  0.00    +0.111 C 
ATOM      2  C   UNL     1       4.323   1.733  -1.475  0.00  0.00    +0.063 C 
ATOM      3  C   UNL     1       5.737   2.324  -1.502  0.00  0.00    +0.215 C 
ATOM      4  N   UNL     1       6.528   1.710  -0.432  0.00  0.00    -0.238 N 
ATOM      5  C   UNL     1       5.981   1.073   0.645  0.00  0.00    +0.119 A 
ATOM      6  C   UNL     1       6.986   0.628   1.425  0.00  0.00    +0.078 A 
ATOM      7  C   UNL     1       8.202   1.004   0.810  0.00  0.00    +0.149 A 
ATOM      8  N   UNL     1       7.915   1.654  -0.304  0.00  0.00    -0.164 NA
ATOM      9  N   UNL     1       4.598   0.959   0.828  0.00  0.00    -0.322 N 
ATOM     10  H   UNL     1       4.214   0.363   1.491  0.00  0.00    +0.148 HD
ENDROOT
BRANCH   1  13
ATOM     11  C   UNL     1      -0.015   1.275  -0.030  0.00  0.00    +0.008 A 
ATOM     12  C   UNL     1       1.180   1.970  -0.035  0.00  0.00    +0.013 A 
ATOM     13  C   UNL     1       2.344   1.276  -0.044  0.00  0.00    +0.010 A 
ATOM     14  S   UNL     1       1.767  -0.413  -0.046  0.00  0.00    -0.100 S 
ATOM     15  C   UNL     1       0.013  -0.080  -0.034  0.00  0.00    +0.045 A 
ENDBRANCH   1  13
BRANCH   7  16
ATOM     16  C   UNL     1       9.557   0.720   1.324  0.00  0.00    +0.268 C 
ATOM     17  O   UNL     1       9.696   0.110   2.367  0.00  0.00    -0.268 OA
ATOM     18  N   UNL     1      10.639   1.136   0.637  0.00  0.00    -0.277 N 
ATOM     19  H   UNL     1      10.530   1.565  -0.226  0.00  0.00    +0.155 HD
BRANCH  18  20
ATOM     20  C   UNL     1      11.921   0.949   1.170  0.00  0.00    +0.077 A 
ATOM     21  C   UNL     1      12.203  -0.180   1.925  0.00  0.00    +0.047 A 
ATOM     22  C   UNL     1      13.469  -0.362   2.450  0.00  0.00    +0.043 A 
ATOM     23  C   UNL     1      14.457   0.581   2.223  0.00  0.00    +0.023 A 
ATOM     24  C   UNL     1      14.183   1.708   1.471  0.00  0.00    +0.049 A 
ATOM     25  C   UNL     1      12.918   1.894   0.938  0.00  0.00    +0.138 A 
ATOM     26 CL   UNL     1      13.821  -1.774   3.395  0.00  0.00    -0.083 Cl
BRANCH  25  27
ATOM     27  O   UNL     1      12.648   3.000   0.194  0.00  0.00    -0.505 OA
ATOM     28  H   UNL     1      12.330   3.754   0.710  0.00  0.00    +0.292 HD
ENDBRANCH  25  27
ENDBRANCH  18  20
ENDBRANCH   7  16
BRANCH   3  29
ATOM     29  C   UNL     1       6.388   2.033  -2.856  0.00  0.00    +0.412 C 
ATOM     30  F   UNL     1       5.622   2.610  -3.875  0.00  0.00    -0.168 F 
ATOM     31  F   UNL     1       7.678   2.573  -2.879  0.00  0.00    -0.168 F 
ATOM     32  F   UNL     1       6.457   0.649  -3.052  0.00  0.00    -0.168 F 
ENDBRANCH   3  29
TORSDOF 5
