REMARK  Name = ZINC04349223
REMARK  13 active torsions:
REMARK  status: ('A' for Active; 'I' for Inactive)
REMARK    1  A    between atoms: C_3  and  O_39
REMARK    2  A    between atoms: C_4  and  O_38
REMARK    3  A    between atoms: C_6  and  C_7
REMARK    4  A    between atoms: C_8  and  O_37
REMARK    5  A    between atoms: C_12  and  O_36
REMARK    6  A    between atoms: C_14  and  O_35
REMARK    7  A    between atoms: C_15  and  O_18
REMARK    8  A    between atoms: O_18  and  C_19
REMARK    9  A    between atoms: C_21  and  O_34
REMARK   10  A    between atoms: C_23  and  O_33
REMARK   11  A    between atoms: C_25  and  O_32
REMARK   12  A    between atoms: C_27  and  C_30
REMARK   13  A    between atoms: C_30  and  O_31
REMARK                            x       y       z     vdW  Elec       q    Type
REMARK                         _______ _______ _______ _____ _____    ______ ____
ROOT
ATOM      1  C   UNL     1      -2.191  -0.876  -0.584  0.00  0.00    +0.181 A 
ATOM      2  C   UNL     1      -3.468  -0.485  -0.854  0.00  0.00    +0.208 A 
ATOM      3  C   UNL     1      -4.494  -1.462  -0.942  0.00  0.00    +0.238 A 
ATOM      4  O   UNL     1      -5.649  -1.149  -1.182  0.00  0.00    -0.283 OA
ATOM      5  C   UNL     1      -4.110  -2.867  -0.732  0.00  0.00    +0.113 A 
ATOM      6  C   UNL     1      -5.058  -3.897  -0.801  0.00  0.00    +0.135 A 
ATOM      7  C   UNL     1      -4.660  -5.205  -0.599  0.00  0.00    +0.095 A 
ATOM      8  C   UNL     1      -3.328  -5.497  -0.329  0.00  0.00    +0.166 A 
ATOM      9  C   UNL     1      -2.381  -4.483  -0.258  0.00  0.00    +0.208 A 
ATOM     10  C   UNL     1      -2.763  -3.162  -0.459  0.00  0.00    +0.188 A 
ATOM     11  O   UNL     1      -1.855  -2.164  -0.400  0.00  0.00    -0.447 OA
ENDROOT
BRANCH   1  17
ATOM     12  C   UNL     1      -0.240   0.146   0.575  0.00  0.00    +0.015 A 
ATOM     13  C   UNL     1       0.744   1.108   0.654  0.00  0.00    +0.050 A 
ATOM     14  C   UNL     1       0.847   2.083  -0.328  0.00  0.00    +0.158 A 
ATOM     15  C   UNL     1      -0.044   2.095  -1.400  0.00  0.00    +0.159 A 
ATOM     16  C   UNL     1      -1.033   1.134  -1.486  0.00  0.00    +0.060 A 
ATOM     17  C   UNL     1      -1.137   0.152  -0.497  0.00  0.00    +0.025 A 
BRANCH  15  18
ATOM     18  O   UNL     1       0.060   3.052  -2.360  0.00  0.00    -0.503 OA
ATOM     19  H   UNL     1       0.636   2.808  -3.097  0.00  0.00    +0.292 HD
ENDBRANCH  15  18
BRANCH  14  20
ATOM     20  O   UNL     1       1.819   3.029  -0.244  0.00  0.00    -0.503 OA
ATOM     21  H   UNL     1       2.647   2.782  -0.679  0.00  0.00    +0.292 HD
ENDBRANCH  14  20
ENDBRANCH   1  17
BRANCH   8  22
ATOM     22  O   UNL     1      -2.948  -6.787  -0.131  0.00  0.00    -0.503 OA
ATOM     23  H   UNL     1      -2.770  -7.274  -0.947  0.00  0.00    +0.292 HD
ENDBRANCH   8  22
BRANCH   6  24
ATOM     24  O   UNL     1      -6.359  -3.611  -1.065  0.00  0.00    -0.506 OA
ATOM     25  H   UNL     1      -6.580  -3.614  -2.006  0.00  0.00    +0.292 HD
ENDBRANCH   6  24
BRANCH   2  26
ATOM     26  O   UNL     1      -3.758   0.832  -1.038  0.00  0.00    -0.501 OA
ATOM     27  H   UNL     1      -4.691   1.007  -1.224  0.00  0.00    +0.292 HD
ENDBRANCH   2  26
BRANCH   9  28
ATOM     28  O   UNL     1      -1.080  -4.783   0.007  0.00  0.00    -0.453 OA
BRANCH  28  29
ATOM     29  C   UNL     1      -0.193  -4.871  -1.110  0.00  0.00    +0.340 C 
ATOM     30  C   UNL     1       1.255  -4.789  -0.620  0.00  0.00    +0.214 C 
ATOM     31  C   UNL     1       1.544  -5.981   0.298  0.00  0.00    +0.180 C 
ATOM     32  C   UNL     1       1.261  -7.279  -0.465  0.00  0.00    +0.177 C 
ATOM     33  C   UNL     1      -0.187  -7.265  -0.961  0.00  0.00    +0.179 C 
ATOM     34  O   UNL     1      -0.397  -6.115  -1.783  0.00  0.00    -0.331 OA
BRANCH  32  35
ATOM     35  O   UNL     1       2.148  -7.380  -1.580  0.00  0.00    -0.386 OA
ATOM     36  H   UNL     1       3.085  -7.389  -1.339  0.00  0.00    +0.210 HD
ENDBRANCH  32  35
BRANCH  31  37
ATOM     37  O   UNL     1       2.914  -5.951   0.703  0.00  0.00    -0.386 OA
ATOM     38  H   UNL     1       3.164  -5.152   1.187  0.00  0.00    +0.210 HD
ENDBRANCH  31  37
BRANCH  30  39
ATOM     39  O   UNL     1       2.141  -4.822  -1.740  0.00  0.00    -0.383 OA
ATOM     40  H   UNL     1       2.010  -4.096  -2.367  0.00  0.00    +0.210 HD
ENDBRANCH  30  39
BRANCH  33  41
ATOM     41  C   UNL     1      -0.460  -8.531  -1.775  0.00  0.00    +0.190 C 
BRANCH  41  42
ATOM     42  O   UNL     1      -1.844  -8.583  -2.126  0.00  0.00    -0.392 OA
ATOM     43  H   UNL     1      -2.089  -9.361  -2.644  0.00  0.00    +0.210 HD
ENDBRANCH  41  42
ENDBRANCH  33  41
ENDBRANCH  28  29
ENDBRANCH   9  28
TORSDOF 13
