REMARK  Name = ZINC13049581
REMARK  13 active torsions:
REMARK  status: ('A' for Active; 'I' for Inactive)
REMARK    1  A    between atoms: C_1  and  C_2
REMARK    2  A    between atoms: C_2  and  C_4
REMARK    3  A    between atoms: C_2  and  S_14
REMARK    4  A    between atoms: N_9  and  C_10
REMARK    5  A    between atoms: C_10  and  C_11
REMARK    6  A    between atoms: C_10  and  C_12
REMARK    7  A    between atoms: C_10  and  C_13
REMARK    8  A    between atoms: S_14  and  C_15
REMARK    9  A    between atoms: C_19  and  C_30
REMARK   10  A    between atoms: N_25  and  C_26
REMARK   11  A    between atoms: C_26  and  C_27
REMARK   12  A    between atoms: C_27  and  C_28
REMARK   13  A    between atoms: C_27  and  C_29
REMARK                            x       y       z     vdW  Elec       q    Type
REMARK                         _______ _______ _______ _____ _____    ______ ____
ROOT
ATOM      1  C   UNL     1       2.509  -0.029  -1.285  0.00  0.00    +0.173 A 
ATOM      2  N   UNL     1       2.812   0.640  -0.200  0.00  0.00    -0.223 NA
ATOM      3  C   UNL     1       4.066   1.100   0.022  0.00  0.00    +0.080 A 
ATOM      4  C   UNL     1       4.388   1.812   1.181  0.00  0.00    +0.043 A 
ATOM      5  C   UNL     1       5.689   2.264   1.366  0.00  0.00    +0.065 A 
ATOM      6  C   UNL     1       6.673   2.011   0.401  0.00  0.00    +0.016 A 
ATOM      7  C   UNL     1       6.370   1.317  -0.735  0.00  0.00    +0.016 A 
ATOM      8  C   UNL     1       5.071   0.853  -0.940  0.00  0.00    +0.065 A 
ATOM      9  C   UNL     1       4.702   0.099  -2.150  0.00  0.00    +0.262 A 
ATOM     10  O   UNL     1       5.522  -0.146  -3.015  0.00  0.00    -0.267 OA
ATOM     11  N   UNL     1       3.419  -0.316  -2.262  0.00  0.00    -0.287 N 
ENDROOT
BRANCH   5  12
ATOM     12  C   UNL     1       6.037   3.018   2.589  0.00  0.00    +0.387 C 
ATOM     13  O   UNL     1       5.181   3.242   3.433  0.00  0.00    -0.241 OA
ATOM     14  O   UNL     1       7.180   3.418   2.756  0.00  0.00    -0.241 OA
ENDBRANCH   5  12
BRANCH   1  15
ATOM     15  S   UNL     1       0.851  -0.589  -1.490  0.00  0.00    -0.075 S 
BRANCH  15  17
ATOM     16  C   UNL     1      -0.019   1.526   0.010  0.00  0.00    +0.029 C 
ATOM     17  C   UNL     1       0.002  -0.004   0.002  0.00  0.00    +0.137 C 
BRANCH  17  18
ATOM     18  C   UNL     1      -1.412  -0.526   0.013  0.00  0.00    +0.233 C 
ATOM     19  O   UNL     1      -1.927  -0.901  -1.018  0.00  0.00    -0.274 OA
ATOM     20  N   UNL     1      -2.103  -0.575   1.169  0.00  0.00    -0.239 N 
ATOM     21  C   UNL     1      -3.368  -1.042   1.178  0.00  0.00    +0.306 C 
ATOM     22  O   UNL     1      -3.884  -1.418   0.144  0.00  0.00    -0.252 OA
ATOM     23  N   UNL     1      -4.059  -1.091   2.334  0.00  0.00    -0.294 N 
ATOM     24  H   UNL     1      -1.691  -0.275   1.994  0.00  0.00    +0.159 HD
ATOM     25  H   UNL     1      -3.647  -0.790   3.159  0.00  0.00    +0.151 HD
BRANCH  23  26
ATOM     26  C   UNL     1      -5.433  -1.598   2.344  0.00  0.00    +0.028 C 
ATOM     27  C   UNL     1      -5.447  -3.043   1.843  0.00  0.00    +0.031 C 
ATOM     28  C   UNL     1      -5.985  -1.547   3.771  0.00  0.00    +0.031 C 
ATOM     29  C   UNL     1      -6.303  -0.733   1.430  0.00  0.00    +0.031 C 
ENDBRANCH  23  26
ENDBRANCH  17  18
ENDBRANCH  15  17
ENDBRANCH   1  15
BRANCH  11  30
ATOM     30  C   UNL     1       3.001  -1.074  -3.444  0.00  0.00    +0.130 C 
BRANCH  30  31
ATOM     31  C   UNL     1       2.522  -0.107  -4.528  0.00  0.00    +0.003 C 
ATOM     32  C   UNL     1       2.204  -0.888  -5.804  0.00  0.00    +0.009 C 
ATOM     33  C   UNL     1       1.263   0.617  -4.046  0.00  0.00    +0.009 C 
ENDBRANCH  30  31
ENDBRANCH  11  30
TORSDOF 7
