REMARK  Name = ZINC09975225
REMARK  7 active torsions:
REMARK  status: ('A' for Active; 'I' for Inactive)
REMARK    1  A    between atoms: C_9  and  C_11
REMARK    2  A    between atoms: N_12  and  N_13
REMARK    3  A    between atoms: N_22  and  C1*_23
REMARK    4  A    between atoms: C2*_25  and  O2*_35
REMARK    5  A    between atoms: C3*_27  and  O3*_34
REMARK    6  A    between atoms: C4*_29  and  C5*_32
REMARK    7  A    between atoms: C5*_32  and  O5*_33
REMARK                            x       y       z     vdW  Elec       q    Type
REMARK                         _______ _______ _______ _____ _____    ______ ____
ROOT
ATOM      1  N   UNL     1       7.330  -2.466  -0.081  0.00  0.00    -0.206 N 
ATOM      2  C   UNL     1       8.482  -1.704  -0.088  0.00  0.00    +0.220 A 
ATOM      3  N   UNL     1       8.521  -0.395  -0.076  0.00  0.00    -0.208 NA
ATOM      4  C   UNL     1       9.812   0.018  -0.088  0.00  0.00    +0.149 A 
ATOM      5  C   UNL     1      10.446   1.272  -0.084  0.00  0.00    +0.147 A 
ATOM      6  N   UNL     1      11.774   1.310  -0.101  0.00  0.00    -0.219 NA
ATOM      7  C   UNL     1      12.490   0.201  -0.120  0.00  0.00    +0.225 A 
ATOM      8  N   UNL     1      11.940  -0.995  -0.125  0.00  0.00    -0.216 NA
ATOM      9  C   UNL     1      10.618  -1.133  -0.109  0.00  0.00    +0.169 A 
ATOM     10  N   UNL     1       9.756  -2.204  -0.103  0.00  0.00    -0.266 N 
ATOM     11  N   UNL     1       9.703   2.441  -0.064  0.00  0.00    -0.341 N 
ATOM     12  H   UNL     1       7.388  -3.434  -0.087  0.00  0.00    +0.177 HD
ATOM     13  H   UNL     1       8.734   2.399  -0.052  0.00  0.00    +0.144 HD
ATOM     14  H   UNL     1      10.152   3.300  -0.061  0.00  0.00    +0.144 HD
ENDROOT
BRANCH  10  15
ATOM     15  C1* UNL     1      10.133  -3.620  -0.114  0.00  0.00    +0.255 C 
ATOM     16  C2* UNL     1       9.859  -4.239  -1.503  0.00  0.00    +0.195 C 
ATOM     17  C3* UNL     1       9.362  -5.667  -1.186  0.00  0.00    +0.178 C 
ATOM     18  C4* UNL     1       9.393  -5.742   0.356  0.00  0.00    +0.177 C 
ATOM     19  O4* UNL     1       9.299  -4.369   0.797  0.00  0.00    -0.346 OA
BRANCH  17  20
ATOM     20  O3* UNL     1       8.031  -5.852  -1.672  0.00  0.00    -0.386 OA
ATOM     21  H3* UNL     1       7.668  -6.732  -1.500  0.00  0.00    +0.210 HD
ENDBRANCH  17  20
BRANCH  16  22
ATOM     22  O2* UNL     1       8.852  -3.495  -2.192  0.00  0.00    -0.385 OA
ATOM     23  H2* UNL     1       8.641  -3.841  -3.071  0.00  0.00    +0.210 HD
ENDBRANCH  16  22
BRANCH  18  24
ATOM     24  C5* UNL     1       8.204  -6.554   0.874  0.00  0.00    +0.190 C 
BRANCH  24  25
ATOM     25  O5* UNL     1       8.315  -6.710   2.291  0.00  0.00    -0.392 OA
ATOM     26  H5* UNL     1       7.593  -7.216   2.688  0.00  0.00    +0.210 HD
ENDBRANCH  24  25
ENDBRANCH  18  24
ENDBRANCH  10  15
BRANCH   1  28
ATOM     27  C   UNL     1       4.993  -2.556  -0.059  0.00  0.00    +0.158 C 
ATOM     28  N   UNL     1       6.077  -1.840  -0.066  0.00  0.00    -0.186 NA
BRANCH  27  37
ATOM     29  C   UNL     1      -0.016   1.358   0.009  0.00  0.00    +0.001 A 
ATOM     30  C   UNL     1       1.169   2.089   0.002  0.00  0.00    +0.002 A 
ATOM     31  C   UNL     1       2.379   1.465  -0.013  0.00  0.00    +0.028 A 
ATOM     32  C   UNL     1       2.439   0.060  -0.021  0.00  0.00    +0.072 A 
ATOM     33  C   UNL     1       1.231  -0.682  -0.013  0.00  0.00    +0.000 A 
ATOM     34  C   UNL     1       0.002  -0.004   0.002  0.00  0.00    +0.010 A 
ATOM     35  C   UNL     1       1.288  -2.091  -0.021  0.00  0.00    +0.012 A 
ATOM     36  C   UNL     1       2.512  -2.688  -0.036  0.00  0.00    +0.030 A 
ATOM     37  C   UNL     1       3.676  -1.898  -0.043  0.00  0.00    +0.084 A 
ATOM     38  N   UNL     1       3.612  -0.577  -0.035  0.00  0.00    -0.246 NA
ENDBRANCH  27  37
ENDBRANCH   1  28
TORSDOF 7
