REMARK  Name = ZINC39978759
REMARK  9 active torsions:
REMARK  status: ('A' for Active; 'I' for Inactive)
REMARK    1  A    between atoms: C_1  and  C_2
REMARK    2  A    between atoms: C_5  and  N_8
REMARK    3  A    between atoms: C_11  and  C_14
REMARK    4  A    between atoms: C_14  and  N_15
REMARK    5  A    between atoms: N_15  and  C_16
REMARK    6  A    between atoms: N_15  and  C_17
REMARK    7  A    between atoms: C_17  and  C_19
REMARK    8  A    between atoms: C_17  and  C_20
REMARK    9  A    between atoms: C_23  and  N_26
REMARK                            x       y       z     vdW  Elec       q    Type
REMARK                         _______ _______ _______ _____ _____    ______ ____
ROOT
ATOM      1  N   UNL     1      -0.767  -8.791   2.789  0.00  0.00    +0.386 N 
ATOM      2  C   UNL     1      -1.527  -8.305   3.949  0.00  0.00    -0.095 C 
ATOM      3  H   UNL     1      -1.260  -8.555   1.941  0.00  0.00    -0.081 HD
ENDROOT
BRANCH   1   4
ATOM      4  C   UNL     1      -0.618 -10.250   2.878  0.00  0.00    -0.041 C 
ATOM      5  C   UNL     1      -2.001 -10.904   2.892  0.00  0.00    -0.008 C 
BRANCH   4   6
ATOM      6  C   UNL     1       0.162 -10.749   1.689  0.00  0.00    -0.061 A 
ATOM      7  C   UNL     1      -0.065 -10.205   0.438  0.00  0.00    +0.004 A 
ATOM      8  C   UNL     1       0.649 -10.659  -0.654  0.00  0.00    +0.028 A 
ATOM      9  C   UNL     1       1.594 -11.663  -0.494  0.00  0.00    +0.067 A 
ATOM     10  C   UNL     1       1.819 -12.208   0.763  0.00  0.00    +0.028 A 
ATOM     11  C   UNL     1       1.107 -11.745   1.852  0.00  0.00    +0.004 A 
BRANCH   9  12
ATOM     12  N   UNL     1       2.320 -12.127  -1.601  0.00  0.00    -0.220 N 
ATOM     13  C   UNL     1       3.259 -13.093  -1.603  0.00  0.00    +0.225 A 
ATOM     14  N   UNL     1       3.696 -13.229  -2.829  0.00  0.00    -0.222 NA
ATOM     15  C   UNL     1       3.064 -12.374  -3.633  0.00  0.00    +0.245 A 
ATOM     16  N   UNL     1       2.208 -11.682  -2.928  0.00  0.00    -0.154 NA
ENDBRANCH   9  12
ENDBRANCH   4   6
ENDBRANCH   1   4
BRANCH   1  17
ATOM     17  C   UNL     1       0.561  -8.163   2.776  0.00  0.00    -0.021 C 
BRANCH  17  21
ATOM     18  N   UNL     1       0.058  -4.168  -0.021  0.00  0.00    -0.294 N 
ATOM     19  C   UNL     1       0.178  -4.867   1.171  0.00  0.00    +0.162 A 
ATOM     20  N   UNL     1       0.308  -6.164   1.349  0.00  0.00    -0.232 NA
ATOM     21  C   UNL     1       0.412  -6.679   2.562  0.00  0.00    +0.034 A 
ATOM     22  C   UNL     1       0.379  -5.813   3.603  0.00  0.00    +0.070 A 
ATOM     23  S   UNL     1       0.200  -4.260   2.741  0.00  0.00    -0.060 S 
ATOM     24  H   UNL     1      -0.025  -4.650  -0.859  0.00  0.00    +0.154 HD
BRANCH  18  29
ATOM     25  C   UNL     1       0.058   1.503   0.002  0.00  0.00    +0.044 C 
ATOM     26  C   UNL     1       0.058  -0.004  -0.004  0.00  0.00    -0.050 A 
ATOM     27  C   UNL     1       0.827  -0.697   0.913  0.00  0.00    +0.005 A 
ATOM     28  C   UNL     1       0.829  -2.078   0.910  0.00  0.00    +0.023 A 
ATOM     29  C   UNL     1       0.058  -2.771  -0.015  0.00  0.00    +0.033 A 
ATOM     30  C   UNL     1      -0.714  -2.071  -0.934  0.00  0.00    +0.023 A 
ATOM     31  C   UNL     1      -0.716  -0.690  -0.922  0.00  0.00    +0.005 A 
ENDBRANCH  18  29
ENDBRANCH  17  21
ENDBRANCH   1  17
TORSDOF 6
