REMARK  Name = ZINC43726436
REMARK  6 active torsions:
REMARK  status: ('A' for Active; 'I' for Inactive)
REMARK    1  A    between atoms: C_1  and  C_2
REMARK    2  A    between atoms: C_2  and  C_3
REMARK    3  A    between atoms: C_2  and  C_4
REMARK    4  A    between atoms: C_2  and  C_5
REMARK    5  A    between atoms: C_5  and  C_7
REMARK    6  A    between atoms: N_26  and  C_29
REMARK                            x       y       z     vdW  Elec       q    Type
REMARK                         _______ _______ _______ _____ _____    ______ ____
ROOT
ATOM      1  C   UNL     1       0.910  -1.889  -1.702  0.00  0.00    +0.172 C 
ATOM      2  C   UNL     1       1.822  -2.623  -0.709  0.00  0.00    +0.119 C 
ATOM      3  C   UNL     1       3.206  -2.680  -1.425  0.00  0.00    +0.116 C 
ATOM      4  C   UNL     1       2.846  -2.599  -2.914  0.00  0.00    +0.136 C 
ATOM      5  N   UNL     1       1.512  -2.000  -3.026  0.00  0.00    -0.236 N 
ATOM      6  N   UNL     1       0.997  -1.542  -4.252  0.00  0.00    -0.191 NA
ATOM      7  C   UNL     1       1.861  -1.051  -5.102  0.00  0.00    +0.138 C 
ATOM      8  C   UNL     1       3.291  -0.978  -4.742  0.00  0.00    -0.000 A 
ATOM      9  C   UNL     1       3.815  -1.725  -3.667  0.00  0.00    -0.016 A 
ATOM     10  C   UNL     1       5.149  -1.691  -3.339  0.00  0.00    +0.006 A 
ATOM     11  C   UNL     1       6.015  -0.873  -4.046  0.00  0.00    +0.000 A 
ATOM     12  C   UNL     1       5.541  -0.090  -5.084  0.00  0.00    +0.001 A 
ATOM     13  C   UNL     1       4.155  -0.148  -5.458  0.00  0.00    +0.010 A 
ATOM     14  C   UNL     1       3.655  -4.095  -1.095  0.00  0.00    +0.232 C 
ATOM     15  O   UNL     1       4.796  -4.503  -1.126  0.00  0.00    -0.274 OA
ATOM     16  N   UNL     1       2.572  -4.814  -0.761  0.00  0.00    -0.210 N 
ATOM     17  C   UNL     1       1.438  -4.084  -0.616  0.00  0.00    +0.232 C 
ATOM     18  O   UNL     1       0.318  -4.516  -0.450  0.00  0.00    -0.274 OA
ENDROOT
BRANCH  16  19
ATOM     19  C   UNL     1       2.609  -6.202  -0.567  0.00  0.00    +0.047 A 
ATOM     20  C   UNL     1       1.484  -6.869  -0.102  0.00  0.00    +0.044 A 
ATOM     21  C   UNL     1       1.523  -8.238   0.089  0.00  0.00    +0.044 A 
ATOM     22  C   UNL     1       2.682  -8.943  -0.184  0.00  0.00    +0.040 A 
ATOM     23  C   UNL     1       3.804  -8.280  -0.648  0.00  0.00    +0.044 A 
ATOM     24  C   UNL     1       3.769  -6.912  -0.845  0.00  0.00    +0.044 A 
ATOM     25 CL   UNL     1       5.257  -9.168  -0.989  0.00  0.00    -0.083 Cl
ATOM     26 CL   UNL     1       0.117  -9.072   0.671  0.00  0.00    -0.083 Cl
ENDBRANCH  16  19
BRANCH   1  27
ATOM     27  C   UNL     1       0.795  -0.438  -1.313  0.00  0.00    +0.161 C 
ATOM     28  O   UNL     1       1.515   0.384  -1.827  0.00  0.00    -0.295 OA
BRANCH  27  30
ATOM     29  C   UNL     1      -0.207   1.512  -0.155  0.00  0.00    +0.018 C 
ATOM     30  C   UNL     1      -0.218  -0.013  -0.282  0.00  0.00    +0.023 C 
ATOM     31  C   UNL     1       0.135  -0.639   1.069  0.00  0.00    +0.018 C 
ATOM     32  C   UNL     1      -1.610  -0.479  -0.712  0.00  0.00    +0.018 C 
ENDBRANCH  27  30
ENDBRANCH   1  27
TORSDOF 3
