REMARK  Name = ZINC20662376
REMARK  6 active torsions:
REMARK  status: ('A' for Active; 'I' for Inactive)
REMARK    1  A    between atoms: C_1  and  C_2
REMARK    2  A    between atoms: C_6  and  N_9
REMARK    3  A    between atoms: C_7  and  C_8
REMARK    4  A    between atoms: C_10  and  N_19
REMARK    5  A    between atoms: C_20  and  C_22
REMARK    6  A    between atoms: C_23  and  C_24
REMARK                            x       y       z     vdW  Elec       q    Type
REMARK                         _______ _______ _______ _____ _____    ______ ____
ROOT
ATOM      1  N   UNL     1       2.963  -2.996   2.264  0.00  0.00    -0.217 N 
ATOM      2  C   UNL     1       1.756  -3.361   1.765  0.00  0.00    +0.134 A 
ATOM      3  C   UNL     1       1.708  -4.736   1.755  0.00  0.00    +0.038 A 
ATOM      4  C   UNL     1       2.908  -5.206   2.263  0.00  0.00    +0.091 A 
ATOM      5  N   UNL     1       3.665  -4.163   2.573  0.00  0.00    -0.168 NA
ATOM      6  C   UNL     1       3.073  -6.722   2.344  0.00  0.00    +0.223 C 
ATOM      7  S   UNL     1       1.339  -7.301   2.143  0.00  0.00    -0.021 S 
ATOM      8  O   UNL     1       0.739  -7.448   3.423  0.00  0.00    -0.174 OA
ATOM      9  O   UNL     1       1.305  -8.382   1.220  0.00  0.00    -0.174 OA
ATOM     10  C   UNL     1       0.682  -5.786   1.332  0.00  0.00    +0.206 C 
ENDROOT
BRANCH   1  16
ATOM     11  C   UNL     1       5.241   0.353   5.054  0.00  0.00    +0.044 C 
ATOM     12  C   UNL     1       4.530  -0.034   3.783  0.00  0.00    -0.046 A 
ATOM     13  C   UNL     1       4.331   0.906   2.788  0.00  0.00    +0.004 A 
ATOM     14  C   UNL     1       3.679   0.555   1.621  0.00  0.00    +0.002 A 
ATOM     15  C   UNL     1       3.229  -0.739   1.442  0.00  0.00    +0.028 A 
ATOM     16  C   UNL     1       3.423  -1.684   2.440  0.00  0.00    +0.071 A 
ATOM     17  C   UNL     1       4.078  -1.328   3.612  0.00  0.00    -0.022 A 
ATOM     18  C   UNL     1       4.295  -2.352   4.696  0.00  0.00    +0.046 C 
ENDBRANCH   1  16
BRANCH   2  19
ATOM     19  N   UNL     1       0.749  -2.499   1.335  0.00  0.00    -0.266 N 
ATOM     20  C   UNL     1      -0.118  -2.898   0.383  0.00  0.00    +0.242 C 
ATOM     21  O   UNL     1       0.048  -3.962  -0.184  0.00  0.00    -0.270 OA
ATOM     22  H   UNL     1       0.662  -1.493   1.771  0.00  0.00    +0.157 HD
BRANCH  20  23
ATOM     23  C   UNL     1      -1.257  -2.052   0.032  0.00  0.00    +0.068 C 
ATOM     24  C   UNL     1      -2.043  -2.378  -1.017  0.00  0.00    +0.013 C 
BRANCH  24  25
ATOM     25  C   UNL     1      -1.587  -3.379  -1.993  0.00  0.00    -0.021 A 
ATOM     26  C   UNL     1      -2.482  -4.334  -2.490  0.00  0.00    +0.012 A 
ATOM     27  C   UNL     1      -2.052  -5.269  -3.404  0.00  0.00    +0.050 A 
ATOM     28  C   UNL     1      -0.732  -5.270  -3.836  0.00  0.00    +0.166 A 
ATOM     29  C   UNL     1       0.166  -4.321  -3.345  0.00  0.00    +0.167 A 
ATOM     30  C   UNL     1      -0.258  -3.376  -2.433  0.00  0.00    +0.057 A 
ATOM     31  O   UNL     1       1.385  -4.536  -3.922  0.00  0.00    -0.453 OA
ATOM     32  C   UNL     1       1.125  -5.362  -5.072  0.00  0.00    +0.466 C 
ATOM     33  O   UNL     1      -0.073  -6.077  -4.718  0.00  0.00    -0.453 OA
ENDBRANCH  24  25
ENDBRANCH  20  23
ENDBRANCH   2  19
TORSDOF 4
