REMARK  Name = ZINC25228572
REMARK  6 active torsions:
REMARK  status: ('A' for Active; 'I' for Inactive)
REMARK    1  A    between atoms: C_6  and  N_7
REMARK    2  A    between atoms: N_7  and  S_8
REMARK    3  A    between atoms: S_8  and  C_11
REMARK    4  A    between atoms: C_13  and  N_18
REMARK    5  A    between atoms: C_19  and  C_21
REMARK    6  A    between atoms: C_22  and  C_23
REMARK                            x       y       z     vdW  Elec       q    Type
REMARK                         _______ _______ _______ _____ _____    ______ ____
ROOT
ATOM      1  C   UNL     1      -5.071  -6.791  -0.002  0.00  0.00    +0.130 A 
ATOM      2  C   UNL     1      -3.872  -6.129   0.175  0.00  0.00    +0.053 A 
ATOM      3  C   UNL     1      -3.856  -4.745   0.295  0.00  0.00    +0.036 A 
ATOM      4  C   UNL     1      -5.046  -4.032   0.241  0.00  0.00    +0.025 A 
ATOM      5  C   UNL     1      -6.241  -4.699   0.058  0.00  0.00    +0.024 A 
ATOM      6  C   UNL     1      -6.255  -6.078  -0.061  0.00  0.00    +0.068 A 
ATOM      7 CL   UNL     1      -7.760  -6.914  -0.285  0.00  0.00    -0.082 Cl
ENDROOT
BRANCH   3   8
ATOM      8  N   UNL     1      -2.643  -4.072   0.475  0.00  0.00    -0.282 N 
ATOM      9  C   UNL     1      -1.527  -4.522  -0.131  0.00  0.00    +0.241 C 
ATOM     10  O   UNL     1      -1.553  -5.561  -0.761  0.00  0.00    -0.270 OA
ATOM     11  H   UNL     1      -2.601  -3.175   1.111  0.00  0.00    +0.155 HD
BRANCH   9  12
ATOM     12  C   UNL     1      -0.271  -3.752  -0.029  0.00  0.00    +0.075 C 
ATOM     13  C   UNL     1       0.842  -4.200  -0.632  0.00  0.00    +0.101 C 
BRANCH  13  14
ATOM     14  C   UNL     1       2.097  -3.432  -0.530  0.00  0.00    +0.380 C 
ATOM     15  O   UNL     1       2.123  -2.394   0.099  0.00  0.00    -0.241 OA
ATOM     16  O   UNL     1       3.213  -3.881  -1.136  0.00  0.00    -0.241 OA
ENDBRANCH  13  14
ENDBRANCH   9  12
ENDBRANCH   3   8
BRANCH   1  17
ATOM     17  S   UNL     1      -5.092  -8.546  -0.155  0.00  0.00    +0.093 S 
ATOM     18  O   UNL     1      -5.874  -8.845  -1.303  0.00  0.00    -0.148 OA
ATOM     19  O   UNL     1      -3.747  -8.983  -0.014  0.00  0.00    -0.148 OA
BRANCH  17  20
ATOM     20  N   UNL     1      -5.921  -9.141   1.150  0.00  0.00    -0.098 NA
BRANCH  20  26
ATOM     21  C   UNL     1      -4.072  -9.226   2.698  0.00  0.00    +0.028 A 
ATOM     22  C   UNL     1      -3.569  -9.049   3.973  0.00  0.00    +0.022 A 
ATOM     23  C   UNL     1      -4.402  -8.626   4.994  0.00  0.00    +0.041 A 
ATOM     24  C   UNL     1      -5.739  -8.374   4.740  0.00  0.00    +0.022 A 
ATOM     25  C   UNL     1      -6.245  -8.544   3.466  0.00  0.00    +0.028 A 
ATOM     26  C   UNL     1      -5.412  -8.968   2.439  0.00  0.00    +0.074 A 
ATOM     27 CL   UNL     1      -3.769  -8.412   6.596  0.00  0.00    -0.084 Cl
ENDBRANCH  20  26
ENDBRANCH  17  20
ENDBRANCH   1  17
TORSDOF 6
