REMARK  Name = ZINC43254355
REMARK  4 active torsions:
REMARK  status: ('A' for Active; 'I' for Inactive)
REMARK    1  A    between atoms: C_1  and  N_2
REMARK    2  A    between atoms: C_3  and  C_16
REMARK    3  A    between atoms: N_12  and  C_15
REMARK    4  A    between atoms: C_19  and  O_23
REMARK                            x       y       z     vdW  Elec       q    Type
REMARK                         _______ _______ _______ _____ _____    ______ ____
ROOT
ATOM      1  C   UNL     1      -0.058   1.413   0.738  0.00  0.00    +0.138 C 
ATOM      2  N   UNL     1      -0.009  -0.023   0.432  0.00  0.00    -0.182 NA
ATOM      3  C   UNL     1      -1.379  -0.560   0.158  0.00  0.00    +0.129 C 
ATOM      4  C   UNL     1      -1.617  -1.533   1.304  0.00  0.00    +0.139 C 
ATOM      5  C   UNL     1      -0.124  -1.991   1.519  0.00  0.00    +0.241 C 
ATOM      6  O   UNL     1       0.548  -0.798   1.585  0.00  0.00    -0.283 OA
ATOM      7  C   UNL     1      -0.309  -3.206   2.291  0.00  0.00    +0.253 C 
ATOM      8  O   UNL     1       0.414  -3.643   3.160  0.00  0.00    -0.272 OA
ATOM      9  N   UNL     1      -1.477  -3.754   1.828  0.00  0.00    -0.243 N 
ATOM     10  C   UNL     1      -2.212  -2.883   1.056  0.00  0.00    +0.230 C 
ATOM     11  O   UNL     1      -3.142  -3.147   0.325  0.00  0.00    -0.275 OA
ATOM     12  C   UNL     1      -1.907  -5.122   2.130  0.00  0.00    +0.141 C 
ENDROOT
BRANCH   3  13
ATOM     13  C   UNL     1      -2.398   0.550   0.180  0.00  0.00    -0.025 A 
ATOM     14  C   UNL     1      -3.050   0.911  -0.985  0.00  0.00    +0.024 A 
ATOM     15  C   UNL     1      -3.985   1.929  -0.968  0.00  0.00    +0.061 A 
ATOM     16  C   UNL     1      -4.270   2.588   0.220  0.00  0.00    +0.145 A 
ATOM     17  C   UNL     1      -3.614   2.223   1.387  0.00  0.00    +0.061 A 
ATOM     18  C   UNL     1      -2.684   1.201   1.365  0.00  0.00    +0.024 A 
ATOM     19 BR   UNL     1      -3.999   3.119   3.008  0.00  0.00    -0.046 Br
ATOM     20 BR   UNL     1      -4.875   2.423  -2.562  0.00  0.00    -0.046 Br
BRANCH  16  21
ATOM     21  O   UNL     1      -5.188   3.590   0.239  0.00  0.00    -0.505 OA
ATOM     22  H   UNL     1      -6.091   3.292   0.418  0.00  0.00    +0.292 HD
ENDBRANCH  16  21
ENDBRANCH   3  13
TORSDOF 2
