REMARK  Name = ZINC13720770
REMARK  3 active torsions:
REMARK  status: ('A' for Active; 'I' for Inactive)
REMARK    1  A    between atoms: C_3  and  C_9
REMARK    2  A    between atoms: C_9  and  N_10
REMARK    3  A    between atoms: C_22  and  C_27
REMARK                            x       y       z     vdW  Elec       q    Type
REMARK                         _______ _______ _______ _____ _____    ______ ____
ROOT
ATOM      1  N   UNL     1       2.722   1.160  -1.350  0.00  0.00    -0.281 N 
ATOM      2  C   UNL     1       3.479   1.871  -2.242  0.00  0.00    +0.096 A 
ATOM      3  C   UNL     1       3.737   1.398  -3.526  0.00  0.00    +0.054 A 
ATOM      4  C   UNL     1       4.559   2.259  -4.375  0.00  0.00    -0.024 A 
ATOM      5  C   UNL     1       4.986   3.421  -3.837  0.00  0.00    -0.004 A 
ATOM      6  S   UNL     1       4.325   3.430  -2.193  0.00  0.00    -0.075 S 
ATOM      7  C   UNL     1       5.833   4.469  -4.492  0.00  0.00    +0.043 C 
ATOM      8  C   UNL     1       6.462   3.863  -5.755  0.00  0.00    +0.005 C 
ATOM      9  C   UNL     1       5.370   3.143  -6.551  0.00  0.00    +0.005 C 
ATOM     10  C   UNL     1       4.929   1.881  -5.807  0.00  0.00    +0.037 C 
ATOM     11  C   UNL     1       3.136   0.081  -3.849  0.00  0.00    +0.172 A 
ATOM     12  N   UNL     1       3.159  -0.665  -4.931  0.00  0.00    -0.206 NA
ATOM     13  C   UNL     1       2.451  -1.782  -4.720  0.00  0.00    +0.183 A 
ATOM     14  N   UNL     1       1.965  -1.764  -3.497  0.00  0.00    -0.141 NA
ATOM     15  N   UNL     1       2.392  -0.565  -2.904  0.00  0.00    -0.161 N 
ATOM     16  C   UNL     1       2.198  -0.035  -1.685  0.00  0.00    +0.353 A 
ATOM     17  O   UNL     1       1.534  -0.645  -0.869  0.00  0.00    -0.244 OA
ENDROOT
BRANCH  13  18
ATOM     18  C   UNL     1       2.247  -2.870  -5.708  0.00  0.00    +0.024 A 
ATOM     19  C   UNL     1       2.804  -2.791  -6.987  0.00  0.00    +0.031 A 
ATOM     20  C   UNL     1       2.593  -3.827  -7.874  0.00  0.00    +0.111 A 
ATOM     21  N   UNL     1       1.870  -4.876  -7.531  0.00  0.00    -0.263 NA
ATOM     22  C   UNL     1       1.323  -4.987  -6.336  0.00  0.00    +0.111 A 
ATOM     23  C   UNL     1       1.488  -3.998  -5.387  0.00  0.00    +0.031 A 
ENDBRANCH  13  18
BRANCH   1  24
ATOM     24  C   UNL     1       2.482   1.704  -0.011  0.00  0.00    +0.164 C 
BRANCH  24  27
ATOM     25  C   UNL     1      -0.719   3.336  -1.170  0.00  0.00    +0.020 A 
ATOM     26  C   UNL     1       0.479   2.646  -1.179  0.00  0.00    +0.008 A 
ATOM     27  C   UNL     1       1.177   2.457  -0.001  0.00  0.00    -0.009 A 
ATOM     28  C   UNL     1       0.677   2.960   1.188  0.00  0.00    +0.047 A 
ATOM     29  C   UNL     1      -0.523   3.646   1.198  0.00  0.00    +0.040 A 
ATOM     30  C   UNL     1      -1.219   3.839   0.017  0.00  0.00    +0.042 A 
ATOM     31 CL   UNL     1      -2.723   4.706   0.028  0.00  0.00    -0.083 Cl
ATOM     32 CL   UNL     1       1.554   2.722   2.667  0.00  0.00    -0.083 Cl
ENDBRANCH  24  27
ENDBRANCH   1  24
TORSDOF 3
