REMARK  Name = ZINC55580935
REMARK  8 active torsions:
REMARK  status: ('A' for Active; 'I' for Inactive)
REMARK    1  A    between atoms: C_1  and  C_2
REMARK    2  A    between atoms: C_4  and  S_10
REMARK    3  A    between atoms: C_6  and  C_7
REMARK    4  A    between atoms: S_10  and  N_13
REMARK    5  A    between atoms: N_13  and  C_14
REMARK    6  A    between atoms: C_17  and  N_20
REMARK    7  A    between atoms: N_23  and  C_24
REMARK    8  A    between atoms: C_24  and  C_25
REMARK                            x       y       z     vdW  Elec       q    Type
REMARK                         _______ _______ _______ _____ _____    ______ ____
ROOT
ATOM      1  C   UNL     1       1.926  -4.427  -3.844  0.00  0.00    +0.074 A 
ATOM      2  C   UNL     1       0.928  -5.182  -4.446  0.00  0.00    +0.028 A 
ATOM      3  C   UNL     1       1.243  -6.049  -5.473  0.00  0.00    +0.025 A 
ATOM      4  C   UNL     1       2.558  -6.166  -5.904  0.00  0.00    +0.035 A 
ATOM      5  C   UNL     1       3.556  -5.411  -5.303  0.00  0.00    +0.025 A 
ATOM      6  C   UNL     1       3.240  -4.540  -4.279  0.00  0.00    +0.028 A 
ENDROOT
BRANCH   4   7
ATOM      7  N   UNL     1       2.878  -7.047  -6.947  0.00  0.00    -0.269 N 
ATOM      8  C   UNL     1       1.995  -7.261  -7.943  0.00  0.00    +0.304 C 
ATOM      9  O   UNL     1       0.964  -6.620  -7.989  0.00  0.00    -0.253 OA
ATOM     10  N   UNL     1       2.256  -8.187  -8.887  0.00  0.00    -0.296 N 
ATOM     11  H   UNL     1       3.734  -7.503  -6.951  0.00  0.00    +0.156 HD
ATOM     12  H   UNL     1       3.079  -8.699  -8.850  0.00  0.00    +0.151 HD
BRANCH  10  13
ATOM     13  C   UNL     1       1.297  -8.420  -9.970  0.00  0.00    +0.132 C 
BRANCH  13  14
ATOM     14  C   UNL     1       1.823  -9.496 -10.884  0.00  0.00    -0.016 C 
ATOM     15  C   UNL     1       1.095 -10.555 -11.136  0.00  0.00    +0.005 C 
ENDBRANCH  13  14
ENDBRANCH  10  13
ENDBRANCH   4   7
BRANCH   1  16
ATOM     16  N   UNL     1       1.607  -3.548  -2.803  0.00  0.00    -0.097 NA
BRANCH  16  17
ATOM     17  S   UNL     1       0.040  -3.413  -2.284  0.00  0.00    +0.098 S 
ATOM     18  O   UNL     1      -0.304  -4.663  -1.703  0.00  0.00    -0.148 OA
ATOM     19  O   UNL     1      -0.696  -2.844  -3.359  0.00  0.00    -0.148 OA
BRANCH  17  23
ATOM     20  C   UNL     1      -0.322   1.367   0.043  0.00  0.00    +0.045 C 
ATOM     21  C   UNL     1      -0.134  -0.128   0.069  0.00  0.00    -0.027 A 
ATOM     22  C   UNL     1      -0.153  -0.886  -1.075  0.00  0.00    +0.041 A 
ATOM     23  C   UNL     1       0.023  -2.229  -0.980  0.00  0.00    +0.149 A 
ATOM     24  S   UNL     1       0.222  -2.504   0.666  0.00  0.00    -0.061 S 
ATOM     25  C   UNL     1       0.077  -0.826   1.252  0.00  0.00    +0.105 A 
BRANCH  25  26
ATOM     26  C   UNL     1       0.155  -0.333   2.579  0.00  0.00    +0.393 C 
ATOM     27  O   UNL     1       0.028   0.866   2.795  0.00  0.00    -0.240 OA
ATOM     28  O   UNL     1       0.349  -1.106   3.509  0.00  0.00    -0.240 OA
ENDBRANCH  25  26
ENDBRANCH  17  23
ENDBRANCH  16  17
ENDBRANCH   1  16
TORSDOF 7
