REMARK  Name = ZINC43154699
REMARK  3 active torsions:
REMARK  status: ('A' for Active; 'I' for Inactive)
REMARK    1  A    between atoms: C_4  and  N_8
REMARK    2  A    between atoms: N_11  and  C_12
REMARK    3  A    between atoms: C_18  and  C_20
REMARK                            x       y       z     vdW  Elec       q    Type
REMARK                         _______ _______ _______ _____ _____    ______ ____
ROOT
ATOM      1  N   UNL     1       3.801  -0.571  -0.029  0.00  0.00    -0.268 N 
ATOM      2  C   UNL     1       3.783  -1.915   0.077  0.00  0.00    +0.304 C 
ATOM      3  O   UNL     1       2.722  -2.507   0.114  0.00  0.00    -0.253 OA
ATOM      4  N   UNL     1       4.941  -2.601   0.143  0.00  0.00    -0.296 N 
ATOM      5  H   UNL     1       4.646  -0.103  -0.120  0.00  0.00    +0.156 HD
ATOM      6  H   UNL     1       5.787  -2.128   0.113  0.00  0.00    +0.151 HD
ENDROOT
BRANCH   1  10
ATOM      7  C   UNL     1       0.228   1.575   0.036  0.00  0.00    +0.021 A 
ATOM      8  C   UNL     1       1.368   2.117   0.600  0.00  0.00    +0.023 A 
ATOM      9  C   UNL     1       2.554   1.408   0.580  0.00  0.00    +0.062 A 
ATOM     10  C   UNL     1       2.600   0.149  -0.007  0.00  0.00    +0.055 A 
ATOM     11  C   UNL     1       1.454  -0.393  -0.572  0.00  0.00    +0.044 A 
ATOM     12  C   UNL     1       0.270   0.321  -0.549  0.00  0.00    +0.043 A 
ATOM     13 CL   UNL     1      -1.164  -0.355  -1.255  0.00  0.00    -0.083 Cl
ATOM     14 CL   UNL     1       3.986   2.090   1.287  0.00  0.00    -0.082 Cl
ENDBRANCH   1  10
BRANCH   4  15
ATOM     15  C   UNL     1       4.921  -4.061   0.258  0.00  0.00    +0.077 C 
ATOM     16  C   UNL     1       4.773  -4.455   1.729  0.00  0.00    +0.041 C 
ATOM     17  C   UNL     1       4.718  -5.981   1.842  0.00  0.00    +0.110 C 
ATOM     18  N   UNL     1       5.902  -6.548   1.183  0.00  0.00    -0.297 N 
ATOM     19  C   UNL     1       6.189  -6.163  -0.206  0.00  0.00    +0.110 C 
ATOM     20  C   UNL     1       6.228  -4.634  -0.296  0.00  0.00    +0.041 C 
ATOM     21  C   UNL     1       6.711  -7.403   1.839  0.00  0.00    +0.250 C 
ATOM     22  O   UNL     1       7.749  -7.774   1.326  0.00  0.00    -0.270 OA
BRANCH  21  23
ATOM     23  C   UNL     1       6.337  -7.889   3.180  0.00  0.00    +0.074 A 
ATOM     24  C   UNL     1       4.981  -8.018   3.732  0.00  0.00    +0.054 A 
ATOM     25  C   UNL     1       5.133  -8.499   4.975  0.00  0.00    +0.195 A 
ATOM     26  O   UNL     1       6.441  -8.670   5.224  0.00  0.00    -0.470 OA
ATOM     27  C   UNL     1       7.177  -8.317   4.165  0.00  0.00    +0.207 A 
ENDBRANCH  21  23
ENDBRANCH   4  15
TORSDOF 3
