REMARK  Name = ZINC43667518
REMARK  5 active torsions:
REMARK  status: ('A' for Active; 'I' for Inactive)
REMARK    1  A    between atoms: C_1  and  C_2
REMARK    2  A    between atoms: C_4  and  N_20
REMARK    3  A    between atoms: N_5  and  C_7
REMARK    4  A    between atoms: C_7  and  C_9
REMARK    5  A    between atoms: C_7  and  C_10
REMARK                            x       y       z     vdW  Elec       q    Type
REMARK                         _______ _______ _______ _____ _____    ______ ____
ROOT
ATOM      1  C   UNL     1       0.053  -3.291   1.500  0.00  0.00    +0.172 C 
ATOM      2  C   UNL     1       1.306  -3.259   2.378  0.00  0.00    +0.041 C 
ENDROOT
BRANCH   1   3
ATOM      3  C   UNL     1      -1.173  -3.293   2.376  0.00  0.00    +0.130 A 
ATOM      4  C   UNL     1      -2.101  -4.259   2.394  0.00  0.00    +0.055 A 
ATOM      5  C   UNL     1      -3.102  -3.847   3.386  0.00  0.00    +0.022 A 
ATOM      6  C   UNL     1      -4.288  -4.403   3.863  0.00  0.00    +0.027 A 
ATOM      7  C   UNL     1      -5.013  -3.737   4.826  0.00  0.00    +0.019 A 
ATOM      8  C   UNL     1      -4.567  -2.518   5.319  0.00  0.00    +0.019 A 
ATOM      9  C   UNL     1      -3.396  -1.958   4.856  0.00  0.00    +0.048 A 
ATOM     10  C   UNL     1      -2.650  -2.614   3.885  0.00  0.00    +0.135 A 
ATOM     11  O   UNL     1      -1.492  -2.327   3.256  0.00  0.00    -0.458 OA
ATOM     12 BR   UNL     1      -6.623  -4.485   5.479  0.00  0.00    -0.050 Br
ENDBRANCH   1   3
BRANCH   1  17
ATOM     13  C   UNL     1      -0.018   1.503   0.010  0.00  0.00    +0.069 C 
ATOM     14  C   UNL     1       0.002  -0.004   0.002  0.00  0.00    +0.080 A 
ATOM     15  C   UNL     1       0.008  -0.815  -1.136  0.00  0.00    +0.103 A 
ATOM     16  C   UNL     1       0.027  -2.113  -0.724  0.00  0.00    +0.134 A 
ATOM     17  N   UNL     1       0.034  -2.109   0.634  0.00  0.00    -0.239 N 
ATOM     18  N   UNL     1       0.023  -0.775   1.059  0.00  0.00    -0.173 NA
ATOM     19 CL   UNL     1      -0.008  -0.266  -2.783  0.00  0.00    -0.078 Cl
BRANCH  16  20
ATOM     20  N   UNL     1       0.039  -3.238  -1.545  0.00  0.00    -0.342 N 
ATOM     21  H   UNL     1       0.033  -3.135  -2.510  0.00  0.00    +0.144 HD
ATOM     22  H   UNL     1       0.052  -4.125  -1.153  0.00  0.00    +0.144 HD
ENDBRANCH  16  20
ENDBRANCH   1  17
TORSDOF 3
