REMARK  Name = ZINC36249118
REMARK  20 active torsions:
REMARK  status: ('A' for Active; 'I' for Inactive)
REMARK    1  A    between atoms: C_1  and  C_2
REMARK    2  A    between atoms: C_2  and  C_3
REMARK    3  A    between atoms: C_3  and  N_4
REMARK    4  A    between atoms: N_4  and  C_5
REMARK    5  A    between atoms: N_4  and  C_23
REMARK    6  A    between atoms: C_5  and  C_6
REMARK    7  A    between atoms: C_7  and  C_16
REMARK    8  A    between atoms: C_10  and  N_11
REMARK    9  A    between atoms: N_11  and  C_12
REMARK   10  A    between atoms: N_11  and  C_14
REMARK   11  A    between atoms: C_12  and  C_13
REMARK   12  A    between atoms: C_14  and  C_15
REMARK   13  A    between atoms: C_23  and  C_24
REMARK   14  A    between atoms: C_24  and  C_26
REMARK   15  A    between atoms: C_24  and  O_32
REMARK   16  A    between atoms: C_26  and  O_27
REMARK   17  A    between atoms: O_27  and  C_28
REMARK   18  A    between atoms: C_28  and  C_29
REMARK   19  A    between atoms: C_29  and  C_30
REMARK   20  A    between atoms: C_29  and  C_31
REMARK                            x       y       z     vdW  Elec       q    Type
REMARK                         _______ _______ _______ _____ _____    ______ ____
ROOT
ATOM      1  C   UNL     1      -3.012  -3.088  -2.404  0.00  0.00    +0.025 A 
ATOM      2  C   UNL     1      -4.119  -2.218  -2.313  0.00  0.00    +0.117 A 
ATOM      3  N   UNL     1      -4.468  -1.878  -3.532  0.00  0.00    -0.076 NA
ATOM      4  O   UNL     1      -3.590  -2.525  -4.435  0.00  0.00    -0.339 OA
ATOM      5  C   UNL     1      -2.714  -3.249  -3.717  0.00  0.00    +0.222 A 
ENDROOT
BRANCH   2   6
ATOM      6  C   UNL     1      -4.774  -1.767  -1.059  0.00  0.00    +0.004 A 
ATOM      7  C   UNL     1      -4.972  -2.664  -0.012  0.00  0.00    +0.013 A 
ATOM      8  C   UNL     1      -5.581  -2.241   1.151  0.00  0.00    +0.039 A 
ATOM      9  C   UNL     1      -5.995  -0.925   1.279  0.00  0.00    +0.123 A 
ATOM     10  C   UNL     1      -5.801  -0.029   0.240  0.00  0.00    +0.039 A 
ATOM     11  C   UNL     1      -5.187  -0.443  -0.924  0.00  0.00    +0.013 A 
ATOM     12  F   UNL     1      -6.592  -0.514   2.420  0.00  0.00    -0.205 F 
ENDBRANCH   2   6
BRANCH   1  13
ATOM     13  C   UNL     1      -2.286  -3.722  -1.246  0.00  0.00    -0.035 C 
BRANCH  13  14
ATOM     14  N   UNL     1      -1.168  -2.861  -0.838  0.00  0.00    +0.384 N 
ATOM     15  H   UNL     1      -0.575  -2.680  -1.634  0.00  0.00    -0.081 HD
BRANCH  14  16
ATOM     16  C   UNL     1      -1.693  -1.591  -0.319  0.00  0.00    -0.079 C 
BRANCH  16  18
ATOM     17  C   UNL     1      -1.081   0.730   0.376  0.00  0.00    +0.002 C 
ATOM     18  C   UNL     1      -0.530  -0.637  -0.036  0.00  0.00    -0.022 C 
ENDBRANCH  16  18
ENDBRANCH  14  16
BRANCH  14  19
ATOM     19  C   UNL     1      -0.389  -3.533   0.210  0.00  0.00    -0.044 C 
BRANCH  19  20
ATOM     20  C   UNL     1       0.294  -4.771  -0.377  0.00  0.00    +0.124 C 
BRANCH  20  21
ATOM     21  O   UNL     1       1.270  -4.365  -1.339  0.00  0.00    -0.391 OA
ATOM     22  H   UNL     1       2.006  -3.862  -0.965  0.00  0.00    +0.210 HD
ENDBRANCH  20  21
BRANCH  20  23
ATOM     23  C   UNL     1       0.979  -5.555   0.744  0.00  0.00    +0.189 C 
BRANCH  23  24
ATOM     24  O   UNL     1       1.516  -6.769   0.216  0.00  0.00    -0.377 OA
BRANCH  24  25
ATOM     25  C   UNL     1       2.181  -7.581   1.186  0.00  0.00    +0.163 C 
BRANCH  25  26
ATOM     26  C   UNL     1       2.714  -8.847   0.513  0.00  0.00    +0.009 C 
ATOM     27  C   UNL     1       3.532  -9.656   1.522  0.00  0.00    +0.009 C 
ATOM     28  C   UNL     1       1.540  -9.692   0.014  0.00  0.00    +0.009 C 
ENDBRANCH  25  26
ENDBRANCH  24  25
ENDBRANCH  23  24
ENDBRANCH  20  23
ENDBRANCH  19  20
ENDBRANCH  14  19
ENDBRANCH  13  14
ENDBRANCH   1  13
BRANCH   5  29
ATOM     29  N   UNL     1      -1.689  -4.024  -4.229  0.00  0.00    -0.300 N 
BRANCH  29  30
ATOM     30  C   UNL     1      -0.829  -4.790  -3.324  0.00  0.00    +0.104 C 
ATOM     31  C   UNL     1      -1.466  -6.153  -3.046  0.00  0.00    +0.024 C 
ENDBRANCH  29  30
BRANCH  29  32
ATOM     32  C   UNL     1      -1.464  -4.079  -5.676  0.00  0.00    +0.104 C 
ATOM     33  C   UNL     1      -0.397  -3.053  -6.064  0.00  0.00    +0.024 C 
ENDBRANCH  29  32
ENDBRANCH   5  29
TORSDOF 15
