REMARK  Name = ZINC01092647
REMARK  7 active torsions:
REMARK  status: ('A' for Active; 'I' for Inactive)
REMARK    1  A    between atoms: C_1  and  O_2
REMARK    2  A    between atoms: O_2  and  C_3
REMARK    3  A    between atoms: C_6  and  C_10
REMARK    4  A    between atoms: N_11  and  N_12
REMARK    5  A    between atoms: C_13  and  C_15
REMARK    6  A    between atoms: C_15  and  N_16
REMARK    7  A    between atoms: N_16  and  C_17
REMARK                            x       y       z     vdW  Elec       q    Type
REMARK                         _______ _______ _______ _____ _____    ______ ____
ROOT
ATOM      1  N   UNL     1       2.274   5.622   0.010  0.00  0.00    -0.206 N 
ATOM      2  C   UNL     1       3.434   6.308   0.002  0.00  0.00    +0.249 C 
ATOM      3  O   UNL     1       4.491   5.712  -0.011  0.00  0.00    -0.272 OA
ATOM      4  H   UNL     1       1.429   6.099   0.020  0.00  0.00    +0.177 HD
ENDROOT
BRANCH   1   6
ATOM      5  C   UNL     1       1.171   3.562   0.009  0.00  0.00    +0.138 C 
ATOM      6  N   UNL     1       2.288   4.222   0.002  0.00  0.00    -0.188 NA
BRANCH   5  10
ATOM      7  C   UNL     1       1.214  -0.684  -0.014  0.00  0.00    +0.134 A 
ATOM      8  C   UNL     1       2.410   0.021  -0.021  0.00  0.00    +0.047 A 
ATOM      9  C   UNL     1       2.401   1.399  -0.014  0.00  0.00    +0.013 A 
ATOM     10  C   UNL     1       1.185   2.087   0.002  0.00  0.00    -0.004 A 
ATOM     11  C   UNL     1      -0.017   1.375   0.010  0.00  0.00    +0.028 A 
ATOM     12  C   UNL     1       0.002  -0.004   0.002  0.00  0.00    +0.060 A 
ATOM     13 BR   UNL     1      -1.623  -0.971   0.012  0.00  0.00    -0.046 Br
BRANCH   7  15
ATOM     14  C   UNL     1       2.508  -2.678  -0.038  0.00  0.00    +0.277 C 
ATOM     15  O   UNL     1       1.228  -2.043  -0.022  0.00  0.00    -0.494 OA
ENDBRANCH   7  15
ENDBRANCH   5  10
ENDBRANCH   1   6
BRANCH   2  16
ATOM     16  C   UNL     1       3.420   7.815   0.010  0.00  0.00    +0.199 C 
BRANCH  16  17
ATOM     17  N   UNL     1       4.796   8.317  -0.000  0.00  0.00    -0.335 N 
ATOM     18  H   UNL     1       5.539   7.694  -0.011  0.00  0.00    +0.147 HD
BRANCH  17  19
ATOM     19  C   UNL     1       5.037   9.692   0.004  0.00  0.00    +0.028 A 
ATOM     20  C   UNL     1       3.959  10.585   0.013  0.00  0.00    +0.023 A 
ATOM     21  C   UNL     1       4.164  11.928   0.024  0.00  0.00    +0.010 A 
ATOM     22  C   UNL     1       5.475  12.437   0.014  0.00  0.00    -0.018 A 
ATOM     23  C   UNL     1       5.718  13.821   0.018  0.00  0.00    +0.008 A 
ATOM     24  C   UNL     1       6.998  14.281   0.008  0.00  0.00    +0.001 A 
ATOM     25  C   UNL     1       8.078  13.400  -0.006  0.00  0.00    +0.001 A 
ATOM     26  C   UNL     1       7.882  12.053  -0.011  0.00  0.00    +0.008 A 
ATOM     27  C   UNL     1       6.573  11.540  -0.001  0.00  0.00    -0.016 A 
ATOM     28  C   UNL     1       6.334  10.156  -0.005  0.00  0.00    +0.031 A 
ENDBRANCH  17  19
ENDBRANCH  16  17
ENDBRANCH   2  16
TORSDOF 6
