REMARK  Name = ZINC61861607
REMARK  3 active torsions:
REMARK  status: ('A' for Active; 'I' for Inactive)
REMARK    1  A    between atoms: C_3  and  C_8
REMARK    2  A    between atoms: C_8  and  C_10
REMARK    3  A    between atoms: C_8  and  N_16
REMARK                            x       y       z     vdW  Elec       q    Type
REMARK                         _______ _______ _______ _____ _____    ______ ____
ROOT
ATOM      1  C   UNL     1       3.691   2.059  -0.023  0.00  0.00    +0.137 C 
ENDROOT
BRANCH   1   4
ATOM      2  C   UNL     1      -0.017   1.383   0.010  0.00  0.00    +0.018 A 
ATOM      3  C   UNL     1       1.194   2.059   0.002  0.00  0.00    +0.026 A 
ATOM      4  C   UNL     1       2.370   1.334  -0.013  0.00  0.00    +0.063 A 
ATOM      5  N   UNL     1       2.351   0.016  -0.020  0.00  0.00    -0.257 NA
ATOM      6  C   UNL     1       1.219  -0.661  -0.013  0.00  0.00    +0.126 A 
ATOM      7  C   UNL     1       0.002  -0.004   0.002  0.00  0.00    +0.036 A 
ATOM      8 BR   UNL     1      -1.615  -0.984   0.013  0.00  0.00    -0.049 Br
ENDBRANCH   1   4
BRANCH   1   9
ATOM      9  C   UNL     1       4.535   1.581   1.131  0.00  0.00    +0.014 A 
ATOM     10  C   UNL     1       5.553   0.686   1.130  0.00  0.00    +0.014 A 
ATOM     11  C   UNL     1       6.192   0.396   2.321  0.00  0.00    +0.028 A 
ATOM     12  C   UNL     1       5.781   1.016   3.455  0.00  0.00    +0.078 A 
ATOM     13  S   UNL     1       4.458   2.051   2.851  0.00  0.00    -0.080 S 
ATOM     14 CL   UNL     1       6.388   0.851   5.073  0.00  0.00    -0.076 Cl
ENDBRANCH   1   9
BRANCH   1  15
ATOM     15  N   UNL     1       3.458   3.504   0.108  0.00  0.00    -0.318 NA
ATOM     16  H   UNL     1       2.949   3.861  -0.687  0.00  0.00    +0.119 HD
ATOM     17  H   UNL     1       2.978   3.716   0.970  0.00  0.00    +0.119 HD
ENDBRANCH   1  15
TORSDOF 3
