REMARK  Name = ZINC12000186
REMARK  4 active torsions:
REMARK  status: ('A' for Active; 'I' for Inactive)
REMARK    1  A    between atoms: C_1  and  O_2
REMARK    2  A    between atoms: O_2  and  C_3
REMARK    3  A    between atoms: C_6  and  N_10
REMARK    4  A    between atoms: C_23  and  N_55
REMARK                            x       y       z     vdW  Elec       q    Type
REMARK                         _______ _______ _______ _____ _____    ______ ____
ROOT
ATOM      1  N   UNL     1      -0.477   2.986   1.505  0.00  0.00    -0.270 N 
ATOM      2  C   UNL     1      -0.731   1.566   1.279  0.00  0.00    +0.090 C 
ATOM      3  C   UNL     1      -2.255   1.349   1.121  0.00  0.00    +0.187 C 
ATOM      4  S   UNL     1      -2.487   1.420  -0.702  0.00  0.00    -0.031 S 
ATOM      5  O   UNL     1      -2.962   0.161  -1.158  0.00  0.00    -0.174 OA
ATOM      6  O   UNL     1      -3.208   2.600  -1.030  0.00  0.00    -0.174 OA
ATOM      7  C   UNL     1      -0.730   1.625  -1.228  0.00  0.00    +0.152 C 
ATOM      8  C   UNL     1       0.004   1.076   0.027  0.00  0.00    -0.024 C 
ATOM      9  C   UNL     1       1.403   3.040  -0.128  0.00  0.00    +0.020 C 
ATOM     10  C   UNL     1       0.490   3.670   0.887  0.00  0.00    +0.203 C 
ATOM     11  O   UNL     1       0.637   4.844   1.155  0.00  0.00    -0.277 OA
ATOM     12  N   UNL     1       1.393   1.575   0.052  0.00  0.00    +0.391 N 
ATOM     13  H   UNL     1       1.812   1.347   0.961  0.00  0.00    -0.080 HD
ENDROOT
BRANCH   1  17
ATOM     14  C   UNL     1      -2.896   5.013   4.231  0.00  0.00    +0.138 A 
ATOM     15  C   UNL     1      -2.031   4.023   4.674  0.00  0.00    +0.049 A 
ATOM     16  C   UNL     1      -1.230   3.352   3.771  0.00  0.00    +0.027 A 
ATOM     17  C   UNL     1      -1.290   3.667   2.421  0.00  0.00    +0.038 A 
ATOM     18  C   UNL     1      -2.151   4.662   1.978  0.00  0.00    +0.047 A 
ATOM     19  C   UNL     1      -2.957   5.329   2.881  0.00  0.00    +0.084 A 
ATOM     20 CL   UNL     1      -4.040   6.568   2.327  0.00  0.00    -0.080 Cl
BRANCH  14  22
ATOM     21  C   UNL     1      -3.571   5.297   6.494  0.00  0.00    +0.277 C 
ATOM     22  O   UNL     1      -3.685   5.674   5.120  0.00  0.00    -0.494 OA
ENDBRANCH  14  22
ENDBRANCH   1  17
BRANCH  12  23
ATOM     23  C   UNL     1       2.183   0.928  -1.017  0.00  0.00    -0.067 C 
ATOM     24  C   UNL     1       2.332  -0.568  -0.671  0.00  0.00    -0.015 C 
ATOM     25  C   UNL     1       2.680  -1.317  -1.929  0.00  0.00    -0.002 C 
ATOM     26  C   UNL     1       4.200  -1.500  -2.104  0.00  0.00    -0.000 C 
ATOM     27  C   UNL     1       5.000  -0.235  -1.737  0.00  0.00    -0.000 C 
ATOM     28  C   UNL     1       4.350   1.024  -2.242  0.00  0.00    -0.002 C 
ATOM     29  C   UNL     1       3.467   1.604  -1.118  0.00  0.00    -0.015 C 
ENDBRANCH  12  23
TORSDOF 3
