REMARK  Name = ZINC16671957
REMARK  2 active torsions:
REMARK  status: ('A' for Active; 'I' for Inactive)
REMARK    1  A    between atoms: C_3  and  N_21
REMARK    2  A    between atoms: C_6  and  N_7
REMARK                            x       y       z     vdW  Elec       q    Type
REMARK                         _______ _______ _______ _____ _____    ______ ____
ROOT
ATOM      1  C   UNL     1      -0.017   1.384   0.010  0.00  0.00    +0.026 A 
ATOM      2  C   UNL     1       1.169   2.091   0.002  0.00  0.00    +0.027 A 
ATOM      3  C   UNL     1       2.381   1.414  -0.013  0.00  0.00    +0.062 A 
ATOM      4  C   UNL     1       2.400   0.025  -0.021  0.00  0.00    +0.065 A 
ATOM      5  C   UNL     1       1.214  -0.682  -0.013  0.00  0.00    +0.045 A 
ATOM      6  C   UNL     1       0.002  -0.004   0.002  0.00  0.00    +0.045 A 
ATOM      7 CL   UNL     1       3.916  -0.822  -0.040  0.00  0.00    -0.082 Cl
ENDROOT
BRANCH   6   8
ATOM      8  N   UNL     1      -1.203  -0.722   0.010  0.00  0.00    -0.210 N 
ATOM      9  C   UNL     1      -2.427  -0.127   0.020  0.00  0.00    +0.230 C 
ATOM     10  O   UNL     1      -2.668   1.042   0.234  0.00  0.00    -0.275 OA
ATOM     11  C   UNL     1      -3.413  -1.208  -0.289  0.00  0.00    +0.088 C 
ATOM     12  C   UNL     1      -4.790  -1.163   0.328  0.00  0.00    +0.013 C 
ATOM     13  C   UNL     1      -5.527  -2.432  -0.141  0.00  0.00    +0.001 C 
ATOM     14  C   UNL     1      -4.766  -3.703   0.219  0.00  0.00    +0.001 C 
ATOM     15  C   UNL     1      -3.307  -3.660  -0.280  0.00  0.00    +0.013 C 
ATOM     16  C   UNL     1      -2.680  -2.432   0.336  0.00  0.00    +0.088 C 
ATOM     17  C   UNL     1      -1.263  -2.081   0.003  0.00  0.00    +0.230 C 
ATOM     18  O   UNL     1      -0.353  -2.850  -0.223  0.00  0.00    -0.275 OA
ENDBRANCH   6   8
BRANCH   3  19
ATOM     19  N   UNL     1       3.586   2.133  -0.021  0.00  0.00    -0.209 N 
ATOM     20  C   UNL     1       4.201   2.519  -1.153  0.00  0.00    +0.230 C 
ATOM     21  O   UNL     1       3.748   2.439  -2.274  0.00  0.00    -0.275 OA
ATOM     22  C   UNL     1       5.572   3.076  -0.773  0.00  0.00    +0.088 C 
ATOM     23  C   UNL     1       6.607   2.005  -1.059  0.00  0.00    +0.013 C 
ATOM     24  C   UNL     1       7.851   2.149  -0.194  0.00  0.00    +0.001 C 
ATOM     25  C   UNL     1       7.432   2.060   1.278  0.00  0.00    +0.001 C 
ATOM     26  C   UNL     1       6.567   3.272   1.600  0.00  0.00    +0.013 C 
ATOM     27  C   UNL     1       5.364   3.414   0.697  0.00  0.00    +0.088 C 
ATOM     28  C   UNL     1       4.227   2.503   1.104  0.00  0.00    +0.230 C 
ATOM     29  O   UNL     1       3.946   2.167   2.234  0.00  0.00    -0.275 OA
ENDBRANCH   3  19
TORSDOF 2
