REMARK  Name = ZINC63752953
REMARK  6 active torsions:
REMARK  status: ('A' for Active; 'I' for Inactive)
REMARK    1  A    between atoms: C_1  and  C_2
REMARK    2  A    between atoms: C_6  and  C_8
REMARK    3  A    between atoms: N_10  and  C_11
REMARK    4  A    between atoms: C_14  and  C_36
REMARK    5  A    between atoms: C_19  and  C_21
REMARK    6  A    between atoms: N_26  and  C_29
REMARK                            x       y       z     vdW  Elec       q    Type
REMARK                         _______ _______ _______ _____ _____    ______ ____
ROOT
ATOM      1  C   UNL     1       0.186  -4.883   3.611  0.00  0.00    +0.051 C 
ATOM      2  C   UNL     1       0.194  -4.360   4.894  0.00  0.00    +0.018 A 
ATOM      3  C   UNL     1       0.093  -3.037   5.386  0.00  0.00    +0.015 A 
ATOM      4  C   UNL     1       0.132  -2.813   6.723  0.00  0.00    -0.050 A 
ATOM      5  C   UNL     1       0.271  -3.860   7.638  0.00  0.00    +0.005 A 
ATOM      6  C   UNL     1       0.373  -5.151   7.238  0.00  0.00    +0.026 A 
ATOM      7  C   UNL     1       0.341  -5.466   5.855  0.00  0.00    +0.045 A 
ATOM      8  N   UNL     1       0.420  -6.619   5.221  0.00  0.00    -0.369 N 
ATOM      9  C   UNL     1       0.327  -6.379   3.777  0.00  0.00    +0.211 C 
ATOM     10  C   UNL     1       0.024  -1.400   7.235  0.00  0.00    +0.044 C 
ATOM     11  H   UNL     1       0.520  -7.487   5.642  0.00  0.00    +0.161 HD
ENDROOT
BRANCH   9  12
ATOM     12  C   UNL     1      -0.879  -7.081   3.208  0.00  0.00    +0.244 C 
ATOM     13  O   UNL     1      -1.760  -7.467   3.946  0.00  0.00    -0.273 OA
ATOM     14  N   UNL     1      -0.978  -7.280   1.879  0.00  0.00    -0.296 N 
ATOM     15  C   UNL     1       0.086  -6.824   0.973  0.00  0.00    +0.126 C 
ATOM     16  C   UNL     1       0.566  -8.019   0.140  0.00  0.00    +0.124 C 
ATOM     17  N   UNL     1      -0.607  -8.697  -0.429  0.00  0.00    -0.325 N 
ATOM     18  C   UNL     1      -1.670  -9.153   0.476  0.00  0.00    +0.124 C 
ATOM     19  C   UNL     1      -2.148  -7.963   1.310  0.00  0.00    +0.126 C 
BRANCH  17  20
ATOM     20  C   UNL     1      -0.710  -8.903  -1.809  0.00  0.00    +0.065 A 
ATOM     21  C   UNL     1      -0.211 -10.068  -2.377  0.00  0.00    +0.026 A 
ATOM     22  C   UNL     1      -0.314 -10.269  -3.740  0.00  0.00    +0.002 A 
ATOM     23  C   UNL     1      -0.913  -9.313  -4.539  0.00  0.00    +0.003 A 
ATOM     24  C   UNL     1      -1.411  -8.151  -3.978  0.00  0.00    +0.040 A 
ATOM     25  C   UNL     1      -1.317  -7.945  -2.614  0.00  0.00    +0.144 A 
ATOM     26  F   UNL     1      -1.808  -6.813  -2.065  0.00  0.00    -0.204 F 
ENDBRANCH  17  20
ENDBRANCH   9  12
BRANCH   1  29
ATOM     27  C   UNL     1       0.563  -2.943   2.347  0.00  0.00    +0.248 C 
ATOM     28  O   UNL     1       1.082  -2.419   3.312  0.00  0.00    -0.270 OA
ATOM     29  N   UNL     1       0.069  -4.193   2.444  0.00  0.00    -0.282 N 
ATOM     30  H   UNL     1      -0.370  -4.601   1.681  0.00  0.00    +0.155 HD
BRANCH  27  36
ATOM     31  C   UNL     1       1.446   1.163  -0.347  0.00  0.00    +0.044 C 
ATOM     32  C   UNL     1       0.896  -0.236  -0.234  0.00  0.00    -0.050 A 
ATOM     33  C   UNL     1       0.304  -0.836  -1.331  0.00  0.00    +0.003 A 
ATOM     34  C   UNL     1      -0.204  -2.119  -1.236  0.00  0.00    +0.001 A 
ATOM     35  C   UNL     1      -0.123  -2.809  -0.044  0.00  0.00    +0.013 A 
ATOM     36  C   UNL     1       0.473  -2.210   1.067  0.00  0.00    +0.037 A 
ATOM     37  C   UNL     1       0.988  -0.916   0.962  0.00  0.00    +0.016 A 
ENDBRANCH  27  36
ENDBRANCH   1  29
TORSDOF 4
