REMARK  Name = ZINC12296341
REMARK  4 active torsions:
REMARK  status: ('A' for Active; 'I' for Inactive)
REMARK    1  A    between atoms: C_1  and  C_2
REMARK    2  A    between atoms: C_14  and  O_31
REMARK    3  A    between atoms: C_15  and  C_16
REMARK    4  A    between atoms: C_19  and  C_22
REMARK                            x       y       z     vdW  Elec       q    Type
REMARK                         _______ _______ _______ _____ _____    ______ ____
ROOT
ATOM      1  C   UNL     1       5.577  -1.841   1.652  0.00  0.00    +0.044 C 
ATOM      2  C   UNL     1       4.442  -2.453   2.431  0.00  0.00    -0.035 A 
ATOM      3  C   UNL     1       4.708  -3.402   3.393  0.00  0.00    +0.051 A 
ATOM      4  C   UNL     1       3.671  -3.973   4.120  0.00  0.00    +0.143 A 
ATOM      5  C   UNL     1       2.344  -3.580   3.871  0.00  0.00    +0.063 A 
ATOM      6  C   UNL     1       1.262  -4.190   4.648  0.00  0.00    -0.023 A 
ATOM      7  C   UNL     1       1.584  -5.118   5.584  0.00  0.00    +0.041 A 
ATOM      8  C   UNL     1       2.940  -5.466   5.780  0.00  0.00    +0.341 A 
ATOM      9  O   UNL     1       3.221  -6.300   6.622  0.00  0.00    -0.245 OA
ATOM     10  O   UNL     1       3.926  -4.904   5.066  0.00  0.00    -0.422 OA
ATOM     11  C   UNL     1       0.331  -5.619   6.269  0.00  0.00    +0.043 C 
ATOM     12  C   UNL     1      -0.755  -4.573   5.938  0.00  0.00    +0.010 C 
ATOM     13  C   UNL     1      -0.233  -3.977   4.612  0.00  0.00    +0.037 C 
ATOM     14  C   UNL     1       2.070  -2.612   2.895  0.00  0.00    +0.137 A 
ATOM     15  C   UNL     1       3.127  -2.052   2.171  0.00  0.00    +0.043 A 
ENDROOT
BRANCH  15  16
ATOM     16  C   UNL     1       2.857  -1.036   1.137  0.00  0.00    +0.072 C 
ATOM     17  N   UNL     1       2.633  -1.282  -0.107  0.00  0.00    -0.190 NA
ATOM     18  N   UNL     1       2.404  -0.145  -0.880  0.00  0.00    -0.261 N 
ATOM     19  C   UNL     1       2.489   1.043  -0.016  0.00  0.00    +0.125 C 
ATOM     20  C   UNL     1       2.799   0.457   1.375  0.00  0.00    +0.086 C 
ATOM     21  H   UNL     1       2.219  -0.139  -1.832  0.00  0.00    +0.169 HD
BRANCH  19  22
ATOM     22  C   UNL     1       1.176   1.782   0.000  0.00  0.00    -0.022 A 
ATOM     23  C   UNL     1      -0.013   1.076   0.008  0.00  0.00    +0.009 A 
ATOM     24  C   UNL     1      -1.220   1.749   0.017  0.00  0.00    +0.050 A 
ATOM     25  C   UNL     1      -1.241   3.134   0.030  0.00  0.00    +0.166 A 
ATOM     26  C   UNL     1      -0.044   3.846   0.023  0.00  0.00    +0.167 A 
ATOM     27  C   UNL     1       1.163   3.164   0.008  0.00  0.00    +0.055 A 
ATOM     28  O   UNL     1      -0.329   5.180   0.032  0.00  0.00    -0.453 OA
ATOM     29  C   UNL     1      -1.709   5.281  -0.367  0.00  0.00    +0.466 C 
ATOM     30  O   UNL     1      -2.277   4.024   0.044  0.00  0.00    -0.453 OA
ENDBRANCH  19  22
ENDBRANCH  15  16
BRANCH  14  31
ATOM     31  O   UNL     1       0.793  -2.226   2.652  0.00  0.00    -0.505 OA
ATOM     32  H   UNL     1       0.345  -2.752   1.975  0.00  0.00    +0.292 HD
ENDBRANCH  14  31
TORSDOF 3
