REMARK  Name = ZINC59264394
REMARK  9 active torsions:
REMARK  status: ('A' for Active; 'I' for Inactive)
REMARK    1  A    between atoms: C_1  and  N_2
REMARK    2  A    between atoms: N_2  and  C_3
REMARK    3  A    between atoms: N_2  and  C_4
REMARK    4  A    between atoms: C_4  and  C_6
REMARK    5  A    between atoms: C_4  and  C_22
REMARK    6  A    between atoms: C_6  and  N_7
REMARK    7  A    between atoms: N_10  and  C_11
REMARK    8  A    between atoms: C_11  and  C_12
REMARK    9  A    between atoms: C_12  and  N_13
REMARK                            x       y       z     vdW  Elec       q    Type
REMARK                         _______ _______ _______ _____ _____    ______ ____
ROOT
ATOM      1  N   UNL     1       0.204  -2.151   0.754  0.00  0.00    -0.301 N 
ATOM      2  C   UNL     1       0.641  -3.421   0.865  0.00  0.00    +0.300 C 
ATOM      3  O   UNL     1       0.253  -4.268   0.084  0.00  0.00    -0.253 OA
ATOM      4  N   UNL     1       1.507  -3.753   1.843  0.00  0.00    -0.298 N 
ATOM      5  H   UNL     1       0.514  -1.476   1.377  0.00  0.00    +0.150 HD
ATOM      6  H   UNL     1       1.817  -3.078   2.466  0.00  0.00    +0.150 HD
ENDROOT
BRANCH   1   7
ATOM      7  C   UNL     1      -0.737  -1.790  -0.309  0.00  0.00    +0.095 C 
BRANCH   7   8
ATOM      8  C   UNL     1      -1.168  -0.333  -0.135  0.00  0.00    -0.021 C 
BRANCH   8   9
ATOM      9  C   UNL     1      -1.945  -0.188   1.148  0.00  0.00    -0.057 A 
ATOM     10  C   UNL     1      -3.277  -0.556   1.195  0.00  0.00    +0.002 A 
ATOM     11  C   UNL     1      -3.991  -0.424   2.371  0.00  0.00    +0.003 A 
ATOM     12  C   UNL     1      -3.375   0.077   3.501  0.00  0.00    +0.038 A 
ATOM     13  C   UNL     1      -2.041   0.447   3.456  0.00  0.00    +0.124 A 
ATOM     14  C   UNL     1      -1.325   0.308   2.279  0.00  0.00    +0.040 A 
ATOM     15  F   UNL     1      -1.438   0.938   4.560  0.00  0.00    -0.205 F 
ENDBRANCH   8   9
BRANCH   8  17
ATOM     16  C   UNL     1      -2.469   1.450  -1.076  0.00  0.00    -0.096 C 
ATOM     17  N   UNL     1      -2.014   0.066  -1.268  0.00  0.00    +0.382 N 
ATOM     18  C   UNL     1      -1.241  -0.027  -2.513  0.00  0.00    -0.096 C 
ATOM     19  H   UNL     1      -2.814  -0.546  -1.322  0.00  0.00    -0.082 HD
ENDBRANCH   8  17
ENDBRANCH   7   8
ENDBRANCH   1   7
BRANCH   4  20
ATOM     20  C   UNL     1       1.981  -5.134   1.964  0.00  0.00    +0.124 C 
BRANCH  20  21
ATOM     21  C   UNL     1       2.948  -5.240   3.145  0.00  0.00    +0.121 C 
BRANCH  21  22
ATOM     22  N   UNL     1       3.422  -6.620   3.266  0.00  0.00    -0.326 N 
ATOM     23  C   UNL     1       4.316  -6.963   4.276  0.00  0.00    +0.137 A 
ATOM     24  C   UNL     1       4.767  -8.276   4.381  0.00  0.00    +0.082 A 
ATOM     25  C   UNL     1       5.657  -8.603   5.390  0.00  0.00    +0.045 A 
ATOM     26  C   UNL     1       6.067  -7.601   6.262  0.00  0.00    +0.061 A 
ATOM     27  C   UNL     1       5.579  -6.320   6.098  0.00  0.00    +0.133 A 
ATOM     28  N   UNL     1       4.735  -6.036   5.123  0.00  0.00    -0.238 NA
ATOM     29 CL   UNL     1       7.181  -7.958   7.545  0.00  0.00    -0.082 Cl
ATOM     30 CL   UNL     1       4.221  -9.487   3.264  0.00  0.00    -0.080 Cl
ATOM     31  H   UNL     1       3.112  -7.296   2.643  0.00  0.00    +0.148 HD
ENDBRANCH  21  22
ENDBRANCH  20  21
ENDBRANCH   4  20
TORSDOF 7
