REMARK  Name = ZINC38999913
REMARK  10 active torsions:
REMARK  status: ('A' for Active; 'I' for Inactive)
REMARK    1  A    between atoms: C_1  and  C_2
REMARK    2  A    between atoms: C_2  and  C_3
REMARK    3  A    between atoms: C_2  and  C_4
REMARK    4  A    between atoms: C_9  and  N_10
REMARK    5  A    between atoms: C_11  and  C_13
REMARK    6  A    between atoms: C_13  and  S_14
REMARK    7  A    between atoms: S_14  and  C_15
REMARK    8  A    between atoms: C_19  and  C_23
REMARK    9  A    between atoms: N_21  and  N_22
REMARK   10  A    between atoms: C_26  and  C_29
REMARK                            x       y       z     vdW  Elec       q    Type
REMARK                         _______ _______ _______ _____ _____    ______ ____
ROOT
ATOM      1  C   UNL     1      -0.496  -4.832  -6.987  0.00  0.00    +0.214 C 
ATOM      2  N   UNL     1       0.297  -3.642  -7.395  0.00  0.00    -0.228 NA
ATOM      3  N   UNL     1       1.500  -4.236  -7.999  0.00  0.00    -0.234 NA
ATOM      4  C   UNL     1       1.792  -5.418  -7.156  0.00  0.00    +0.185 C 
ATOM      5  N   UNL     1       0.517  -5.802  -6.512  0.00  0.00    -0.197 NA
ATOM      6  H   UNL     1       0.536  -3.076  -6.595  0.00  0.00    +0.143 HD
ATOM      7  H   UNL     1       1.327  -4.508  -8.956  0.00  0.00    +0.143 HD
ENDROOT
BRANCH   4   8
ATOM      8  C   UNL     1       2.306  -6.567  -8.025  0.00  0.00    +0.187 C 
ATOM      9  C   UNL     1       3.631  -6.200  -8.671  0.00  0.00    +0.034 C 
ATOM     10  C   UNL     1       3.369  -6.246  -9.992  0.00  0.00    +0.091 C 
ATOM     11  N   UNL     1       2.072  -6.589 -10.207  0.00  0.00    -0.154 NA
ATOM     12  N   UNL     1       1.416  -6.787  -9.177  0.00  0.00    -0.176 NA
BRANCH  10  13
ATOM     13  C   UNL     1       4.357  -5.961 -11.061  0.00  0.00    +0.002 A 
ATOM     14  C   UNL     1       5.668  -5.621 -10.729  0.00  0.00    +0.011 A 
ATOM     15  C   UNL     1       6.583  -5.357 -11.727  0.00  0.00    +0.020 A 
ATOM     16  C   UNL     1       6.202  -5.428 -13.056  0.00  0.00    +0.041 A 
ATOM     17  C   UNL     1       4.901  -5.764 -13.391  0.00  0.00    +0.020 A 
ATOM     18  C   UNL     1       3.980  -6.037 -12.400  0.00  0.00    +0.011 A 
ATOM     19 CL   UNL     1       7.358  -5.093 -14.307  0.00  0.00    -0.084 Cl
ENDBRANCH  10  13
ENDBRANCH   4   8
BRANCH   5  20
ATOM     20  N   UNL     1       0.634  -5.766  -5.063  0.00  0.00    -0.264 NA
ATOM     21  H   UNL     1      -0.216  -6.083  -4.623  0.00  0.00    +0.137 HD
ATOM     22  H   UNL     1       1.427  -6.306  -4.751  0.00  0.00    +0.137 HD
ENDBRANCH   5  20
BRANCH   1  23
ATOM     23  S   UNL     1      -1.641  -4.402  -5.647  0.00  0.00    -0.115 S 
BRANCH  23  24
ATOM     24  C   UNL     1      -3.032  -3.606  -6.497  0.00  0.00    +0.168 C 
BRANCH  24  26
ATOM     25  N   UNL     1      -5.261  -2.709  -5.909  0.00  0.00    -0.285 N 
ATOM     26  C   UNL     1      -4.123  -3.305  -5.502  0.00  0.00    +0.227 C 
ATOM     27  O   UNL     1      -3.976  -3.599  -4.334  0.00  0.00    -0.275 OA
ATOM     28  H   UNL     1      -5.406  -2.533  -6.852  0.00  0.00    +0.155 HD
BRANCH  25  34
ATOM     29  C   UNL     1      -7.092  -1.285  -5.236  0.00  0.00    -0.024 A 
ATOM     30  C   UNL     1      -8.055  -0.930  -4.311  0.00  0.00    +0.006 A 
ATOM     31  C   UNL     1      -8.161  -1.626  -3.121  0.00  0.00    +0.000 A 
ATOM     32  C   UNL     1      -7.305  -2.678  -2.853  0.00  0.00    +0.002 A 
ATOM     33  C   UNL     1      -6.340  -3.038  -3.773  0.00  0.00    +0.023 A 
ATOM     34  C   UNL     1      -6.234  -2.344  -4.972  0.00  0.00    +0.037 A 
BRANCH  29  36
ATOM     35  C   UNL     1      -8.245  -0.736  -7.362  0.00  0.00    +0.012 C 
ATOM     36  C   UNL     1      -6.976  -0.526  -6.533  0.00  0.00    +0.015 C 
ATOM     37  C   UNL     1      -6.801   0.965  -6.238  0.00  0.00    +0.012 C 
ENDBRANCH  29  36
ENDBRANCH  25  34
ENDBRANCH  24  26
ENDBRANCH  23  24
ENDBRANCH   1  23
TORSDOF 8
