REMARK  Name = ZINC66170228
REMARK  10 active torsions:
REMARK  status: ('A' for Active; 'I' for Inactive)
REMARK    1  A    between atoms: C_1  and  C_2
REMARK    2  A    between atoms: C_2  and  C_4
REMARK    3  A    between atoms: C_2  and  O_21
REMARK    4  A    between atoms: C_4  and  N_5
REMARK    5  A    between atoms: N_5  and  C_6
REMARK    6  A    between atoms: C_9  and  O_12
REMARK    7  A    between atoms: O_12  and  C_13
REMARK    8  A    between atoms: C_13  and  C_14
REMARK    9  A    between atoms: C_14  and  C_15
REMARK   10  A    between atoms: O_21  and  C_22
REMARK                            x       y       z     vdW  Elec       q    Type
REMARK                         _______ _______ _______ _____ _____    ______ ____
ROOT
ATOM      1  C   UNL     1       1.166  -2.228  -2.817  0.00  0.00    +0.027 A 
ATOM      2  C   UNL     1       1.697  -1.356  -3.759  0.00  0.00    +0.026 A 
ATOM      3  C   UNL     1       2.220  -1.848  -4.938  0.00  0.00    +0.047 A 
ATOM      4  C   UNL     1       2.216  -3.213  -5.183  0.00  0.00    +0.121 A 
ATOM      5  C   UNL     1       1.685  -4.085  -4.243  0.00  0.00    +0.047 A 
ATOM      6  C   UNL     1       1.167  -3.595  -3.061  0.00  0.00    +0.026 A 
ENDROOT
BRANCH   1   7
ATOM      7  N   UNL     1       0.636  -1.730  -1.622  0.00  0.00    -0.340 N 
ATOM      8  H   UNL     1       0.269  -2.340  -0.963  0.00  0.00    +0.146 HD
BRANCH   7   9
ATOM      9  C   UNL     1       0.636  -0.287  -1.365  0.00  0.00    +0.145 C 
BRANCH   9  11
ATOM     10  C   UNL     1       0.005   1.494   0.269  0.00  0.00    +0.053 C 
ATOM     11  C   UNL     1       0.005  -0.013   0.001  0.00  0.00    +0.187 C 
BRANCH  11  12
ATOM     12  O   UNL     1      -1.339  -0.499   0.012  0.00  0.00    -0.486 OA
BRANCH  12  13
ATOM     13  C   UNL     1      -1.869  -0.818   1.222  0.00  0.00    +0.139 A 
ATOM     14  C   UNL     1      -1.155  -0.562   2.383  0.00  0.00    +0.048 A 
ATOM     15  C   UNL     1      -1.696  -0.887   3.612  0.00  0.00    +0.023 A 
ATOM     16  C   UNL     1      -2.950  -1.468   3.686  0.00  0.00    +0.043 A 
ATOM     17  C   UNL     1      -3.665  -1.724   2.529  0.00  0.00    +0.043 A 
ATOM     18  C   UNL     1      -3.129  -1.395   1.298  0.00  0.00    +0.084 A 
ATOM     19 CL   UNL     1      -4.029  -1.711  -0.153  0.00  0.00    -0.080 Cl
ATOM     20 CL   UNL     1      -3.627  -1.875   5.232  0.00  0.00    -0.083 Cl
ENDBRANCH  12  13
ENDBRANCH  11  12
ENDBRANCH   9  11
ENDBRANCH   7   9
ENDBRANCH   1   7
BRANCH   4  21
ATOM     21  O   UNL     1       2.731  -3.697  -6.344  0.00  0.00    -0.492 OA
BRANCH  21  22
ATOM     22  C   UNL     1       2.694  -5.114  -6.530  0.00  0.00    +0.229 C 
BRANCH  22  23
ATOM     23  C   UNL     1       3.313  -5.467  -7.884  0.00  0.00    +0.044 C 
BRANCH  23  24
ATOM     24  C   UNL     1       3.273  -6.984  -8.083  0.00  0.00    -0.008 C 
ATOM     25  C   UNL     1       1.818  -7.448  -8.170  0.00  0.00    +0.003 C 
ATOM     26  C   UNL     1       1.778  -8.965  -8.369  0.00  0.00    +0.000 C 
ATOM     27  C   UNL     1       2.508  -9.329  -9.664  0.00  0.00    +0.000 C 
ATOM     28  C   UNL     1       3.963  -8.864  -9.576  0.00  0.00    +0.000 C 
ATOM     29  C   UNL     1       4.003  -7.347  -9.377  0.00  0.00    +0.003 C 
ENDBRANCH  23  24
ENDBRANCH  22  23
ENDBRANCH  21  22
ENDBRANCH   4  21
TORSDOF 9
