REMARK  Name = ZINC15610970
REMARK  4 active torsions:
REMARK  status: ('A' for Active; 'I' for Inactive)
REMARK    1  A    between atoms: C_3  and  S_22
REMARK    2  A    between atoms: C_6  and  N_7
REMARK    3  A    between atoms: C_8  and  C_10
REMARK    4  A    between atoms: S_22  and  C_25
REMARK                            x       y       z     vdW  Elec       q    Type
REMARK                         _______ _______ _______ _____ _____    ______ ____
ROOT
ATOM      1  N   UNL     1       3.584   2.123  -0.020  0.00  0.00    -0.285 N 
ATOM      2  C   UNL     1       3.569   3.468  -0.115  0.00  0.00    +0.224 C 
ATOM      3  O   UNL     1       2.513   4.065  -0.102  0.00  0.00    -0.275 OA
ATOM      4  H   UNL     1       4.429   1.651   0.037  0.00  0.00    +0.155 HD
ENDROOT
BRANCH   2   5
ATOM      5  C   UNL     1       4.863   4.229  -0.237  0.00  0.00    +0.117 C 
ATOM      6  C   UNL     1       4.572   5.727  -0.357  0.00  0.00    +0.055 C 
ATOM      7  C   UNL     1       5.824   6.457  -0.773  0.00  0.00    -0.004 A 
ATOM      8  C   UNL     1       5.889   7.827  -0.586  0.00  0.00    +0.027 A 
ATOM      9  C   UNL     1       7.018   8.530  -0.964  0.00  0.00    +0.041 A 
ATOM     10  C   UNL     1       8.090   7.862  -1.530  0.00  0.00    +0.023 A 
ATOM     11  C   UNL     1       8.030   6.496  -1.717  0.00  0.00    +0.047 A 
ATOM     12  C   UNL     1       6.895   5.787  -1.337  0.00  0.00    +0.124 A 
ATOM     13  O   UNL     1       6.876   4.442  -1.533  0.00  0.00    -0.491 OA
ATOM     14  C   UNL     1       5.610   3.781  -1.500  0.00  0.00    +0.242 C 
ATOM     15 CL   UNL     1       7.093  10.248  -0.726  0.00  0.00    -0.084 Cl
ENDBRANCH   2   5
BRANCH   1  21
ATOM     16  C   UNL     1       1.261   1.946   0.618  0.00  0.00    +0.025 A 
ATOM     17  C   UNL     1       0.075   1.238   0.631  0.00  0.00    +0.029 A 
ATOM     18  C   UNL     1       0.001  -0.002   0.025  0.00  0.00    +0.095 A 
ATOM     19  C   UNL     1       1.114  -0.539  -0.596  0.00  0.00    +0.029 A 
ATOM     20  C   UNL     1       2.303   0.163  -0.612  0.00  0.00    +0.025 A 
ATOM     21  C   UNL     1       2.381   1.409  -0.005  0.00  0.00    +0.034 A 
BRANCH  18  22
ATOM     22  S   UNL     1      -1.514  -0.901   0.044  0.00  0.00    +0.058 S 
ATOM     23  O   UNL     1      -1.128  -2.264  -0.066  0.00  0.00    -0.164 OA
ATOM     24  O   UNL     1      -2.199  -0.434   1.199  0.00  0.00    -0.164 OA
BRANCH  22  25
ATOM     25  C   UNL     1      -2.387  -0.375  -1.456  0.00  0.00    +0.485 C 
ATOM     26  F   UNL     1      -2.605   1.006  -1.409  0.00  0.00    -0.183 F 
ATOM     27  F   UNL     1      -1.614  -0.688  -2.579  0.00  0.00    -0.183 F 
ENDBRANCH  22  25
ENDBRANCH  18  22
ENDBRANCH   1  21
TORSDOF 4
