REMARK  Name = ZINC16741039
REMARK  6 active torsions:
REMARK  status: ('A' for Active; 'I' for Inactive)
REMARK    1  A    between atoms: C_1  and  C_2
REMARK    2  A    between atoms: C_4  and  N_9
REMARK    3  A    between atoms: N_21  and  C_22
REMARK    4  A    between atoms: C_22  and  C_24
REMARK    5  A    between atoms: C_24  and  C_25
REMARK    6  A    between atoms: C_24  and  C_26
REMARK                            x       y       z     vdW  Elec       q    Type
REMARK                         _______ _______ _______ _____ _____    ______ ____
ROOT
ATOM      1  N   UNL     1      -2.083   1.250   1.250  0.00  0.00    -0.276 N 
ATOM      2  C   UNL     1      -0.638   1.380   1.251  0.00  0.00    +0.116 C 
ATOM      3  C   UNL     1       0.176   0.550   2.257  0.00  0.00    +0.190 C 
ATOM      4  S   UNL     1       1.813   0.475   1.393  0.00  0.00    -0.028 S 
ATOM      5  O   UNL     1       2.174  -0.886   1.200  0.00  0.00    -0.174 OA
ATOM      6  O   UNL     1       2.721   1.355   2.040  0.00  0.00    -0.174 OA
ATOM      7  C   UNL     1       1.317   1.208  -0.241  0.00  0.00    +0.182 C 
ATOM      8  C   UNL     1      -0.154   0.898  -0.168  0.00  0.00    +0.097 C 
ATOM      9  S   UNL     1      -1.366   1.829  -1.133  0.00  0.00    -0.086 S 
ATOM     10  C   UNL     1      -2.713   1.657   0.079  0.00  0.00    +0.154 C 
ATOM     11  N   UNL     1      -4.010   1.871  -0.114  0.00  0.00    -0.159 NA
ENDROOT
BRANCH   1  15
ATOM     12  C   UNL     1      -3.578   1.755   5.906  0.00  0.00    +0.045 C 
ATOM     13  C   UNL     1      -3.533   0.975   4.618  0.00  0.00    -0.035 A 
ATOM     14  C   UNL     1      -2.832   1.470   3.535  0.00  0.00    +0.028 A 
ATOM     15  C   UNL     1      -2.792   0.750   2.348  0.00  0.00    +0.036 A 
ATOM     16  C   UNL     1      -3.460  -0.463   2.252  0.00  0.00    +0.024 A 
ATOM     17  C   UNL     1      -4.155  -0.956   3.339  0.00  0.00    +0.017 A 
ATOM     18  C   UNL     1      -4.193  -0.237   4.521  0.00  0.00    +0.021 A 
ATOM     19 BR   UNL     1      -5.151  -0.912   6.005  0.00  0.00    -0.050 Br
ENDBRANCH   1  15
BRANCH  11  20
ATOM     20  C   UNL     1      -4.449   2.262  -1.308  0.00  0.00    +0.241 C 
ATOM     21  O   UNL     1      -3.664   2.422  -2.222  0.00  0.00    -0.273 OA
BRANCH  20  22
ATOM     22  C   UNL     1      -5.920   2.505  -1.527  0.00  0.00    +0.071 C 
ATOM     23  C   UNL     1      -6.155   2.942  -2.974  0.00  0.00    +0.017 C 
ATOM     24  C   UNL     1      -6.697   1.216  -1.250  0.00  0.00    +0.017 C 
ENDBRANCH  20  22
ENDBRANCH  11  20
TORSDOF 3
