REMARK  Name = ZINC02931465
REMARK  7 active torsions:
REMARK  status: ('A' for Active; 'I' for Inactive)
REMARK    1  A    between atoms: C_1  and  C_2
REMARK    2  A    between atoms: C_2  and  C_3
REMARK    3  A    between atoms: C_3  and  N_4
REMARK    4  A    between atoms: C_12  and  C_30
REMARK    5  A    between atoms: C_13  and  C_19
REMARK    6  A    between atoms: N_21  and  C_22
REMARK    7  A    between atoms: C_25  and  C_29
REMARK                            x       y       z     vdW  Elec       q    Type
REMARK                         _______ _______ _______ _____ _____    ______ ____
ROOT
ATOM      1  N   UNL     1      -2.570  -9.758  -0.718  0.00  0.00    +0.382 N 
ATOM      2  C   UNL     1      -2.441  -8.991   0.529  0.00  0.00    -0.060 C 
ATOM      3  C   UNL     1      -3.536  -7.924   0.584  0.00  0.00    +0.088 C 
ATOM      4  N   UNL     1      -3.419  -7.044  -0.588  0.00  0.00    -0.318 N 
ATOM      5  C   UNL     1      -3.549  -7.811  -1.834  0.00  0.00    +0.088 C 
ATOM      6  C   UNL     1      -2.453  -8.878  -1.889  0.00  0.00    -0.060 C 
ATOM      7  C   UNL     1      -4.348  -6.024  -0.535  0.00  0.00    +0.133 A 
ATOM      8  C   UNL     1      -3.925  -4.667  -0.408  0.00  0.00    +0.051 A 
ATOM      9  C   UNL     1      -2.627  -4.148  -0.319  0.00  0.00    -0.019 A 
ATOM     10  C   UNL     1      -2.441  -2.804  -0.200  0.00  0.00    +0.080 A 
ATOM     11  S   UNL     1      -4.110  -2.171  -0.198  0.00  0.00    -0.064 S 
ATOM     12  C   UNL     1      -4.971  -3.713  -0.365  0.00  0.00    +0.114 A 
ATOM     13  N   UNL     1      -6.236  -4.074  -0.439  0.00  0.00    -0.228 NA
ATOM     14  C   UNL     1      -6.562  -5.347  -0.556  0.00  0.00    +0.224 A 
ATOM     15  N   UNL     1      -5.641  -6.293  -0.602  0.00  0.00    -0.220 NA
ATOM     16  C   UNL     1      -1.438  -5.074  -0.355  0.00  0.00    +0.046 C 
ATOM     17  H   UNL     1      -3.571 -10.214  -0.734  0.00  0.00    -0.082 HD
ENDROOT
BRANCH  10  18
ATOM     18  C   UNL     1      -1.180  -2.061  -0.094  0.00  0.00    +0.255 C 
ATOM     19  O   UNL     1      -0.119  -2.657  -0.107  0.00  0.00    -0.269 OA
ATOM     20  N   UNL     1      -1.197  -0.718   0.018  0.00  0.00    -0.281 N 
ATOM     21  H   UNL     1      -2.156  -0.185   0.105  0.00  0.00    +0.155 HD
BRANCH  20  22
ATOM     22  C   UNL     1       0.004  -0.002   0.023  0.00  0.00    +0.036 A 
ATOM     23  C   UNL     1       0.068   1.253  -0.571  0.00  0.00    +0.024 A 
ATOM     24  C   UNL     1       1.255   1.959  -0.565  0.00  0.00    +0.008 A 
ATOM     25  C   UNL     1       2.380   1.420   0.032  0.00  0.00    -0.015 A 
ATOM     26  C   UNL     1       2.320   0.169   0.624  0.00  0.00    +0.128 A 
ATOM     27  C   UNL     1       1.134  -0.542   0.621  0.00  0.00    +0.062 A 
ATOM     28  F   UNL     1       3.421  -0.355   1.206  0.00  0.00    -0.205 F 
ATOM     29  C   UNL     1       3.673   2.193   0.037  0.00  0.00    +0.047 C 
ENDBRANCH  20  22
ENDBRANCH  10  18
BRANCH   1  30
ATOM     30  C   UNL     1      -1.581 -10.843  -0.773  0.00  0.00    -0.079 C 
BRANCH  30  32
ATOM     31  C   UNL     1      -0.872 -12.896  -2.009  0.00  0.00    +0.002 C 
ATOM     32  C   UNL     1      -1.902 -11.766  -1.951  0.00  0.00    -0.022 C 
ENDBRANCH  30  32
ENDBRANCH   1  30
TORSDOF 4
