REMARK  Name = ZINC04517555
REMARK  13 active torsions:
REMARK  status: ('A' for Active; 'I' for Inactive)
REMARK    1  A    between atoms: C_1  and  C_2
REMARK    2  A    between atoms: C_2  and  N_57
REMARK    3  A    between atoms: C_3  and  C_4
REMARK    4  A    between atoms: C_3  and  N_57
REMARK    5  A    between atoms: C_5  and  C_6
REMARK    6  A    between atoms: C_5  and  N_57
REMARK    7  A    between atoms: C_8  and  N_13
REMARK    8  A    between atoms: C_11  and  O_12
REMARK    9  A    between atoms: N_13  and  C_14
REMARK   10  A    between atoms: C_14  and  C_15
REMARK   11  A    between atoms: C_15  and  C_17
REMARK   12  A    between atoms: C_15  and  O_31
REMARK   13  A    between atoms: C_17  and  N_18
REMARK                            x       y       z     vdW  Elec       q    Type
REMARK                         _______ _______ _______ _____ _____    ______ ____
ROOT
ATOM      1  C   UNL     1       2.168   1.264   1.188  0.00  0.00    +0.134 C 
ENDROOT
BRANCH   1   2
ATOM      2  N   UNL     1       1.434   1.688   2.382  0.00  0.00    -0.341 N 
ATOM      3  H   UNL     1       0.623   2.213   2.293  0.00  0.00    +0.146 HD
BRANCH   2   6
ATOM      4  C   UNL     1       1.670   1.389   6.040  0.00  0.00    -0.021 A 
ATOM      5  C   UNL     1       1.207   1.737   4.786  0.00  0.00    +0.028 A 
ATOM      6  C   UNL     1       1.902   1.336   3.653  0.00  0.00    +0.028 A 
ATOM      7  C   UNL     1       3.060   0.580   3.782  0.00  0.00    +0.026 A 
ATOM      8  C   UNL     1       3.525   0.237   5.036  0.00  0.00    +0.047 A 
ATOM      9  C   UNL     1       2.829   0.638   6.167  0.00  0.00    +0.118 A 
BRANCH   9  10
ATOM     10  O   UNL     1       3.285   0.296   7.402  0.00  0.00    -0.507 OA
ATOM     11  H   UNL     1       3.000  -0.580   7.697  0.00  0.00    +0.292 HD
ENDBRANCH   9  10
BRANCH   4  12
ATOM     12  C   UNL     1       0.915   1.823   7.269  0.00  0.00    -0.039 C 
BRANCH  12  13
ATOM     13  N   UNL     1       1.668   2.911   7.929  0.00  0.00    +0.382 N 
ATOM     14  H   UNL     1       2.659   2.648   7.977  0.00  0.00    -0.081 HD
BRANCH  13  16
ATOM     15  C   UNL     1       0.086   4.636   7.132  0.00  0.00    -0.017 C 
ATOM     16  C   UNL     1       1.540   4.160   7.148  0.00  0.00    -0.082 C 
ENDBRANCH  13  16
BRANCH  13  17
ATOM     17  C   UNL     1       1.158   3.118   9.300  0.00  0.00    -0.082 C 
ATOM     18  C   UNL     1       2.158   3.982  10.071  0.00  0.00    -0.017 C 
ENDBRANCH  13  17
ENDBRANCH  12  13
ENDBRANCH   4  12
ENDBRANCH   2   6
ENDBRANCH   1   2
BRANCH   1  19
ATOM     19  C   UNL     1       1.449   1.777  -0.062  0.00  0.00    +0.151 C 
BRANCH  19  20
ATOM     20  O   UNL     1       0.124   1.242  -0.102  0.00  0.00    -0.388 OA
ATOM     21  H   UNL     1       0.091   0.276  -0.130  0.00  0.00    +0.210 HD
ENDBRANCH  19  20
BRANCH  19  22
ATOM     22  C   UNL     1       2.216   1.335  -1.310  0.00  0.00    +0.159 C 
BRANCH  22  23
ATOM     23  N   UNL     1       1.595   1.925  -2.499  0.00  0.00    -0.296 N 
ATOM     24  C   UNL     1       2.015   3.137  -2.946  0.00  0.00    +0.202 A 
ATOM     25  N   UNL     1       1.516   3.725  -3.990  0.00  0.00    -0.237 NA
ATOM     26  C   UNL     1       0.523   3.157  -4.720  0.00  0.00    +0.079 A 
ATOM     27  C   UNL     1      -0.013   3.788  -5.843  0.00  0.00    +0.050 A 
ATOM     28  C   UNL     1      -1.020   3.175  -6.555  0.00  0.00    +0.061 A 
ATOM     29  C   UNL     1      -1.511   1.932  -6.168  0.00  0.00    +0.060 A 
ATOM     30  C   UNL     1      -0.996   1.290  -5.062  0.00  0.00    +0.036 A 
ATOM     31  C   UNL     1       0.023   1.894  -4.329  0.00  0.00    +0.066 A 
ATOM     32  C   UNL     1       0.613   1.254  -3.145  0.00  0.00    +0.262 A 
ATOM     33  O   UNL     1       0.231   0.165  -2.758  0.00  0.00    -0.267 OA
ATOM     34 CL   UNL     1      -2.781   1.183  -7.085  0.00  0.00    -0.082 Cl
ATOM     35 CL   UNL     1      -1.686   3.962  -7.952  0.00  0.00    -0.082 Cl
ENDBRANCH  22  23
ENDBRANCH  19  22
ENDBRANCH   1  19
TORSDOF 11
