REMARK  Name = ZINC03853144
REMARK  3 active torsions:
REMARK  status: ('A' for Active; 'I' for Inactive)
REMARK    1  A    between atoms: C_1  and  C_2
REMARK    2  A    between atoms: C_5  and  C_8
REMARK    3  A    between atoms: C_14  and  C_15
REMARK                            x       y       z     vdW  Elec       q    Type
REMARK                         _______ _______ _______ _____ _____    ______ ____
ROOT
ATOM      1  C   UNL     1       2.707   1.285   0.777  0.00  0.00    +0.130 C 
ATOM      2  N   UNL     1       3.937   1.717   0.635  0.00  0.00    -0.164 NA
ATOM      3  N   UNL     1       4.982   0.836   0.449  0.00  0.00    -0.152 N 
ATOM      4  C   UNL     1       6.346   1.188   0.367  0.00  0.00    +0.153 C 
ATOM      5  N   UNL     1       6.825   2.312   0.830  0.00  0.00    -0.283 NA
ATOM      6  C   UNL     1       7.188   0.155  -0.301  0.00  0.00    +0.081 C 
ATOM      7  C   UNL     1       8.283   0.490  -1.046  0.00  0.00    +0.024 C 
ATOM      8  C   UNL     1       6.773  -1.258  -0.111  0.00  0.00    +0.273 C 
ATOM      9  O   UNL     1       7.584  -2.167  -0.177  0.00  0.00    -0.268 OA
ATOM     10  N   UNL     1       5.472  -1.505   0.138  0.00  0.00    -0.152 NA
ATOM     11  C   UNL     1       4.659  -0.501   0.356  0.00  0.00    +0.181 C 
ATOM     12  S   UNL     1       2.906  -0.484   0.620  0.00  0.00    -0.033 S 
ATOM     13  H   UNL     1       6.251   2.915   1.327  0.00  0.00    +0.188 HD
ENDROOT
BRANCH   1  18
ATOM     14  C   UNL     1      -2.107   4.317   1.652  0.00  0.00    +0.044 C 
ATOM     15  C   UNL     1      -0.846   3.523   1.423  0.00  0.00    -0.050 A 
ATOM     16  C   UNL     1      -0.908   2.144   1.327  0.00  0.00    +0.004 A 
ATOM     17  C   UNL     1       0.243   1.412   1.122  0.00  0.00    +0.011 A 
ATOM     18  C   UNL     1       1.470   2.065   1.002  0.00  0.00    +0.009 A 
ATOM     19  C   UNL     1       1.525   3.455   1.095  0.00  0.00    +0.011 A 
ATOM     20  C   UNL     1       0.367   4.176   1.305  0.00  0.00    +0.004 A 
ENDBRANCH   1  18
BRANCH   7  21
ATOM     21  C   UNL     1       8.560   1.897  -1.351  0.00  0.00    -0.024 A 
ATOM     22  C   UNL     1       7.504   2.802  -1.522  0.00  0.00    +0.009 A 
ATOM     23  C   UNL     1       7.774   4.124  -1.803  0.00  0.00    +0.016 A 
ATOM     24  C   UNL     1       9.084   4.557  -1.927  0.00  0.00    +0.018 A 
ATOM     25  C   UNL     1      10.134   3.667  -1.764  0.00  0.00    +0.016 A 
ATOM     26  C   UNL     1       9.882   2.343  -1.478  0.00  0.00    +0.009 A 
ATOM     27 BR   UNL     1       9.442   6.372  -2.320  0.00  0.00    -0.050 Br
ENDBRANCH   7  21
TORSDOF 2
