REMARK  Name = ZINC01127512
REMARK  9 active torsions:
REMARK  status: ('A' for Active; 'I' for Inactive)
REMARK    1  A    between atoms: C_1  and  C_2
REMARK    2  A    between atoms: C_5  and  S_8
REMARK    3  A    between atoms: S_8  and  N_11
REMARK    4  A    between atoms: N_11  and  C_12
REMARK    5  A    between atoms: N_11  and  C_20
REMARK    6  A    between atoms: C_12  and  C_13
REMARK    7  A    between atoms: C_20  and  C_21
REMARK    8  A    between atoms: N_23  and  C_24
REMARK    9  A    between atoms: C_24  and  C_25
REMARK                            x       y       z     vdW  Elec       q    Type
REMARK                         _______ _______ _______ _____ _____    ______ ____
ROOT
ATOM      1  N   UNL     1       0.104  -0.234   0.016  0.00  0.00    -0.163 NA
ENDROOT
BRANCH   1   2
ATOM      2  S   UNL     1       0.325   1.387   0.275  0.00  0.00    +0.062 S 
ATOM      3  O   UNL     1       1.729   1.606   0.300  0.00  0.00    -0.153 OA
ATOM      4  O   UNL     1      -0.535   2.063  -0.632  0.00  0.00    -0.153 OA
BRANCH   2   9
ATOM      5  C   UNL     1      -1.713   2.604   5.821  0.00  0.00    +0.044 C 
ATOM      6  C   UNL     1      -1.204   2.300   4.436  0.00  0.00    -0.050 A 
ATOM      7  C   UNL     1       0.118   1.940   4.249  0.00  0.00    +0.005 A 
ATOM      8  C   UNL     1       0.585   1.661   2.978  0.00  0.00    +0.029 A 
ATOM      9  C   UNL     1      -0.270   1.742   1.894  0.00  0.00    +0.106 A 
ATOM     10  C   UNL     1      -1.590   2.107   2.081  0.00  0.00    +0.029 A 
ATOM     11  C   UNL     1      -2.058   2.381   3.352  0.00  0.00    +0.005 A 
ENDBRANCH   2   9
ENDBRANCH   1   2
BRANCH   1  12
ATOM     12  C   UNL     1      -1.147  -0.718  -0.573  0.00  0.00    +0.146 C 
BRANCH  12  13
ATOM     13  C   UNL     1      -0.978  -0.862  -2.064  0.00  0.00    -0.013 A 
ATOM     14  C   UNL     1       0.193  -0.445  -2.670  0.00  0.00    +0.006 A 
ATOM     15  C   UNL     1       0.350  -0.581  -4.036  0.00  0.00    +0.000 A 
ATOM     16  C   UNL     1      -0.667  -1.126  -4.799  0.00  0.00    +0.001 A 
ATOM     17  C   UNL     1      -1.839  -1.538  -4.195  0.00  0.00    +0.020 A 
ATOM     18  C   UNL     1      -1.995  -1.406  -2.826  0.00  0.00    +0.045 A 
ATOM     19 CL   UNL     1      -3.468  -1.923  -2.067  0.00  0.00    -0.083 Cl
ENDBRANCH  12  13
ENDBRANCH   1  12
BRANCH   1  20
ATOM     20  C   UNL     1       1.159  -1.184   0.377  0.00  0.00    +0.205 C 
BRANCH  20  21
ATOM     21  C   UNL     1       0.869  -1.766   1.736  0.00  0.00    +0.229 C 
ATOM     22  O   UNL     1      -0.122  -1.420   2.344  0.00  0.00    -0.274 OA
ATOM     23  N   UNL     1       1.710  -2.669   2.277  0.00  0.00    -0.310 N 
ATOM     24  H   UNL     1       2.503  -2.945   1.791  0.00  0.00    +0.149 HD
BRANCH  23  25
ATOM     25  C   UNL     1       1.428  -3.234   3.599  0.00  0.00    +0.139 C 
BRANCH  25  26
ATOM     26  C   UNL     1       2.513  -4.212   3.970  0.00  0.00    -0.027 A 
ATOM     27  C   UNL     1       2.402  -5.554   3.640  0.00  0.00    +0.025 A 
ATOM     28  C   UNL     1       3.420  -6.420   3.993  0.00  0.00    +0.111 A 
ATOM     29  N   UNL     1       4.481  -5.984   4.644  0.00  0.00    -0.263 NA
ATOM     30  C   UNL     1       4.618  -4.716   4.977  0.00  0.00    +0.111 A 
ATOM     31  C   UNL     1       3.643  -3.791   4.653  0.00  0.00    +0.025 A 
ENDBRANCH  25  26
ENDBRANCH  23  25
ENDBRANCH  20  21
ENDBRANCH   1  20
TORSDOF 8
