REMARK  Name = ZINC55306942
REMARK  6 active torsions:
REMARK  status: ('A' for Active; 'I' for Inactive)
REMARK    1  A    between atoms: C_1  and  C_2
REMARK    2  A    between atoms: C_2  and  C_4
REMARK    3  A    between atoms: C_2  and  S_15
REMARK    4  A    between atoms: N_6  and  C_7
REMARK    5  A    between atoms: C_11  and  N_13
REMARK    6  A    between atoms: S_15  and  C_16
REMARK                            x       y       z     vdW  Elec       q    Type
REMARK                         _______ _______ _______ _____ _____    ______ ____
ROOT
ATOM      1  C   UNL     1      -1.412  -0.279   0.109  0.00  0.00    +0.230 C 
ATOM      2  O   UNL     1      -1.865  -0.620   1.181  0.00  0.00    -0.274 OA
ATOM      3  N   UNL     1      -2.201  -0.269  -0.984  0.00  0.00    -0.285 N 
ATOM      4  H   UNL     1      -1.824  -0.060  -1.852  0.00  0.00    +0.155 HD
ENDROOT
BRANCH   3   5
ATOM      5  C   UNL     1      -3.566  -0.559  -0.865  0.00  0.00    +0.035 A 
ATOM      6  C   UNL     1      -4.487   0.090  -1.675  0.00  0.00    +0.026 A 
ATOM      7  C   UNL     1      -5.835  -0.195  -1.559  0.00  0.00    +0.042 A 
ATOM      8  C   UNL     1      -6.269  -1.127  -0.635  0.00  0.00    +0.144 A 
ATOM      9  C   UNL     1      -5.350  -1.781   0.180  0.00  0.00    +0.062 A 
ATOM     10  C   UNL     1      -3.997  -1.500   0.060  0.00  0.00    +0.049 A 
ATOM     11  F   UNL     1      -7.587  -1.404  -0.523  0.00  0.00    -0.204 F 
BRANCH   9  12
ATOM     12  N   UNL     1      -5.790  -2.723   1.115  0.00  0.00    -0.356 N 
ATOM     13  H   UNL     1      -6.736  -2.921   1.196  0.00  0.00    +0.142 HD
ATOM     14  H   UNL     1      -5.148  -3.178   1.683  0.00  0.00    +0.142 HD
ENDBRANCH   9  12
ENDBRANCH   3   5
BRANCH   1  16
ATOM     15  C   UNL     1       0.141   1.653   0.116  0.00  0.00    +0.029 C 
ATOM     16  C   UNL     1       0.034   0.132  -0.001  0.00  0.00    +0.134 C 
BRANCH  16  17
ATOM     17  S   UNL     1       0.987  -0.646   1.331  0.00  0.00    -0.113 S 
BRANCH  17  18
ATOM     18  C   UNL     1       1.007  -2.354   0.900  0.00  0.00    +0.010 A 
ATOM     19  C   UNL     1       0.466  -2.774  -0.310  0.00  0.00    +0.015 A 
ATOM     20  C   UNL     1       0.484  -4.113  -0.645  0.00  0.00    +0.002 A 
ATOM     21  C   UNL     1       1.040  -5.037   0.221  0.00  0.00    +0.015 A 
ATOM     22  C   UNL     1       1.579  -4.624   1.426  0.00  0.00    +0.019 A 
ATOM     23  C   UNL     1       1.569  -3.284   1.766  0.00  0.00    +0.030 A 
ATOM     24 BR   UNL     1       2.336  -5.893   2.607  0.00  0.00    -0.050 Br
ENDBRANCH  17  18
ENDBRANCH  16  17
ENDBRANCH   1  16
TORSDOF 5
