REMARK  Name = ZINC03144368
REMARK  10 active torsions:
REMARK  status: ('A' for Active; 'I' for Inactive)
REMARK    1  A    between atoms: C_1  and  C_2
REMARK    2  A    between atoms: C_2  and  C_3
REMARK    3  A    between atoms: C_2  and  C_4
REMARK    4  A    between atoms: C_2  and  C_5
REMARK    5  A    between atoms: C_5  and  C_7
REMARK    6  A    between atoms: C_5  and  N_22
REMARK    7  A    between atoms: C_7  and  N_9
REMARK    8  A    between atoms: C_7  and  O_14
REMARK    9  A    between atoms: O_14  and  C_15
REMARK   10  A    between atoms: N_27  and  C_33
REMARK                            x       y       z     vdW  Elec       q    Type
REMARK                         _______ _______ _______ _____ _____    ______ ____
ROOT
ATOM      1  C   UNL     1       0.812  -0.355  -0.991  0.00  0.00    +0.149 C 
ENDROOT
BRANCH   1   2
ATOM      2  N   UNL     1       0.214   0.572  -1.955  0.00  0.00    -0.366 N 
ATOM      3  C   UNL     1      -0.830   0.218  -2.629  0.00  0.00    +0.098 C 
ATOM      4  N   UNL     1      -1.509  -0.982  -2.562  0.00  0.00    -0.285 N 
ATOM      5  C   UNL     1      -2.547  -0.993  -3.410  0.00  0.00    +0.143 C 
ATOM      6  S   UNL     1      -3.610  -2.323  -3.591  0.00  0.00    -0.018 S 
ATOM      7  N   UNL     1      -2.662   0.157  -4.103  0.00  0.00    -0.269 N 
ATOM      8  C   UNL     1      -1.578   1.027  -3.655  0.00  0.00    +0.094 C 
ATOM      9  C   UNL     1      -2.113   2.337  -3.054  0.00  0.00    +0.034 C 
ATOM     10  C   UNL     1      -2.308   3.231  -4.306  0.00  0.00    +0.003 C 
ATOM     11  C   UNL     1      -1.125   2.864  -5.226  0.00  0.00    +0.003 C 
ATOM     12  C   UNL     1      -0.671   1.449  -4.814  0.00  0.00    +0.034 C 
ATOM     13  H   UNL     1      -1.266  -1.719  -1.980  0.00  0.00    +0.155 HD
ATOM     14  H   UNL     1       0.602   1.451  -2.087  0.00  0.00    +0.161 HD
BRANCH   7  15
ATOM     15  C   UNL     1      -3.635   0.460  -5.062  0.00  0.00    +0.036 A 
ATOM     16  C   UNL     1      -3.322   0.399  -6.414  0.00  0.00    +0.023 A 
ATOM     17  C   UNL     1      -4.285   0.700  -7.358  0.00  0.00    +0.002 A 
ATOM     18  C   UNL     1      -5.558   1.061  -6.958  0.00  0.00    +0.000 A 
ATOM     19  C   UNL     1      -5.872   1.123  -5.613  0.00  0.00    +0.002 A 
ATOM     20  C   UNL     1      -4.916   0.818  -4.664  0.00  0.00    +0.023 A 
ENDBRANCH   7  15
ENDBRANCH   1   2
BRANCH   1  22
ATOM     21  C   UNL     1       0.341   1.152   0.945  0.00  0.00    +0.013 C 
ATOM     22  C   UNL     1       0.086  -0.234   0.350  0.00  0.00    -0.012 C 
ATOM     23  C   UNL     1       0.607  -1.306   1.310  0.00  0.00    +0.013 C 
ATOM     24  C   UNL     1      -1.417  -0.429   0.136  0.00  0.00    +0.013 C 
ENDBRANCH   1  22
BRANCH   1  25
ATOM     25  C   UNL     1       2.291  -0.011  -0.803  0.00  0.00    +0.317 C 
BRANCH  25  26
ATOM     26  N   UNL     1       2.961  -0.007  -2.106  0.00  0.00    -0.211 N 
ATOM     27  C   UNL     1       3.679   0.996  -2.639  0.00  0.00    +0.223 A 
ATOM     28  N   UNL     1       4.110   0.608  -3.813  0.00  0.00    -0.223 NA
ATOM     29  C   UNL     1       3.688  -0.631  -4.062  0.00  0.00    +0.245 A 
ATOM     30  N   UNL     1       2.984  -1.053  -3.044  0.00  0.00    -0.155 NA
ENDBRANCH  25  26
BRANCH  25  31
ATOM     31  O   UNL     1       2.903  -0.986   0.044  0.00  0.00    -0.465 OA
BRANCH  31  32
ATOM     32  C   UNL     1       4.014  -0.602   0.725  0.00  0.00    +0.124 A 
ATOM     33  C   UNL     1       4.595  -1.460   1.647  0.00  0.00    +0.047 A 
ATOM     34  C   UNL     1       5.725  -1.067   2.338  0.00  0.00    +0.023 A 
ATOM     35  C   UNL     1       6.277   0.181   2.111  0.00  0.00    +0.041 A 
ATOM     36  C   UNL     1       5.699   1.038   1.192  0.00  0.00    +0.023 A 
ATOM     37  C   UNL     1       4.573   0.647   0.494  0.00  0.00    +0.047 A 
ATOM     38 CL   UNL     1       7.697   0.673   2.982  0.00  0.00    -0.084 Cl
ENDBRANCH  31  32
ENDBRANCH  25  31
ENDBRANCH   1  25
TORSDOF 7
