REMARK  Name = ZINC16765993
REMARK  6 active torsions:
REMARK  status: ('A' for Active; 'I' for Inactive)
REMARK    1  A    between atoms: C_6  and  C_7
REMARK    2  A    between atoms: C_16  and  C_18
REMARK    3  A    between atoms: C_18  and  O_19
REMARK    4  A    between atoms: O_19  and  C_20
REMARK    5  A    between atoms: C_20  and  C_22
REMARK    6  A    between atoms: C_24  and  N_30
REMARK                            x       y       z     vdW  Elec       q    Type
REMARK                         _______ _______ _______ _____ _____    ______ ____
ROOT
ATOM      1  C   UNL     1       2.376   1.427  -0.017  0.00  0.00    +0.014 A 
ATOM      2  C   UNL     1       1.169   2.104   0.002  0.00  0.00    +0.026 A 
ATOM      3  C   UNL     1      -0.017   1.392   0.010  0.00  0.00    +0.058 A 
ATOM      4  C   UNL     1       0.002  -0.004   0.002  0.00  0.00    +0.056 A 
ATOM      5  C   UNL     1       1.215  -0.673  -0.019  0.00  0.00    +0.037 A 
ATOM      6  C   UNL     1       2.397   0.044  -0.029  0.00  0.00    +0.057 A 
ATOM      7  N   UNL     1      -1.205  -0.711   0.022  0.00  0.00    -0.283 N 
ATOM      8  C   UNL     1      -2.370  -0.089  -0.240  0.00  0.00    +0.235 C 
ATOM      9  O   UNL     1      -3.409  -0.712  -0.176  0.00  0.00    -0.274 OA
ATOM     10  C   UNL     1      -2.399   1.371  -0.613  0.00  0.00    +0.209 C 
ATOM     11  N   UNL     1      -1.257   2.049   0.018  0.00  0.00    -0.258 N 
ATOM     12  C   UNL     1      -1.397   3.263   0.587  0.00  0.00    +0.258 C 
ATOM     13  O   UNL     1      -0.442   3.805   1.103  0.00  0.00    -0.271 OA
ATOM     14  H   UNL     1      -1.209  -1.786   0.254  0.00  0.00    +0.155 HD
ENDROOT
BRANCH   6  15
ATOM     15  C   UNL     1       3.716  -0.684  -0.054  0.00  0.00    +0.417 C 
ATOM     16  F   UNL     1       4.106  -0.898  -1.380  0.00  0.00    -0.166 F 
ATOM     17  F   UNL     1       4.686   0.084   0.600  0.00  0.00    -0.166 F 
ATOM     18  F   UNL     1       3.581  -1.915   0.597  0.00  0.00    -0.166 F 
ENDBRANCH   6  15
BRANCH  12  19
ATOM     19  C   UNL     1      -2.740   3.947   0.583  0.00  0.00    +0.328 C 
BRANCH  19  20
ATOM     20  O   UNL     1      -2.631   5.231   1.251  0.00  0.00    -0.451 OA
BRANCH  20  21
ATOM     21  C   UNL     1      -3.752   5.975   1.333  0.00  0.00    +0.360 C 
ATOM     22  O   UNL     1      -4.791   5.561   0.860  0.00  0.00    -0.243 OA
BRANCH  21  23
ATOM     23  C   UNL     1      -3.716   7.295   2.000  0.00  0.00    +0.169 A 
ATOM     24  C   UNL     1      -4.876   8.060   2.077  0.00  0.00    +0.095 A 
ATOM     25  C   UNL     1      -4.827   9.301   2.714  0.00  0.00    +0.067 A 
ATOM     26  C   UNL     1      -3.609   9.726   3.240  0.00  0.00    +0.100 A 
ATOM     27  C   UNL     1      -2.496   8.909   3.119  0.00  0.00    +0.150 A 
ATOM     28  N   UNL     1      -2.575   7.741   2.517  0.00  0.00    -0.226 NA
ATOM     29 CL   UNL     1      -0.975   9.433   3.772  0.00  0.00    -0.060 Cl
ATOM     30 CL   UNL     1      -3.486  11.264   4.037  0.00  0.00    -0.078 Cl
ATOM     31 CL   UNL     1      -6.363   7.477   1.395  0.00  0.00    -0.079 Cl
BRANCH  25  32
ATOM     32  N   UNL     1      -5.967  10.096   2.817  0.00  0.00    -0.356 N 
ATOM     33  H   UNL     1      -5.912  11.072   3.322  0.00  0.00    +0.142 HD
ATOM     34  H   UNL     1      -6.920   9.748   2.394  0.00  0.00    +0.142 HD
ENDBRANCH  25  32
ENDBRANCH  21  23
ENDBRANCH  20  21
ENDBRANCH  19  20
ENDBRANCH  12  19
TORSDOF 6
