REMARK  Name = ZINC32965358
REMARK  8 active torsions:
REMARK  status: ('A' for Active; 'I' for Inactive)
REMARK    1  A    between atoms: C_1  and  N_2
REMARK    2  A    between atoms: N_5  and  C_8
REMARK    3  A    between atoms: C_13  and  N_14
REMARK    4  A    between atoms: C_15  and  C_17
REMARK    5  A    between atoms: C_17  and  C_18
REMARK    6  A    between atoms: C_18  and  C_19
REMARK    7  A    between atoms: C_19  and  C_20
REMARK    8  A    between atoms: C_22  and  C_25
REMARK                            x       y       z     vdW  Elec       q    Type
REMARK                         _______ _______ _______ _____ _____    ______ ____
ROOT
ATOM      1  N   UNL     1       0.378  -5.247  -0.031  0.00  0.00    -0.284 N 
ATOM      2  C   UNL     1       0.009  -6.539  -0.134  0.00  0.00    +0.217 C 
ATOM      3  O   UNL     1       0.852  -7.411  -0.150  0.00  0.00    -0.275 OA
ATOM      4  H   UNL     1      -0.297  -4.556   0.062  0.00  0.00    +0.155 HD
ENDROOT
BRANCH   1  10
ATOM      5  C   UNL     1       2.168  -3.716   0.536  0.00  0.00    +0.051 A 
ATOM      6  C   UNL     1       3.514  -3.381   0.510  0.00  0.00    +0.026 A 
ATOM      7  C   UNL     1       4.422  -4.220  -0.108  0.00  0.00    +0.022 A 
ATOM      8  C   UNL     1       3.993  -5.393  -0.703  0.00  0.00    +0.043 A 
ATOM      9  C   UNL     1       2.653  -5.734  -0.682  0.00  0.00    +0.045 A 
ATOM     10  C   UNL     1       1.736  -4.901  -0.058  0.00  0.00    +0.056 A 
ATOM     11 CL   UNL     1       5.140  -6.440  -1.478  0.00  0.00    -0.083 Cl
BRANCH   5  16
ATOM     12  C   UNL     1       0.262   0.608   3.273  0.00  0.00    -0.096 C 
ATOM     13  N   UNL     1       0.221  -0.676   2.559  0.00  0.00    +0.380 N 
ATOM     14  C   UNL     1       0.719  -0.489   1.191  0.00  0.00    -0.060 C 
ATOM     15  C   UNL     1       0.570  -1.799   0.411  0.00  0.00    +0.086 C 
ATOM     16  N   UNL     1       1.246  -2.868   1.162  0.00  0.00    -0.332 N 
ATOM     17  C   UNL     1       0.926  -3.022   2.589  0.00  0.00    +0.086 C 
ATOM     18  C   UNL     1       1.058  -1.654   3.267  0.00  0.00    -0.060 C 
ATOM     19  H   UNL     1      -0.730  -1.011   2.526  0.00  0.00    -0.082 HD
ENDBRANCH   5  16
ENDBRANCH   1  10
BRANCH   2  20
ATOM     20  C   UNL     1      -1.451  -6.901  -0.230  0.00  0.00    +0.096 C 
BRANCH  20  21
ATOM     21  C   UNL     1      -1.593  -8.420  -0.338  0.00  0.00    +0.019 C 
BRANCH  21  22
ATOM     22  C   UNL     1      -3.075  -8.787  -0.435  0.00  0.00    +0.099 C 
BRANCH  22  23
ATOM     23  C   UNL     1      -3.216 -10.284  -0.541  0.00  0.00    +0.228 A 
ATOM     24  N   UNL     1      -3.345 -11.109   0.459  0.00  0.00    -0.191 NA
ATOM     25  C   UNL     1      -3.446 -12.371   0.005  0.00  0.00    +0.202 A 
ATOM     26  N   UNL     1      -3.382 -12.351  -1.304  0.00  0.00    -0.056 NA
ATOM     27  O   UNL     1      -3.236 -10.990  -1.679  0.00  0.00    -0.338 OA
BRANCH  25  28
ATOM     28  C   UNL     1      -3.605 -13.583   0.846  0.00  0.00    +0.023 A 
ATOM     29  C   UNL     1      -3.665 -13.469   2.233  0.00  0.00    +0.013 A 
ATOM     30  C   UNL     1      -3.812 -14.599   3.011  0.00  0.00    +0.021 A 
ATOM     31  C   UNL     1      -3.900 -15.846   2.415  0.00  0.00    +0.041 A 
ATOM     32  C   UNL     1      -3.840 -15.965   1.037  0.00  0.00    +0.021 A 
ATOM     33  C   UNL     1      -3.700 -14.840   0.250  0.00  0.00    +0.013 A 
ATOM     34 CL   UNL     1      -4.084 -17.264   3.398  0.00  0.00    -0.084 Cl
ENDBRANCH  25  28
ENDBRANCH  22  23
ENDBRANCH  21  22
ENDBRANCH  20  21
ENDBRANCH   2  20
TORSDOF 7
