REMARK  Name = ZINC22628451
REMARK  8 active torsions:
REMARK  status: ('A' for Active; 'I' for Inactive)
REMARK    1  A    between atoms: C_1  and  N_2
REMARK    2  A    between atoms: C_3  and  C_5
REMARK    3  A    between atoms: C_5  and  C_6
REMARK    4  A    between atoms: C_12  and  S_14
REMARK    5  A    between atoms: S_14  and  C_15
REMARK    6  A    between atoms: C_15  and  C_16
REMARK    7  A    between atoms: N_18  and  C_19
REMARK    8  A    between atoms: C_24  and  C_25
REMARK                            x       y       z     vdW  Elec       q    Type
REMARK                         _______ _______ _______ _____ _____    ______ ____
ROOT
ATOM      1  S   UNL     1       0.292  -3.334  -5.996  0.00  0.00    -0.078 S 
ENDROOT
BRANCH   1   8
ATOM      2  C   UNL     1       1.321  -2.611  -2.277  0.00  0.00    +0.058 A 
ATOM      3  C   UNL     1       2.650  -2.919  -2.228  0.00  0.00    +0.094 A 
ATOM      4  C   UNL     1       3.285  -3.377  -3.395  0.00  0.00    +0.252 A 
ATOM      5  O   UNL     1       4.472  -3.661  -3.387  0.00  0.00    -0.268 OA
ATOM      6  N   UNL     1       2.558  -3.497  -4.526  0.00  0.00    -0.302 N 
ATOM      7  H   UNL     1       2.975  -3.811  -5.343  0.00  0.00    +0.171 HD
ATOM      8  C   UNL     1       1.234  -3.175  -4.515  0.00  0.00    +0.170 A 
ATOM      9  N   UNL     1       0.645  -2.751  -3.414  0.00  0.00    -0.228 NA
BRANCH   2  10
ATOM     10  C   UNL     1       0.617  -2.119  -1.039  0.00  0.00    +0.151 C 
BRANCH  10  13
ATOM     11  C   UNL     1      -0.016   1.519  -0.027  0.00  0.00    +0.128 C 
ATOM     12  N   UNL     1       0.009   0.054  -0.024  0.00  0.00    -0.318 N 
ATOM     13  C   UNL     1       0.592  -0.612  -1.041  0.00  0.00    +0.219 C 
ATOM     14  O   UNL     1       1.096   0.002  -1.958  0.00  0.00    -0.275 OA
ATOM     15  H   UNL     1      -0.394  -0.437   0.709  0.00  0.00    +0.148 HD
ENDBRANCH  10  13
ENDBRANCH   2  10
ENDBRANCH   1   8
BRANCH   1  16
ATOM     16  C   UNL     1      -1.375  -2.807  -5.514  0.00  0.00    +0.173 C 
BRANCH  16  17
ATOM     17  C   UNL     1      -2.294  -2.896  -6.705  0.00  0.00    +0.227 C 
ATOM     18  O   UNL     1      -1.867  -3.278  -7.774  0.00  0.00    -0.275 OA
ATOM     19  N   UNL     1      -3.591  -2.552  -6.582  0.00  0.00    -0.284 N 
ATOM     20  H   UNL     1      -3.953  -2.324  -5.711  0.00  0.00    +0.155 HD
BRANCH  19  21
ATOM     21  C   UNL     1      -4.418  -2.524  -7.711  0.00  0.00    +0.045 A 
ATOM     22  C   UNL     1      -3.866  -2.335  -8.972  0.00  0.00    +0.024 A 
ATOM     23  C   UNL     1      -4.684  -2.308 -10.085  0.00  0.00    +0.002 A 
ATOM     24  C   UNL     1      -6.051  -2.467  -9.944  0.00  0.00    +0.001 A 
ATOM     25  C   UNL     1      -6.603  -2.655  -8.690  0.00  0.00    +0.014 A 
ATOM     26  C   UNL     1      -5.789  -2.690  -7.574  0.00  0.00    +0.076 A 
BRANCH  26  27
ATOM     27  C   UNL     1      -6.391  -2.902  -6.209  0.00  0.00    +0.419 C 
ATOM     28  F   UNL     1      -7.777  -3.043  -6.327  0.00  0.00    -0.166 F 
ATOM     29  F   UNL     1      -5.851  -4.059  -5.636  0.00  0.00    -0.166 F 
ATOM     30  F   UNL     1      -6.101  -1.801  -5.396  0.00  0.00    -0.166 F 
ENDBRANCH  26  27
ENDBRANCH  19  21
ENDBRANCH  16  17
ENDBRANCH   1  16
TORSDOF 7
