REMARK  Name = ZINC07469394
REMARK  6 active torsions:
REMARK  status: ('A' for Active; 'I' for Inactive)
REMARK    1  A    between atoms: C_1  and  C_2
REMARK    2  A    between atoms: C_3  and  C_23
REMARK    3  A    between atoms: C_7  and  N_11
REMARK    4  A    between atoms: C_16  and  C_17
REMARK    5  A    between atoms: C_16  and  N_47
REMARK    6  A    between atoms: N_19  and  C_20
REMARK                            x       y       z     vdW  Elec       q    Type
REMARK                         _______ _______ _______ _____ _____    ______ ____
ROOT
ATOM      1  N   UNL     1       1.529  -2.073  -0.350  0.00  0.00    -0.318 N 
ATOM      2  C   UNL     1       2.387  -2.562  -1.439  0.00  0.00    +0.088 C 
ATOM      3  C   UNL     1       2.439  -4.091  -1.396  0.00  0.00    -0.059 C 
ATOM      4  C   UNL     1       0.218  -4.139  -0.433  0.00  0.00    -0.059 C 
ATOM      5  C   UNL     1       0.167  -2.610  -0.476  0.00  0.00    +0.088 C 
ATOM      6  N   UNL     1       1.066  -4.619  -1.545  0.00  0.00    +0.387 N 
ATOM      7  H   UNL     1       0.674  -4.282  -2.433  0.00  0.00    -0.081 HD
ENDROOT
BRANCH   1  14
ATOM      8  C   UNL     1       2.715  -2.002   2.264  0.00  0.00    +0.045 C 
ATOM      9  C   UNL     1       2.587  -0.516   2.052  0.00  0.00    -0.028 A 
ATOM     10  C   UNL     1       2.998   0.343   2.997  0.00  0.00    -0.008 A 
ATOM     11  S   UNL     1       2.643   1.941   2.292  0.00  0.00    -0.074 S 
ATOM     12  C   UNL     1       1.952   1.413   0.746  0.00  0.00    +0.114 A 
ATOM     13  C   UNL     1       2.017   0.004   0.822  0.00  0.00    +0.051 A 
ATOM     14  C   UNL     1       1.515  -0.690  -0.314  0.00  0.00    +0.133 A 
ATOM     15  N   UNL     1       1.036   0.002  -1.334  0.00  0.00    -0.220 NA
ATOM     16  C   UNL     1       1.006   1.323  -1.336  0.00  0.00    +0.224 A 
ATOM     17  N   UNL     1       1.457   2.023  -0.313  0.00  0.00    -0.228 NA
ATOM     18  C   UNL     1       3.613   0.030   4.337  0.00  0.00    +0.052 C 
ENDBRANCH   1  14
BRANCH   6  19
ATOM     19  C   UNL     1       1.091  -6.097  -1.561  0.00  0.00    +0.019 C 
BRANCH  19  20
ATOM     20  C   UNL     1       1.772  -6.559  -2.823  0.00  0.00    +0.197 C 
ATOM     21  O   UNL     1       2.204  -5.745  -3.612  0.00  0.00    -0.278 OA
ATOM     22  N   UNL     1       1.903  -7.876  -3.075  0.00  0.00    -0.314 N 
ATOM     23  H   UNL     1       1.558  -8.527  -2.443  0.00  0.00    +0.149 HD
BRANCH  22  24
ATOM     24  C   UNL     1       2.565  -8.325  -4.302  0.00  0.00    +0.073 C 
ATOM     25  C   UNL     1       1.913  -9.472  -5.078  0.00  0.00    +0.024 C 
ATOM     26  C   UNL     1       3.204  -9.716  -4.292  0.00  0.00    +0.024 C 
ENDBRANCH  22  24
ENDBRANCH  19  20
ENDBRANCH   6  19
TORSDOF 4
