REMARK  Name = ZINC06748356
REMARK  3 active torsions:
REMARK  status: ('A' for Active; 'I' for Inactive)
REMARK    1  A    between atoms: C_1  and  C_2
REMARK    2  A    between atoms: C_6  and  C_7
REMARK    3  A    between atoms: N_9  and  C_10
REMARK                            x       y       z     vdW  Elec       q    Type
REMARK                         _______ _______ _______ _____ _____    ______ ____
ROOT
ATOM      1  C   UNL     1      -3.272   0.219  -0.454  0.00  0.00    +0.048 C 
ATOM      2  C   UNL     1      -2.430  -0.999  -0.176  0.00  0.00    +0.009 A 
ATOM      3  C   UNL     1      -1.048  -1.038   0.001  0.00  0.00    +0.045 A 
ATOM      4  C   UNL     1      -0.696  -2.349   0.256  0.00  0.00    +0.116 A 
ATOM      5  O   UNL     1      -1.803  -3.083   0.203  0.00  0.00    -0.454 OA
ATOM      6  C   UNL     1      -2.869  -2.289  -0.047  0.00  0.00    +0.193 A 
ATOM      7  C   UNL     1       0.720  -2.760   0.564  0.00  0.00    +0.080 C 
ATOM      8  C   UNL     1       1.729  -1.867  -0.159  0.00  0.00    +0.046 C 
ATOM      9  C   UNL     1       1.326  -0.419  -0.096  0.00  0.00    -0.002 A 
ATOM     10  C   UNL     1       0.006  -0.009  -0.041  0.00  0.00    +0.072 A 
ATOM     11  N   UNL     1      -0.011   1.332  -0.036  0.00  0.00    -0.277 N 
ATOM     12  H   UNL     1      -0.825   1.913  -0.021  0.00  0.00    +0.189 HD
ATOM     13  N   UNL     1       1.324   1.773  -0.057  0.00  0.00    -0.181 NA
ATOM     14  C   UNL     1       2.111   0.723  -0.094  0.00  0.00    +0.138 A 
ENDROOT
BRANCH   6  15
ATOM     15  C   UNL     1      -4.262  -2.735  -0.160  0.00  0.00    +0.284 C 
ATOM     16  O   UNL     1      -5.143  -1.927  -0.388  0.00  0.00    -0.266 OA
ATOM     17  N   UNL     1      -4.566  -4.040  -0.012  0.00  0.00    -0.278 N 
ATOM     18  H   UNL     1      -3.858  -4.692   0.104  0.00  0.00    +0.155 HD
BRANCH  17  19
ATOM     19  C   UNL     1      -5.902  -4.452  -0.026  0.00  0.00    +0.048 A 
ATOM     20  C   UNL     1      -6.822  -3.807  -0.843  0.00  0.00    +0.024 A 
ATOM     21  C   UNL     1      -8.139  -4.220  -0.858  0.00  0.00    +0.002 A 
ATOM     22  C   UNL     1      -8.547  -5.269  -0.054  0.00  0.00    +0.001 A 
ATOM     23  C   UNL     1      -7.636  -5.910   0.764  0.00  0.00    +0.017 A 
ATOM     24  C   UNL     1      -6.314  -5.505   0.781  0.00  0.00    +0.039 A 
ATOM     25 BR   UNL     1      -5.069  -6.383   1.902  0.00  0.00    -0.048 Br
ENDBRANCH  17  19
ENDBRANCH   6  15
TORSDOF 2
