REMARK  Name = ZINC19641695
REMARK  9 active torsions:
REMARK  status: ('A' for Active; 'I' for Inactive)
REMARK    1  A    between atoms: C_1  and  C_2
REMARK    2  A    between atoms: C_2  and  C_3
REMARK    3  A    between atoms: C_10  and  N_18
REMARK    4  A    between atoms: C_11  and  C_12
REMARK    5  A    between atoms: N_14  and  C_15
REMARK    6  A    between atoms: C_19  and  C_21
REMARK    7  A    between atoms: C_24  and  C_33
REMARK    8  A    between atoms: C_25  and  C_32
REMARK    9  A    between atoms: C_27  and  C_29
REMARK                            x       y       z     vdW  Elec       q    Type
REMARK                         _______ _______ _______ _____ _____    ______ ____
ROOT
ATOM      1  C   UNL     1      -3.186   4.165  -3.439  0.00  0.00    -0.006 C 
ATOM      2  C   UNL     1      -1.660   4.082  -3.538  0.00  0.00    +0.008 C 
ATOM      3  C   UNL     1      -1.138   2.980  -2.614  0.00  0.00    +0.037 C 
ATOM      4  C   UNL     1      -1.698   3.210  -1.216  0.00  0.00    -0.023 A 
ATOM      5  C   UNL     1      -2.780   3.993  -1.019  0.00  0.00    -0.004 A 
ATOM      6  S   UNL     1      -3.057   3.954   0.729  0.00  0.00    -0.077 S 
ATOM      7  C   UNL     1      -1.757   2.906   1.194  0.00  0.00    +0.084 A 
ATOM      8  C   UNL     1      -1.141   2.611  -0.014  0.00  0.00    +0.069 A 
ATOM      9  C   UNL     1      -3.562   4.731  -2.062  0.00  0.00    +0.046 C 
ENDROOT
BRANCH   8  10
ATOM     10  C   UNL     1       0.032   1.734  -0.075  0.00  0.00    +0.247 C 
ATOM     11  O   UNL     1      -0.113   0.534  -0.219  0.00  0.00    -0.270 OA
ATOM     12  N   UNL     1       1.270   2.256   0.023  0.00  0.00    -0.308 N 
ATOM     13  H   UNL     1       1.401   3.340   0.153  0.00  0.00    +0.149 HD
BRANCH  12  14
ATOM     14  C   UNL     1       2.442   1.380  -0.044  0.00  0.00    +0.073 C 
ATOM     15  C   UNL     1       3.568   1.628   0.961  0.00  0.00    +0.024 C 
ATOM     16  C   UNL     1       3.762   1.999  -0.510  0.00  0.00    +0.024 C 
ENDBRANCH  12  14
ENDBRANCH   8  10
BRANCH   7  17
ATOM     17  N   UNL     1      -1.416   2.468   2.464  0.00  0.00    -0.279 N 
ATOM     18  C   UNL     1      -2.140   2.864   3.530  0.00  0.00    +0.222 C 
ATOM     19  O   UNL     1      -3.089   3.603   3.378  0.00  0.00    -0.275 OA
ATOM     20  H   UNL     1      -0.555   1.798   2.602  0.00  0.00    +0.155 HD
BRANCH  18  21
ATOM     21  C   UNL     1      -1.769   2.388   4.911  0.00  0.00    +0.093 C 
ATOM     22  C   UNL     1      -0.355   2.862   5.256  0.00  0.00    +0.044 C 
ATOM     23  C   UNL     1      -0.073   2.628   6.712  0.00  0.00    -0.073 C 
ATOM     24  C   UNL     1      -0.986   2.406   7.601  0.00  0.00    -0.073 C 
ATOM     25  C   UNL     1      -2.455   2.341   7.300  0.00  0.00    +0.046 C 
ATOM     26  C   UNL     1      -2.743   2.978   5.939  0.00  0.00    +0.118 C 
ATOM     27  C   UNL     1      -0.548   2.201   9.028  0.00  0.00    +0.039 C 
ATOM     28  C   UNL     1       1.364   2.655   7.165  0.00  0.00    +0.039 C 
BRANCH  26  29
ATOM     29  C   UNL     1      -4.160   2.674   5.527  0.00  0.00    +0.360 C 
ATOM     30  O   UNL     1      -4.374   2.049   4.515  0.00  0.00    -0.246 OA
ATOM     31  O   UNL     1      -5.184   3.097   6.284  0.00  0.00    -0.246 OA
ENDBRANCH  26  29
ENDBRANCH  18  21
ENDBRANCH   7  17
BRANCH   1  33
ATOM     32  C   UNL     1      -5.252   5.084  -4.503  0.00  0.00    +0.004 C 
ATOM     33  C   UNL     1      -3.722   5.087  -4.536  0.00  0.00    +0.000 C 
ENDBRANCH   1  33
TORSDOF 6
