REMARK  Name = ZINC44546613
REMARK  9 active torsions:
REMARK  status: ('A' for Active; 'I' for Inactive)
REMARK    1  A    between atoms: C_13  and  C_14
REMARK    2  A    between atoms: C_14  and  O_15
REMARK    3  A    between atoms: O_15  and  C_16
REMARK    4  A    between atoms: N_18  and  C_19
REMARK    5  A    between atoms: C_19  and  C_21
REMARK    6  A    between atoms: C_19  and  C_25
REMARK    7  A    between atoms: C_21  and  C_22
REMARK    8  A    between atoms: C_28  and  C_30
REMARK    9  A    between atoms: C_30  and  O_31
REMARK                            x       y       z     vdW  Elec       q    Type
REMARK                         _______ _______ _______ _____ _____    ______ ____
ROOT
ATOM      1  C   UNL     1       6.330  -1.739  -2.256  0.00  0.00    +0.401 C 
ATOM      2  O   UNL     1       6.125  -0.898  -3.109  0.00  0.00    -0.226 OA
ATOM      3  N   UNL     1       7.435  -2.508  -2.319  0.00  0.00    -0.271 N 
ATOM      4  H   UNL     1       7.635  -3.130  -1.602  0.00  0.00    +0.153 HD
ENDROOT
BRANCH   1   5
ATOM      5  O   UNL     1       5.453  -1.902  -1.247  0.00  0.00    -0.449 OA
BRANCH   5   6
ATOM      6  C   UNL     1       4.304  -1.052  -1.243  0.00  0.00    +0.246 C 
BRANCH   6  19
ATOM      7  C   UNL     1      -0.168   0.880   0.159  0.00  0.00    +0.001 A 
ATOM      8  C   UNL     1       1.006   1.605   0.258  0.00  0.00    +0.000 A 
ATOM      9  C   UNL     1       2.228   0.957   0.206  0.00  0.00    +0.005 A 
ATOM     10  C   UNL     1       2.277  -0.413   0.057  0.00  0.00    -0.029 A 
ATOM     11  C   UNL     1       1.101  -1.151  -0.043  0.00  0.00    -0.014 A 
ATOM     12  C   UNL     1      -0.128  -0.491   0.009  0.00  0.00    +0.009 A 
ATOM     13  C   UNL     1       1.432  -2.590  -0.196  0.00  0.00    -0.014 A 
ATOM     14  C   UNL     1       0.613  -3.712  -0.332  0.00  0.00    +0.009 A 
ATOM     15  C   UNL     1       1.176  -4.964  -0.461  0.00  0.00    +0.001 A 
ATOM     16  C   UNL     1       2.552  -5.114  -0.455  0.00  0.00    +0.000 A 
ATOM     17  C   UNL     1       3.369  -4.006  -0.320  0.00  0.00    +0.005 A 
ATOM     18  C   UNL     1       2.814  -2.750  -0.191  0.00  0.00    -0.029 A 
ATOM     19  C   UNL     1       3.430  -1.382  -0.031  0.00  0.00    +0.088 C 
ENDBRANCH   6  19
ENDBRANCH   5   6
ENDBRANCH   1   5
BRANCH   3  20
ATOM     20  C   UNL     1       8.333  -2.406  -3.472  0.00  0.00    +0.153 C 
BRANCH  20  21
ATOM     21  C   UNL     1       7.780  -3.219  -4.614  0.00  0.00    +0.126 A 
ATOM     22  C   UNL     1       7.793  -2.864  -5.911  0.00  0.00    +0.047 A 
ATOM     23  C   UNL     1       7.176  -3.914  -6.629  0.00  0.00    +0.047 A 
ATOM     24  C   UNL     1       6.822  -4.847  -5.728  0.00  0.00    +0.131 A 
ATOM     25  O   UNL     1       7.196  -4.424  -4.509  0.00  0.00    -0.460 OA
BRANCH  24  26
ATOM     26  C   UNL     1       6.128  -6.150  -6.034  0.00  0.00    +0.230 C 
BRANCH  26  27
ATOM     27  O   UNL     1       7.106  -7.163  -6.283  0.00  0.00    -0.387 OA
ATOM     28  H   UNL     1       6.730  -8.030  -6.487  0.00  0.00    +0.210 HD
ENDBRANCH  26  27
ENDBRANCH  24  26
ENDBRANCH  20  21
BRANCH  20  29
ATOM     29  C   UNL     1       9.716  -2.938  -3.089  0.00  0.00    +0.155 C 
BRANCH  29  30
ATOM     30  C   UNL     1      10.327  -2.043  -2.042  0.00  0.00    +0.358 C 
ATOM     31  O   UNL     1       9.760  -1.015  -1.713  0.00  0.00    -0.246 OA
ATOM     32  O   UNL     1      11.388  -2.346  -1.525  0.00  0.00    -0.246 OA
ENDBRANCH  29  30
ENDBRANCH  20  29
ENDBRANCH   3  20
TORSDOF 9
