REMARK  Name = ZINC02778639
REMARK  8 active torsions:
REMARK  status: ('A' for Active; 'I' for Inactive)
REMARK    1  A    between atoms: C_1  and  N_2
REMARK    2  A    between atoms: C_5  and  C_7
REMARK    3  A    between atoms: N_9  and  C_10
REMARK    4  A    between atoms: C_10  and  C_11
REMARK    5  A    between atoms: C_11  and  C_12
REMARK    6  A    between atoms: C_12  and  N_13
REMARK    7  A    between atoms: C_14  and  C_23
REMARK    8  A    between atoms: C_16  and  C_18
REMARK                            x       y       z     vdW  Elec       q    Type
REMARK                         _______ _______ _______ _____ _____    ______ ____
ROOT
ATOM      1  C   UNL     1       4.581   1.913  -0.012  0.00  0.00    +0.145 C 
ENDROOT
BRANCH   1   2
ATOM      2  N   UNL     1       5.864   2.620  -0.031  0.00  0.00    -0.266 N 
ATOM      3  C   UNL     1       6.614   2.935   1.047  0.00  0.00    +0.061 A 
ATOM      4  C   UNL     1       7.719   3.581   0.606  0.00  0.00    +0.094 A 
ATOM      5  C   UNL     1       7.641   3.663  -0.789  0.00  0.00    +0.184 A 
ATOM      6  N   UNL     1       6.533   3.083  -1.172  0.00  0.00    -0.165 NA
ATOM      7 CL   UNL     1       9.004   4.199   1.596  0.00  0.00    -0.079 Cl
BRANCH   5   8
ATOM      8  C   UNL     1       8.662   4.304  -1.694  0.00  0.00    +0.437 C 
ATOM      9  F   UNL     1       9.610   3.350  -2.078  0.00  0.00    -0.164 F 
ATOM     10  F   UNL     1       8.023   4.810  -2.831  0.00  0.00    -0.164 F 
ATOM     11  F   UNL     1       9.299   5.348  -1.014  0.00  0.00    -0.164 F 
ENDBRANCH   5   8
BRANCH   3  12
ATOM     12  C   UNL     1       6.280   2.623   2.483  0.00  0.00    +0.039 C 
ATOM     13  C   UNL     1       7.040   3.390   3.567  0.00  0.00    +0.010 C 
ATOM     14  C   UNL     1       7.347   1.912   3.318  0.00  0.00    +0.010 C 
ENDBRANCH   3  12
ENDBRANCH   1   2
BRANCH   1  15
ATOM     15  C   UNL     1       3.442   2.927   0.108  0.00  0.00    +0.042 C 
BRANCH  15  16
ATOM     16  C   UNL     1       2.102   2.189   0.128  0.00  0.00    +0.106 C 
BRANCH  16  19
ATOM     17  C   UNL     1      -0.268   2.736   0.280  0.00  0.00    +0.265 C 
ATOM     18  O   UNL     1      -0.516   1.547   0.218  0.00  0.00    -0.268 OA
ATOM     19  N   UNL     1       1.011   3.160   0.243  0.00  0.00    -0.310 N 
ATOM     20  H   UNL     1       1.236   4.235   0.300  0.00  0.00    +0.149 HD
BRANCH  17  25
ATOM     21  C   UNL     1      -2.645   7.015   0.651  0.00  0.00    +0.172 C 
ATOM     22  N   UNL     1      -2.404   5.573   0.552  0.00  0.00    -0.273 N 
ATOM     23  C   UNL     1      -3.372   4.624   0.536  0.00  0.00    +0.124 A 
ATOM     24  C   UNL     1      -2.752   3.424   0.434  0.00  0.00    +0.068 A 
ATOM     25  C   UNL     1      -1.367   3.715   0.390  0.00  0.00    +0.161 A 
ATOM     26  N   UNL     1      -1.245   5.025   0.471  0.00  0.00    -0.166 NA
ATOM     27 BR   UNL     1      -3.565   1.718   0.366  0.00  0.00    -0.046 Br
ENDBRANCH  17  25
ENDBRANCH  16  19
ENDBRANCH  15  16
ENDBRANCH   1  15
TORSDOF 7
