REMARK  Name = ZINC34962832
REMARK  2 active torsions:
REMARK  status: ('A' for Active; 'I' for Inactive)
REMARK    1  A    between atoms: C_3  and  C_6
REMARK    2  A    between atoms: C_6  and  C_7
REMARK                            x       y       z     vdW  Elec       q    Type
REMARK                         _______ _______ _______ _____ _____    ______ ____
ROOT
ATOM      1  C   UNL     1       4.247   2.008   1.393  0.00  0.00    +0.144 A 
ATOM      2  N   UNL     1       4.135   3.082   2.130  0.00  0.00    -0.133 NA
ATOM      3  N   UNL     1       4.655   2.884   3.292  0.00  0.00    -0.129 NA
ATOM      4  C   UNL     1       5.133   1.657   3.357  0.00  0.00    +0.165 A 
ATOM      5  N   UNL     1       4.878   1.063   2.140  0.00  0.00    -0.269 N 
ATOM      6  C   UNL     1       5.263  -0.223   1.927  0.00  0.00    +0.208 A 
ATOM      7  N   UNL     1       5.870  -0.905   2.858  0.00  0.00    -0.225 NA
ATOM      8  C   UNL     1       6.141  -0.382   4.059  0.00  0.00    +0.134 A 
ATOM      9  C   UNL     1       5.793   0.903   4.348  0.00  0.00    +0.088 A 
ATOM     10 CL   UNL     1       6.952  -1.344   5.255  0.00  0.00    -0.062 Cl
ENDROOT
BRANCH   1  11
ATOM     11  C   UNL     1       3.761   1.845  -0.024  0.00  0.00    +0.119 C 
BRANCH  11  14
ATOM     12  C   UNL     1      -0.016   1.351   0.009  0.00  0.00    +0.008 A 
ATOM     13  C   UNL     1       1.183   2.038   0.002  0.00  0.00    +0.011 A 
ATOM     14  C   UNL     1       2.343   1.336  -0.013  0.00  0.00    -0.003 A 
ATOM     15  S   UNL     1       1.754  -0.349  -0.017  0.00  0.00    -0.101 S 
ATOM     16  C   UNL     1       0.002  -0.004   0.002  0.00  0.00    +0.045 A 
ENDBRANCH  11  14
ENDBRANCH   1  11
TORSDOF 2
