REMARK  Name = ZINC16005153
REMARK  7 active torsions:
REMARK  status: ('A' for Active; 'I' for Inactive)
REMARK    1  A    between atoms: C_1  and  C_2
REMARK    2  A    between atoms: C_2  and  C_24
REMARK    3  A    between atoms: N_5  and  C_9
REMARK    4  A    between atoms: C_9  and  C_10
REMARK    5  A    between atoms: N_12  and  C_13
REMARK    6  A    between atoms: C_16  and  O_20
REMARK    7  A    between atoms: O_20  and  C_21
REMARK                            x       y       z     vdW  Elec       q    Type
REMARK                         _______ _______ _______ _____ _____    ______ ____
ROOT
ATOM      1  C   UNL     1      -0.018   1.503   0.017  0.00  0.00    +0.214 C 
ENDROOT
BRANCH   1   6
ATOM      2  C   UNL     1       3.644   4.215  -1.119  0.00  0.00    +0.047 C 
ATOM      3  C   UNL     1       3.405   2.778  -0.653  0.00  0.00    +0.135 C 
ATOM      4  C   UNL     1       2.050   2.284  -1.119  0.00  0.00    +0.251 C 
ATOM      5  O   UNL     1       1.670   2.162  -2.264  0.00  0.00    -0.272 OA
ATOM      6  N   UNL     1       1.356   2.010   0.003  0.00  0.00    -0.215 N 
ATOM      7  C   UNL     1       2.075   2.264   1.102  0.00  0.00    +0.310 C 
ATOM      8  O   UNL     1       1.661   2.098   2.233  0.00  0.00    -0.252 OA
ATOM      9  N   UNL     1       3.308   2.719   0.816  0.00  0.00    -0.281 N 
ATOM     10  H   UNL     1       3.998   2.964   1.453  0.00  0.00    +0.152 HD
BRANCH   3  11
ATOM     11  C   UNL     1       4.500   1.869  -1.149  0.00  0.00    -0.016 A 
ATOM     12  C   UNL     1       4.343   1.183  -2.339  0.00  0.00    +0.006 A 
ATOM     13  C   UNL     1       5.349   0.354  -2.797  0.00  0.00    +0.000 A 
ATOM     14  C   UNL     1       6.508   0.201  -2.059  0.00  0.00    +0.000 A 
ATOM     15  C   UNL     1       6.663   0.882  -0.866  0.00  0.00    +0.000 A 
ATOM     16  C   UNL     1       5.659   1.716  -0.411  0.00  0.00    +0.006 A 
ENDBRANCH   3  11
ENDBRANCH   1   6
BRANCH   1  17
ATOM     17  C   UNL     1       0.002  -0.004   0.000  0.00  0.00    +0.235 C 
ATOM     18  O   UNL     1       1.060  -0.596  -0.022  0.00  0.00    -0.274 OA
ATOM     19  N   UNL     1      -1.156  -0.694   0.009  0.00  0.00    -0.284 N 
ATOM     20  H   UNL     1      -2.000  -0.224   0.095  0.00  0.00    +0.155 HD
BRANCH  19  21
ATOM     21  C   UNL     1      -1.140  -2.090  -0.104  0.00  0.00    +0.035 A 
ATOM     22  C   UNL     1      -0.112  -2.822   0.474  0.00  0.00    +0.027 A 
ATOM     23  C   UNL     1      -0.097  -4.199   0.362  0.00  0.00    +0.049 A 
ATOM     24  C   UNL     1      -1.108  -4.850  -0.328  0.00  0.00    +0.145 A 
ATOM     25  C   UNL     1      -2.136  -4.120  -0.906  0.00  0.00    +0.084 A 
ATOM     26  C   UNL     1      -2.156  -2.743  -0.789  0.00  0.00    +0.047 A 
ATOM     27 CL   UNL     1      -3.402  -4.936  -1.769  0.00  0.00    -0.080 Cl
BRANCH  24  28
ATOM     28  O   UNL     1      -1.092  -6.206  -0.437  0.00  0.00    -0.433 OA
BRANCH  28  29
ATOM     29  C   UNL     1      -0.004  -6.894   0.183  0.00  0.00    +0.541 C 
ATOM     30  F   UNL     1       1.202  -6.458  -0.375  0.00  0.00    -0.166 F 
ATOM     31  F   UNL     1      -0.006  -6.628   1.557  0.00  0.00    -0.166 F 
ENDBRANCH  28  29
ENDBRANCH  24  28
ENDBRANCH  19  21
ENDBRANCH   1  17
TORSDOF 6
