REMARK  Name = ZINC07005675
REMARK  2 active torsions:
REMARK  status: ('A' for Active; 'I' for Inactive)
REMARK    1  A    between atoms: C_4  and  C_11
REMARK    2  A    between atoms: C_11  and  N_12
REMARK                            x       y       z     vdW  Elec       q    Type
REMARK                         _______ _______ _______ _____ _____    ______ ____
ROOT
ATOM      1  N   UNL     1       0.002  -0.004   0.002  0.00  0.00    -0.220 N 
ATOM      2  C   UNL     1       0.987  -0.752   0.542  0.00  0.00    +0.247 C 
ATOM      3  O   UNL     1       1.985  -0.357   1.105  0.00  0.00    -0.273 OA
ATOM      4  C   UNL     1       0.582  -2.187   0.299  0.00  0.00    +0.113 C 
ATOM      5  C   UNL     1       1.615  -2.931  -0.497  0.00  0.00    +0.035 C 
ATOM      6  C   UNL     1       0.979  -3.939  -1.478  0.00  0.00    +0.003 C 
ATOM      7  C   UNL     1      -0.205  -4.707  -0.858  0.00  0.00    +0.000 C 
ATOM      8  C   UNL     1       0.060  -5.129   0.561  0.00  0.00    +0.000 C 
ATOM      9  C   UNL     1      -0.519  -4.058   1.507  0.00  0.00    +0.003 C 
ATOM     10  C   UNL     1       0.360  -2.905   1.644  0.00  0.00    +0.035 C 
ATOM     11  N   UNL     1      -0.694  -2.083  -0.421  0.00  0.00    -0.285 N 
ATOM     12  C   UNL     1      -0.952  -0.767  -0.547  0.00  0.00    +0.310 C 
ATOM     13  O   UNL     1      -1.939  -0.321  -1.098  0.00  0.00    -0.252 OA
ATOM     14  H   UNL     1      -1.241  -2.816  -0.742  0.00  0.00    +0.151 HD
ENDROOT
BRANCH   1  15
ATOM     15  C   UNL     1      -0.018   1.461   0.010  0.00  0.00    +0.157 C 
BRANCH  15  19
ATOM     16  C   UNL     1      -2.018   2.841   3.527  0.00  0.00    +0.029 A 
ATOM     17  C   UNL     1      -2.689   2.802   2.317  0.00  0.00    +0.042 A 
ATOM     18  C   UNL     1      -2.039   2.361   1.178  0.00  0.00    +0.028 A 
ATOM     19  C   UNL     1      -0.723   1.947   1.250  0.00  0.00    +0.014 A 
ATOM     20  C   UNL     1      -0.049   1.984   2.462  0.00  0.00    +0.134 A 
ATOM     21  C   UNL     1      -0.699   2.434   3.601  0.00  0.00    +0.022 A 
ATOM     22  C   UNL     1       0.025   2.487   4.923  0.00  0.00    +0.202 C 
ATOM     23  O   UNL     1       1.209   1.688   4.846  0.00  0.00    -0.339 OA
ATOM     24  C   UNL     1       1.994   1.961   3.679  0.00  0.00    +0.394 C 
ATOM     25  O   UNL     1       1.246   1.572   2.524  0.00  0.00    -0.466 OA
ATOM     26 CL   UNL     1      -4.345   3.313   2.228  0.00  0.00    -0.084 Cl
ENDBRANCH  15  19
ENDBRANCH   1  15
TORSDOF 2
