REMARK  Name = ZINC08868219
REMARK  7 active torsions:
REMARK  status: ('A' for Active; 'I' for Inactive)
REMARK    1  A    between atoms: C_1  and  C_2
REMARK    2  A    between atoms: C_5  and  N_23
REMARK    3  A    between atoms: N_13  and  S_14
REMARK    4  A    between atoms: S_14  and  C_17
REMARK    5  A    between atoms: N_23  and  C_24
REMARK    6  A    between atoms: N_23  and  S_30
REMARK    7  A    between atoms: S_30  and  C_33
REMARK                            x       y       z     vdW  Elec       q    Type
REMARK                         _______ _______ _______ _____ _____    ______ ____
ROOT
ATOM      1  C   UNL     1      -3.575  -1.419  -1.473  0.00  0.00    +0.030 C 
ATOM      2  C   UNL     1      -3.509  -0.537  -2.722  0.00  0.00    +0.097 C 
ATOM      3  C   UNL     1      -2.626   0.687  -2.449  0.00  0.00    +0.053 C 
ATOM      4  C   UNL     1      -1.247   0.209  -1.994  0.00  0.00    +0.131 C 
ATOM      5  C   UNL     1      -0.696  -0.806  -2.960  0.00  0.00    -0.003 A 
ATOM      6  C   UNL     1       0.669  -1.039  -2.980  0.00  0.00    +0.007 A 
ATOM      7  C   UNL     1       1.205  -1.966  -3.853  0.00  0.00    +0.000 A 
ATOM      8  C   UNL     1       0.381  -2.668  -4.713  0.00  0.00    +0.002 A 
ATOM      9  C   UNL     1      -0.981  -2.441  -4.701  0.00  0.00    +0.025 A 
ATOM     10  C   UNL     1      -1.522  -1.507  -3.824  0.00  0.00    +0.057 A 
ATOM     11  N   UNL     1      -2.904  -1.289  -3.830  0.00  0.00    -0.200 N 
ENDROOT
BRANCH  11  12
ATOM     12  S   UNL     1      -3.842  -1.868  -5.066  0.00  0.00    +0.075 S 
ATOM     13  O   UNL     1      -5.064  -1.144  -5.021  0.00  0.00    -0.150 OA
ATOM     14  O   UNL     1      -3.017  -1.899  -6.222  0.00  0.00    -0.150 OA
BRANCH  12  15
ATOM     15  C   UNL     1      -4.235  -3.542  -4.681  0.00  0.00    +0.109 A 
ATOM     16  C   UNL     1      -3.408  -4.562  -5.112  0.00  0.00    +0.029 A 
ATOM     17  C   UNL     1      -3.713  -5.875  -4.806  0.00  0.00    +0.002 A 
ATOM     18  C   UNL     1      -4.851  -6.169  -4.079  0.00  0.00    +0.000 A 
ATOM     19  C   UNL     1      -5.681  -5.149  -3.652  0.00  0.00    +0.002 A 
ATOM     20  C   UNL     1      -5.373  -3.836  -3.954  0.00  0.00    +0.029 A 
ENDBRANCH  12  15
ENDBRANCH  11  12
BRANCH   4  21
ATOM     21  N   UNL     1      -0.337   1.355  -1.925  0.00  0.00    -0.196 N 
BRANCH  21  22
ATOM     22  C   UNL     1      -0.167   2.180  -3.039  0.00  0.00    +0.052 A 
ATOM     23  C   UNL     1      -0.368   1.674  -4.317  0.00  0.00    +0.025 A 
ATOM     24  C   UNL     1      -0.203   2.494  -5.417  0.00  0.00    +0.002 A 
ATOM     25  C   UNL     1       0.171   3.814  -5.247  0.00  0.00    +0.000 A 
ATOM     26  C   UNL     1       0.377   4.320  -3.976  0.00  0.00    +0.002 A 
ATOM     27  C   UNL     1       0.209   3.507  -2.872  0.00  0.00    +0.025 A 
ENDBRANCH  21  22
BRANCH  21  28
ATOM     28  S   UNL     1       0.491   1.673  -0.526  0.00  0.00    +0.075 S 
ATOM     29  O   UNL     1       0.662   0.427   0.136  0.00  0.00    -0.150 OA
ATOM     30  O   UNL     1       1.587   2.504  -0.882  0.00  0.00    -0.150 OA
BRANCH  28  31
ATOM     31  C   UNL     1      -0.567   2.644   0.495  0.00  0.00    +0.109 A 
ATOM     32  C   UNL     1      -0.452   4.021   0.497  0.00  0.00    +0.029 A 
ATOM     33  C   UNL     1      -1.284   4.784   1.295  0.00  0.00    +0.002 A 
ATOM     34  C   UNL     1      -2.225   4.168   2.099  0.00  0.00    +0.000 A 
ATOM     35  C   UNL     1      -2.336   2.790   2.102  0.00  0.00    +0.002 A 
ATOM     36  C   UNL     1      -1.507   2.028   1.300  0.00  0.00    +0.029 A 
ENDBRANCH  28  31
ENDBRANCH  21  28
ENDBRANCH   4  21
TORSDOF 6
