REMARK  Name = ZINC63684370
REMARK  11 active torsions:
REMARK  status: ('A' for Active; 'I' for Inactive)
REMARK    1  A    between atoms: C_1  and  C_2
REMARK    2  A    between atoms: C_2  and  N_3
REMARK    3  A    between atoms: N_3  and  C_4
REMARK    4  A    between atoms: C_4  and  C_5
REMARK    5  A    between atoms: C_6  and  C_8
REMARK    6  A    between atoms: C_8  and  S_9
REMARK    7  A    between atoms: S_9  and  C_10
REMARK    8  A    between atoms: C_14  and  C_17
REMARK    9  A    between atoms: C_17  and  C_19
REMARK   10  A    between atoms: C_17  and  N_29
REMARK   11  A    between atoms: C_19  and  C_20
REMARK                            x       y       z     vdW  Elec       q    Type
REMARK                         _______ _______ _______ _____ _____    ______ ____
ROOT
ATOM      1  C   UNL     1      -3.930  -0.540  -3.862  0.00  0.00    +0.263 C 
ATOM      2  N   UNL     1      -4.520  -1.349  -2.764  0.00  0.00    -0.218 NA
ATOM      3  N   UNL     1      -5.715  -0.567  -2.405  0.00  0.00    -0.228 NA
ATOM      4  C   UNL     1      -5.277   0.838  -2.569  0.00  0.00    +0.188 C 
ATOM      5  O   UNL     1      -4.160   0.827  -3.475  0.00  0.00    -0.334 OA
ATOM      6  H   UNL     1      -3.885  -1.417  -1.983  0.00  0.00    +0.144 HD
ATOM      7  H   UNL     1      -5.995  -0.749  -1.453  0.00  0.00    +0.143 HD
ENDROOT
BRANCH   1   8
ATOM      8  S   UNL     1      -2.151  -0.866  -4.002  0.00  0.00    -0.104 S 
BRANCH   8   9
ATOM      9  C   UNL     1      -1.502  -0.473  -2.354  0.00  0.00    +0.168 C 
BRANCH   9  11
ATOM     10  N   UNL     1       0.688  -0.476  -1.203  0.00  0.00    -0.301 N 
ATOM     11  C   UNL     1      -0.013  -0.705  -2.332  0.00  0.00    +0.226 C 
ATOM     12  O   UNL     1       0.555  -1.096  -3.330  0.00  0.00    -0.275 OA
BRANCH  10  14
ATOM     13  C   UNL     1      -0.019   1.526   0.010  0.00  0.00    +0.024 C 
ATOM     14  C   UNL     1       0.002  -0.004   0.002  0.00  0.00    +0.104 C 
ENDBRANCH  10  14
BRANCH  10  15
ATOM     15  C   UNL     1       2.135  -0.701  -1.182  0.00  0.00    +0.104 C 
ATOM     16  C   UNL     1       2.421  -2.145  -0.763  0.00  0.00    +0.024 C 
ENDBRANCH  10  15
ENDBRANCH   9  11
ENDBRANCH   8   9
ENDBRANCH   1   8
BRANCH   4  17
ATOM     17  C   UNL     1      -6.416   1.676  -3.153  0.00  0.00    -0.025 C 
BRANCH  17  18
ATOM     18  N   UNL     1      -7.570   1.632  -2.246  0.00  0.00    +0.383 N 
ATOM     19  H   UNL     1      -8.322   2.185  -2.631  0.00  0.00    -0.089 HD
ATOM     20  H   UNL     1      -7.877   0.677  -2.137  0.00  0.00    -0.089 HD
ATOM     21  H   UNL     1      -7.305   2.005  -1.347  0.00  0.00    -0.089 HD
ENDBRANCH  17  18
BRANCH  17  22
ATOM     22  C   UNL     1      -5.951   3.124  -3.319  0.00  0.00    +0.021 C 
BRANCH  22  23
ATOM     23  C   UNL     1      -7.029   3.922  -4.006  0.00  0.00    -0.043 C 
ATOM     24  C   UNL     1      -7.981   4.680  -3.416  0.00  0.00    -0.001 A 
ATOM     25  C   UNL     1      -8.287   4.977  -2.012  0.00  0.00    +0.010 A 
ATOM     26  C   UNL     1      -9.329   5.790  -1.725  0.00  0.00    +0.001 A 
ATOM     27  C   UNL     1     -10.122   6.355  -2.733  0.00  0.00    +0.002 A 
ATOM     28  C   UNL     1      -9.903   6.129  -4.046  0.00  0.00    +0.026 A 
ATOM     29  C   UNL     1      -8.834   5.290  -4.462  0.00  0.00    +0.043 A 
ATOM     30  N   UNL     1      -8.425   4.922  -5.652  0.00  0.00    -0.380 N 
ATOM     31  C   UNL     1      -7.261   4.042  -5.496  0.00  0.00    +0.144 C 
ATOM     32  H   UNL     1      -8.822   5.191  -6.495  0.00  0.00    +0.160 HD
ENDBRANCH  22  23
ENDBRANCH  17  22
ENDBRANCH   4  17
TORSDOF 9
