REMARK  Name = ZINC43609474
REMARK  4 active torsions:
REMARK  status: ('A' for Active; 'I' for Inactive)
REMARK    1  A    between atoms: C_1  and  C_2
REMARK    2  A    between atoms: C_8  and  N_29
REMARK    3  A    between atoms: C_10  and  C_12
REMARK    4  A    between atoms: C_12  and  N_13
REMARK                            x       y       z     vdW  Elec       q    Type
REMARK                         _______ _______ _______ _____ _____    ______ ____
ROOT
ATOM      1  C   UNL     1       0.390   1.493   0.016  0.00  0.00    +0.044 C 
ATOM      2  C   UNL     1       0.299  -0.011   0.006  0.00  0.00    -0.050 A 
ATOM      3  C   UNL     1       0.297  -0.691  -1.209  0.00  0.00    +0.005 A 
ATOM      4  C   UNL     1       0.217  -2.051  -1.253  0.00  0.00    +0.029 A 
ATOM      5  C   UNL     1       0.134  -2.778  -0.058  0.00  0.00    +0.076 A 
ATOM      6  C   UNL     1       0.136  -2.085   1.177  0.00  0.00    +0.041 A 
ATOM      7  C   UNL     1       0.226  -0.688   1.188  0.00  0.00    +0.016 A 
ATOM      8  C   UNL     1       0.052  -2.843   2.370  0.00  0.00    +0.133 A 
ATOM      9  N   UNL     1      -0.024  -4.163   2.269  0.00  0.00    -0.219 NA
ATOM     10  C   UNL     1      -0.022  -4.768   1.092  0.00  0.00    +0.115 A 
ATOM     11  N   UNL     1       0.053  -4.117  -0.045  0.00  0.00    -0.234 NA
ENDROOT
BRANCH   8  12
ATOM     12  N   UNL     1       0.050  -2.226   3.603  0.00  0.00    -0.313 N 
ATOM     13  C   UNL     1      -1.220  -1.825   4.209  0.00  0.00    +0.117 C 
ATOM     14  C   UNL     1      -1.463  -2.649   5.479  0.00  0.00    +0.088 C 
ATOM     15  S   UNL     1      -0.057  -2.408   6.606  0.00  0.00    -0.158 S 
ATOM     16  C   UNL     1       1.379  -2.821   5.569  0.00  0.00    +0.088 C 
ATOM     17  C   UNL     1       1.319  -1.984   4.292  0.00  0.00    +0.117 C 
ENDBRANCH   8  12
BRANCH  10  18
ATOM     18  C   UNL     1      -0.111  -6.271   1.056  0.00  0.00    -0.001 C 
BRANCH  18  19
ATOM     19  N   UNL     1      -1.521  -6.678   1.000  0.00  0.00    +0.385 N 
ATOM     20  C   UNL     1      -1.603  -8.132   0.835  0.00  0.00    -0.073 C 
ATOM     21  C   UNL     1      -3.050  -8.598   0.774  0.00  0.00    -0.007 C 
ATOM     22  C   UNL     1      -3.818  -8.145   2.021  0.00  0.00    +0.011 C 
ATOM     23  C   UNL     1      -3.688  -6.620   2.110  0.00  0.00    +0.020 C 
ATOM     24  C   UNL     1      -2.195  -6.278   2.244  0.00  0.00    -0.069 C 
ATOM     25  C   UNL     1      -4.194  -6.004   0.824  0.00  0.00    +0.023 A 
ATOM     26  C   UNL     1      -4.720  -4.753   0.891  0.00  0.00    +0.022 A 
ATOM     27  C   UNL     1      -5.147  -4.099  -0.269  0.00  0.00    +0.007 A 
ATOM     28  C   UNL     1      -5.005  -4.728  -1.471  0.00  0.00    +0.070 A 
ATOM     29  C   UNL     1      -4.455  -6.018  -1.505  0.00  0.00    +0.251 A 
ATOM     30  O   UNL     1      -4.265  -6.565  -2.579  0.00  0.00    -0.268 OA
ATOM     31  N   UNL     1      -4.132  -6.662  -0.357  0.00  0.00    -0.312 N 
ATOM     32  C   UNL     1      -3.762  -8.071  -0.461  0.00  0.00    +0.126 C 
ATOM     33  H   UNL     1      -1.969  -6.227   0.216  0.00  0.00    -0.081 HD
ENDBRANCH  18  19
ENDBRANCH  10  18
TORSDOF 3
