REMARK  Name = ZINC18126531
REMARK  4 active torsions:
REMARK  status: ('A' for Active; 'I' for Inactive)
REMARK    1  A    between atoms: C_1  and  C_2
REMARK    2  A    between atoms: C_5  and  N_9
REMARK    3  A    between atoms: C_28  and  C_35
REMARK    4  A    between atoms: C_29  and  C_34
REMARK                            x       y       z     vdW  Elec       q    Type
REMARK                         _______ _______ _______ _____ _____    ______ ____
ROOT
ATOM      1  N   UNL     1       0.058  -4.173  -0.023  0.00  0.00    -0.209 N 
ATOM      2  C   UNL     1      -1.069  -4.944  -0.028  0.00  0.00    +0.232 C 
ATOM      3  O   UNL     1      -2.196  -4.591  -0.301  0.00  0.00    -0.274 OA
ATOM      4  C   UNL     1      -0.621  -6.324   0.377  0.00  0.00    +0.107 C 
ATOM      5  C   UNL     1      -1.183  -7.540  -0.358  0.00  0.00    +0.071 C 
ATOM      6  C   UNL     1      -1.549  -7.187  -1.811  0.00  0.00    +0.021 C 
ATOM      7  C   UNL     1      -1.289  -8.534  -2.538  0.00  0.00    +0.017 C 
ATOM      8  C   UNL     1      -0.060  -9.100  -1.795  0.00  0.00    +0.086 C 
ATOM      9  N   UNL     1      -0.015  -8.474  -0.449  0.00  0.00    -0.281 NA
ATOM     10  C   UNL     1       1.228  -7.659  -0.320  0.00  0.00    +0.138 C 
ATOM     11  C   UNL     1       0.778  -6.257  -0.359  0.00  0.00    +0.123 C 
ATOM     12  C   UNL     1       1.211  -4.918  -0.033  0.00  0.00    +0.233 C 
ATOM     13  O   UNL     1       2.342  -4.537   0.185  0.00  0.00    -0.274 OA
ATOM     14  C   UNL     1       1.933  -8.018   0.964  0.00  0.00    +0.004 A 
ATOM     15  C   UNL     1       1.581  -7.920   2.292  0.00  0.00    +0.008 A 
ATOM     16  C   UNL     1       2.460  -8.340   3.274  0.00  0.00    +0.004 A 
ATOM     17  C   UNL     1       3.692  -8.859   2.918  0.00  0.00    -0.046 A 
ATOM     18  C   UNL     1       4.048  -8.960   1.589  0.00  0.00    -0.026 A 
ATOM     19  C   UNL     1       3.168  -8.539   0.594  0.00  0.00    +0.042 A 
ATOM     20  N   UNL     1       3.295  -8.540  -0.796  0.00  0.00    -0.283 N 
ATOM     21  C   UNL     1       2.203  -8.043  -1.406  0.00  0.00    +0.243 C 
ATOM     22  O   UNL     1       2.034  -7.926  -2.601  0.00  0.00    -0.273 OA
ATOM     23  C   UNL     1       5.392  -9.528   1.212  0.00  0.00    +0.046 C 
ATOM     24  C   UNL     1       4.650  -9.316   3.987  0.00  0.00    +0.044 C 
ATOM     25  H   UNL     1       4.079  -8.861  -1.268  0.00  0.00    +0.155 HD
ENDROOT
BRANCH   1  30
ATOM     26  C   UNL     1      -0.018   1.503   0.010  0.00  0.00    +0.044 C 
ATOM     27  C   UNL     1       0.002  -0.004   0.002  0.00  0.00    -0.049 A 
ATOM     28  C   UNL     1       0.006  -0.688  -1.200  0.00  0.00    +0.005 A 
ATOM     29  C   UNL     1       0.024  -2.068  -1.212  0.00  0.00    +0.025 A 
ATOM     30  C   UNL     1       0.040  -2.771  -0.014  0.00  0.00    +0.058 A 
ATOM     31  C   UNL     1       0.036  -2.082   1.192  0.00  0.00    +0.040 A 
ATOM     32  C   UNL     1       0.023  -0.700   1.196  0.00  0.00    +0.020 A 
ATOM     33 BR   UNL     1       0.056  -3.034   2.825  0.00  0.00    -0.048 Br
ENDBRANCH   1  30
TORSDOF 1
