REMARK  Name = ZINC01226346
REMARK  4 active torsions:
REMARK  status: ('A' for Active; 'I' for Inactive)
REMARK    1  A    between atoms: C_9  and  C_12
REMARK    2  A    between atoms: N_14  and  N_15
REMARK    3  A    between atoms: C_16  and  C_17
REMARK    4  A    between atoms: C_22  and  O_23
REMARK                            x       y       z     vdW  Elec       q    Type
REMARK                         _______ _______ _______ _____ _____    ______ ____
ROOT
ATOM      1  C   UNL     1      -0.018   1.503   0.010  0.00  0.00    +0.276 C 
ATOM      2  O   UNL     1      -1.077   2.095   0.018  0.00  0.00    -0.270 OA
ATOM      3  N   UNL     1       1.139   2.192   0.003  0.00  0.00    -0.204 N 
ATOM      4  H   UNL     1       1.986   1.719  -0.008  0.00  0.00    +0.177 HD
ENDROOT
BRANCH   1  13
ATOM      5  C   UNL     1      -1.940  -4.502  -0.725  0.00  0.00    +0.004 A 
ATOM      6  C   UNL     1      -2.883  -3.792  -0.005  0.00  0.00    +0.004 A 
ATOM      7  C   UNL     1      -2.676  -2.456   0.279  0.00  0.00    +0.049 A 
ATOM      8  C   UNL     1      -1.521  -1.823  -0.156  0.00  0.00    +0.163 A 
ATOM      9  C   UNL     1      -0.572  -2.537  -0.877  0.00  0.00    +0.162 A 
ATOM     10  C   UNL     1      -0.786  -3.878  -1.160  0.00  0.00    +0.049 A 
ATOM     11  O   UNL     1       0.572  -1.938  -1.308  0.00  0.00    -0.484 OA
ATOM     12  C   UNL     1       0.579  -0.506  -1.328  0.00  0.00    +0.283 C 
ATOM     13  C   UNL     1       0.002  -0.004   0.002  0.00  0.00    +0.297 C 
ATOM     14  O   UNL     1      -1.333  -0.506   0.130  0.00  0.00    -0.472 OA
ENDBRANCH   1  13
BRANCH   3  15
ATOM     15  N   UNL     1       1.121   3.593   0.011  0.00  0.00    -0.187 NA
ATOM     16  C   UNL     1       2.236   4.258   0.004  0.00  0.00    +0.142 C 
BRANCH  16  17
ATOM     17  C   UNL     1       2.216   5.731   0.012  0.00  0.00    +0.038 A 
ATOM     18  C   UNL     1       3.414   6.450   0.010  0.00  0.00    +0.028 A 
ATOM     19  C   UNL     1       3.388   7.829   0.011  0.00  0.00    +0.020 A 
ATOM     20  C   UNL     1       2.179   8.505   0.026  0.00  0.00    +0.034 A 
ATOM     21  C   UNL     1       0.987   7.805   0.035  0.00  0.00    +0.061 A 
ATOM     22  C   UNL     1       0.995   6.419   0.027  0.00  0.00    +0.139 A 
ATOM     23 BR   UNL     1      -0.657   8.739   0.055  0.00  0.00    -0.046 Br
ATOM     24 BR   UNL     1       5.010   8.801   0.000  0.00  0.00    -0.050 Br
BRANCH  22  25
ATOM     25  O   UNL     1      -0.176   5.730   0.035  0.00  0.00    -0.505 OA
ATOM     26  H   UNL     1      -0.506   5.526   0.921  0.00  0.00    +0.292 HD
ENDBRANCH  22  25
ENDBRANCH  16  17
ENDBRANCH   3  15
TORSDOF 4
