REMARK  Name = ZINC15989129
REMARK  4 active torsions:
REMARK  status: ('A' for Active; 'I' for Inactive)
REMARK    1  A    between atoms: C_1  and  O_2
REMARK    2  A    between atoms: O_2  and  C_3
REMARK    3  A    between atoms: C_6  and  N_35
REMARK    4  A    between atoms: C_8  and  N_9
REMARK                            x       y       z     vdW  Elec       q    Type
REMARK                         _______ _______ _______ _____ _____    ______ ____
ROOT
ATOM      1  N   UNL     1       0.095  -2.778  -0.110  0.00  0.00    -0.206 N 
ATOM      2  C   UNL     1      -1.200  -3.214  -0.123  0.00  0.00    +0.232 C 
ATOM      3  O   UNL     1      -1.949  -3.255  -1.075  0.00  0.00    -0.274 OA
ATOM      4  C   UNL     1      -1.502  -3.635   1.292  0.00  0.00    +0.107 C 
ATOM      5  C   UNL     1      -2.285  -4.921   1.540  0.00  0.00    +0.071 C 
ATOM      6  C   UNL     1      -2.041  -5.951   0.422  0.00  0.00    +0.021 C 
ATOM      7  C   UNL     1      -2.207  -7.290   1.191  0.00  0.00    +0.017 C 
ATOM      8  C   UNL     1      -1.605  -6.972   2.576  0.00  0.00    +0.086 C 
ATOM      9  N   UNL     1      -1.642  -5.503   2.766  0.00  0.00    -0.281 NA
ATOM     10  C   UNL     1      -0.263  -4.941   2.857  0.00  0.00    +0.138 C 
ATOM     11  C   UNL     1      -0.058  -4.203   1.598  0.00  0.00    +0.123 C 
ATOM     12  C   UNL     1       0.784  -3.191   1.004  0.00  0.00    +0.233 C 
ATOM     13  O   UNL     1       1.857  -2.793   1.401  0.00  0.00    -0.274 OA
ATOM     14  C   UNL     1       0.758  -6.012   3.131  0.00  0.00    +0.005 A 
ATOM     15  C   UNL     1       1.248  -7.071   2.398  0.00  0.00    +0.027 A 
ATOM     16  C   UNL     1       2.208  -7.910   2.936  0.00  0.00    +0.041 A 
ATOM     17  C   UNL     1       2.691  -7.675   4.212  0.00  0.00    +0.022 A 
ATOM     18  C   UNL     1       2.225  -6.601   4.940  0.00  0.00    +0.025 A 
ATOM     19  C   UNL     1       1.262  -5.750   4.402  0.00  0.00    +0.039 A 
ATOM     20  N   UNL     1       0.680  -4.593   4.923  0.00  0.00    -0.283 N 
ATOM     21  C   UNL     1      -0.203  -4.043   4.074  0.00  0.00    +0.243 C 
ATOM     22  O   UNL     1      -0.833  -3.020   4.248  0.00  0.00    -0.273 OA
ATOM     23 CL   UNL     1       2.806  -9.253   2.012  0.00  0.00    -0.084 Cl
ATOM     24  H   UNL     1       0.889  -4.230   5.798  0.00  0.00    +0.155 HD
ENDROOT
BRANCH   1  30
ATOM     25  C   UNL     1       0.606  -0.607  -1.056  0.00  0.00    +0.142 A 
ATOM     26  C   UNL     1       1.173   0.159  -2.062  0.00  0.00    +0.050 A 
ATOM     27  C   UNL     1       1.786  -0.456  -3.137  0.00  0.00    +0.036 A 
ATOM     28  C   UNL     1       1.837  -1.836  -3.213  0.00  0.00    +0.128 A 
ATOM     29  C   UNL     1       1.273  -2.607  -2.214  0.00  0.00    +0.060 A 
ATOM     30  C   UNL     1       0.662  -1.997  -1.129  0.00  0.00    +0.088 A 
BRANCH  28  31
ATOM     31  N   UNL     1       2.495  -2.488  -4.367  0.00  0.00    +0.056 N 
ATOM     32  O   UNL     1       2.987  -1.815  -5.242  0.00  0.00    -0.126 OA
ATOM     33  O   UNL     1       2.539  -3.695  -4.435  0.00  0.00    -0.126 OA
ENDBRANCH  28  31
BRANCH  25  35
ATOM     34  C   UNL     1      -0.017   1.425   0.010  0.00  0.00    +0.277 C 
ATOM     35  O   UNL     1       0.002  -0.004   0.002  0.00  0.00    -0.493 OA
ENDBRANCH  25  35
ENDBRANCH   1  30
TORSDOF 3
