REMARK  Name = ZINC22508812
REMARK  5 active torsions:
REMARK  status: ('A' for Active; 'I' for Inactive)
REMARK    1  A    between atoms: C_1  and  C_2
REMARK    2  A    between atoms: C_6  and  N_11
REMARK    3  A    between atoms: C_12  and  C_14
REMARK    4  A    between atoms: N_19  and  S_21
REMARK    5  A    between atoms: S_21  and  C_24
REMARK                            x       y       z     vdW  Elec       q    Type
REMARK                         _______ _______ _______ _____ _____    ______ ____
ROOT
ATOM      1  C   UNL     1      -2.580   4.126   0.252  0.00  0.00    +0.091 C 
ATOM      2  C   UNL     1      -3.314   3.641   1.504  0.00  0.00    +0.015 C 
ATOM      3  C   UNL     1      -4.665   4.351   1.613  0.00  0.00    +0.018 C 
ATOM      4  C   UNL     1      -4.436   5.861   1.741  0.00  0.00    +0.109 C 
ATOM      5  N   UNL     1      -3.607   6.310   0.615  0.00  0.00    -0.175 NA
ATOM      6  C   UNL     1      -2.327   5.633   0.365  0.00  0.00    +0.122 C 
ENDROOT
BRANCH   1   8
ATOM      7  N   UNL     1      -1.241   2.060   0.019  0.00  0.00    -0.285 N 
ATOM      8  C   UNL     1      -1.264   3.403   0.128  0.00  0.00    +0.222 C 
ATOM      9  O   UNL     1      -0.225   4.029   0.127  0.00  0.00    -0.275 OA
ATOM     10  H   UNL     1      -2.183   1.498  -0.056  0.00  0.00    +0.155 HD
BRANCH   7  16
ATOM     11  C   UNL     1       5.788   0.515  -1.248  0.00  0.00    +0.109 C 
ATOM     12  C   UNL     1       4.334   0.575  -0.856  0.00  0.00    +0.194 A 
ATOM     13  N   UNL     1       3.533   1.562  -1.123  0.00  0.00    -0.213 NA
ATOM     14  C   UNL     1       2.302   1.276  -0.620  0.00  0.00    +0.111 A 
ATOM     15  C   UNL     1       1.082   1.955  -0.610  0.00  0.00    +0.055 A 
ATOM     16  C   UNL     1      -0.016   1.379   0.002  0.00  0.00    +0.036 A 
ATOM     17  C   UNL     1       0.091   0.128   0.605  0.00  0.00    +0.027 A 
ATOM     18  C   UNL     1       1.291  -0.548   0.599  0.00  0.00    +0.050 A 
ATOM     19  C   UNL     1       2.402   0.016  -0.010  0.00  0.00    +0.155 A 
ATOM     20  O   UNL     1       3.682  -0.384  -0.179  0.00  0.00    -0.440 OA
ENDBRANCH   7  16
ENDBRANCH   1   8
BRANCH   5  21
ATOM     21  S   UNL     1      -4.106   7.556  -0.356  0.00  0.00    +0.067 S 
ATOM     22  O   UNL     1      -3.444   7.390  -1.602  0.00  0.00    -0.152 OA
ATOM     23  O   UNL     1      -5.521   7.614  -0.246  0.00  0.00    -0.152 OA
BRANCH  21  24
ATOM     24  C   UNL     1      -3.484   9.046   0.350  0.00  0.00    +0.144 A 
ATOM     25  C   UNL     1      -2.303   9.671   0.122  0.00  0.00    +0.037 A 
ATOM     26  C   UNL     1      -2.026  10.846   0.794  0.00  0.00    +0.025 A 
ATOM     27  C   UNL     1      -2.940  11.335   1.669  0.00  0.00    +0.057 A 
ATOM     28  S   UNL     1      -4.245  10.121   1.555  0.00  0.00    -0.062 S 
ATOM     29 BR   UNL     1      -2.855  12.896   2.733  0.00  0.00    -0.043 Br
ENDBRANCH  21  24
ENDBRANCH   5  21
TORSDOF 4
