REMARK  Name = ZINC64862421
REMARK  5 active torsions:
REMARK  status: ('A' for Active; 'I' for Inactive)
REMARK    1  A    between atoms: C_1  and  C_2
REMARK    2  A    between atoms: C_5  and  N_9
REMARK    3  A    between atoms: N_9  and  S_10
REMARK    4  A    between atoms: S_10  and  C_13
REMARK    5  A    between atoms: N_24  and  C_25
REMARK                            x       y       z     vdW  Elec       q    Type
REMARK                         _______ _______ _______ _____ _____    ______ ____
ROOT
ATOM      1  C   UNL     1       2.518  -4.718  -1.130  0.00  0.00    +0.109 A 
ATOM      2  C   UNL     1       3.110  -3.636  -1.754  0.00  0.00    +0.030 A 
ATOM      3  C   UNL     1       4.469  -3.429  -1.644  0.00  0.00    +0.026 A 
ATOM      4  C   UNL     1       5.257  -4.311  -0.902  0.00  0.00    +0.041 A 
ATOM      5  C   UNL     1       4.654  -5.392  -0.280  0.00  0.00    -0.023 A 
ATOM      6  C   UNL     1       3.291  -5.592  -0.388  0.00  0.00    +0.034 A 
ATOM      7  C   UNL     1       5.717  -6.182   0.451  0.00  0.00    +0.056 C 
ATOM      8  C   UNL     1       7.023  -5.420   0.175  0.00  0.00    +0.120 C 
ATOM      9  N   UNL     1       6.636  -4.284  -0.666  0.00  0.00    -0.255 N 
ATOM     10  C   UNL     1       7.483  -3.351  -1.143  0.00  0.00    +0.306 C 
ATOM     11  O   UNL     1       7.062  -2.444  -1.835  0.00  0.00    -0.252 OA
ATOM     12  N   UNL     1       8.797  -3.422  -0.853  0.00  0.00    -0.302 N 
ATOM     13  C   UNL     1       9.718  -2.408  -1.371  0.00  0.00    +0.129 C 
ATOM     14  H   UNL     1       9.133  -4.146  -0.301  0.00  0.00    +0.150 HD
ENDROOT
BRANCH   1  15
ATOM     15  S   UNL     1       0.781  -4.979  -1.273  0.00  0.00    +0.072 S 
ATOM     16  O   UNL     1       0.558  -6.364  -1.042  0.00  0.00    -0.150 OA
ATOM     17  O   UNL     1       0.371  -4.330  -2.469  0.00  0.00    -0.150 OA
BRANCH  15  18
ATOM     18  N   UNL     1       0.059  -4.168  -0.023  0.00  0.00    -0.215 N 
ATOM     19  H   UNL     1      -0.468  -4.654   0.630  0.00  0.00    +0.174 HD
BRANCH  18  24
ATOM     20  C   UNL     1       0.671   1.451   0.442  0.00  0.00    +0.044 C 
ATOM     21  C   UNL     1       0.508  -0.042   0.319  0.00  0.00    -0.049 A 
ATOM     22  C   UNL     1       0.417  -0.625  -0.932  0.00  0.00    +0.005 A 
ATOM     23  C   UNL     1       0.268  -1.993  -1.048  0.00  0.00    +0.026 A 
ATOM     24  C   UNL     1       0.210  -2.784   0.092  0.00  0.00    +0.062 A 
ATOM     25  C   UNL     1       0.303  -2.195   1.347  0.00  0.00    +0.040 A 
ATOM     26  C   UNL     1       0.457  -0.826   1.457  0.00  0.00    +0.020 A 
ATOM     27 BR   UNL     1       0.224  -3.266   2.904  0.00  0.00    -0.048 Br
ENDBRANCH  18  24
ENDBRANCH  15  18
ENDBRANCH   1  15
TORSDOF 3
