REMARK  Name = ZINC49977623
REMARK  5 active torsions:
REMARK  status: ('A' for Active; 'I' for Inactive)
REMARK    1  A    between atoms: C_1  and  C_2
REMARK    2  A    between atoms: C_7  and  N_8
REMARK    3  A    between atoms: N_8  and  C_9
REMARK    4  A    between atoms: C_10  and  C_12
REMARK    5  A    between atoms: C_14  and  N_20
REMARK                            x       y       z     vdW  Elec       q    Type
REMARK                         _______ _______ _______ _____ _____    ______ ____
ROOT
ATOM      1  N   UNL     1       0.028  -0.016   2.411  0.00  0.00    -0.270 N 
ATOM      2  C   UNL     1       1.271   0.369   3.083  0.00  0.00    +0.138 C 
ATOM      3  C   UNL     1      -1.161   0.281   2.971  0.00  0.00    +0.251 C 
ATOM      4  O   UNL     1      -2.190  -0.130   2.470  0.00  0.00    -0.270 OA
ENDROOT
BRANCH   3   5
ATOM      5  C   UNL     1      -1.215   1.107   4.196  0.00  0.00    +0.040 A 
ATOM      6  C   UNL     1      -0.296   2.140   4.384  0.00  0.00    +0.037 A 
ATOM      7  C   UNL     1      -0.352   2.912   5.533  0.00  0.00    +0.045 A 
ATOM      8  C   UNL     1      -1.322   2.655   6.497  0.00  0.00    +0.080 A 
ATOM      9  C   UNL     1      -2.234   1.630   6.310  0.00  0.00    +0.062 A 
ATOM     10  C   UNL     1      -2.189   0.860   5.165  0.00  0.00    +0.034 A 
ATOM     11 CL   UNL     1      -3.442   1.316   7.517  0.00  0.00    -0.082 Cl
ATOM     12 CL   UNL     1      -1.389   3.622   7.937  0.00  0.00    -0.080 Cl
BRANCH   7  13
ATOM     13  N   UNL     1       0.567   3.947   5.726  0.00  0.00    -0.357 N 
ATOM     14  H   UNL     1       1.244   4.126   5.054  0.00  0.00    +0.142 HD
ATOM     15  H   UNL     1       0.528   4.487   6.531  0.00  0.00    +0.142 HD
ENDBRANCH   7  13
ENDBRANCH   3   5
BRANCH   1  22
ATOM     16  C   UNL     1       0.049   1.528   0.021  0.00  0.00    +0.045 C 
ATOM     17  C   UNL     1       0.086   0.022  -0.003  0.00  0.00    -0.029 A 
ATOM     18  C   UNL     1       0.137  -0.649  -1.209  0.00  0.00    +0.005 A 
ATOM     19  C   UNL     1       0.171  -2.031  -1.232  0.00  0.00    +0.000 A 
ATOM     20  C   UNL     1       0.154  -2.746  -0.048  0.00  0.00    +0.002 A 
ATOM     21  C   UNL     1       0.103  -2.081   1.161  0.00  0.00    +0.024 A 
ATOM     22  C   UNL     1       0.074  -0.693   1.188  0.00  0.00    +0.039 A 
ENDBRANCH   1  22
TORSDOF 3
