REMARK  Name = ZINC12402223
REMARK  5 active torsions:
REMARK  status: ('A' for Active; 'I' for Inactive)
REMARK    1  A    between atoms: C_1  and  C_2
REMARK    2  A    between atoms: C_2  and  C_33
REMARK    3  A    between atoms: C_20  and  C_31
REMARK    4  A    between atoms: C_21  and  N_30
REMARK    5  A    between atoms: N_22  and  C_23
REMARK                            x       y       z     vdW  Elec       q    Type
REMARK                         _______ _______ _______ _____ _____    ______ ____
ROOT
ATOM      1  C   UNL     1      -6.439   6.051   1.520  0.00  0.00    +0.011 C 
ATOM      2  C   UNL     1      -5.470   6.316   2.674  0.00  0.00    -0.023 C 
ATOM      3  C   UNL     1      -4.170   6.912   2.127  0.00  0.00    +0.058 C 
ATOM      4  C   UNL     1      -3.521   5.930   1.183  0.00  0.00    +0.026 C 
ATOM      5  C   UNL     1      -3.665   4.598   1.356  0.00  0.00    +0.037 C 
ATOM      6  C   UNL     1      -4.436   4.085   2.414  0.00  0.00    +0.163 C 
ATOM      7  O   UNL     1      -4.537   2.882   2.548  0.00  0.00    -0.292 OA
ATOM      8  C   UNL     1      -5.139   4.997   3.381  0.00  0.00    +0.086 C 
ATOM      9  C   UNL     1      -3.004   3.623   0.418  0.00  0.00    +0.141 C 
ATOM     10  C   UNL     1      -1.829   2.971   1.080  0.00  0.00    +0.001 A 
ATOM     11  C   UNL     1      -0.654   3.497   1.573  0.00  0.00    +0.045 A 
ATOM     12  C   UNL     1       0.251   2.600   2.137  0.00  0.00    +0.124 A 
ATOM     13  C   UNL     1      -0.022   1.247   2.197  0.00  0.00    +0.040 A 
ATOM     14  C   UNL     1      -1.202   0.714   1.703  0.00  0.00    +0.026 A 
ATOM     15  C   UNL     1      -2.114   1.602   1.131  0.00  0.00    +0.038 A 
ATOM     16  N   UNL     1      -3.357   1.349   0.576  0.00  0.00    -0.284 N 
ATOM     17  C   UNL     1      -3.950   2.475   0.129  0.00  0.00    +0.238 C 
ATOM     18  O   UNL     1      -5.037   2.554  -0.403  0.00  0.00    -0.274 OA
ATOM     19  F   UNL     1       1.418   3.063   2.635  0.00  0.00    -0.205 F 
ATOM     20  C   UNL     1      -2.596   4.283  -0.865  0.00  0.00    +0.089 C 
ATOM     21  C   UNL     1      -2.499   5.636  -0.954  0.00  0.00    +0.108 C 
ATOM     22  N   UNL     1      -2.781   6.422   0.140  0.00  0.00    -0.260 N 
ATOM     23  C   UNL     1      -6.107   7.287   3.669  0.00  0.00    +0.011 C 
ATOM     24  H   UNL     1      -3.753   0.466   0.512  0.00  0.00    +0.155 HD
ENDROOT
BRANCH  22  25
ATOM     25  C   UNL     1      -2.307   7.739   0.188  0.00  0.00    +0.040 A 
ATOM     26  C   UNL     1      -1.093   8.019   0.802  0.00  0.00    +0.026 A 
ATOM     27  C   UNL     1      -0.624   9.317   0.843  0.00  0.00    +0.040 A 
ATOM     28  C   UNL     1      -1.369  10.341   0.281  0.00  0.00    +0.124 A 
ATOM     29  C   UNL     1      -2.582  10.065  -0.327  0.00  0.00    +0.040 A 
ATOM     30  C   UNL     1      -3.051   8.767  -0.375  0.00  0.00    +0.026 A 
ATOM     31  F   UNL     1      -0.911  11.611   0.327  0.00  0.00    -0.205 F 
ENDBRANCH  22  25
BRANCH  21  32
ATOM     32  N   UNL     1      -2.118   6.220  -2.139  0.00  0.00    -0.345 N 
ATOM     33  H   UNL     1      -2.137   7.185  -2.231  0.00  0.00    +0.144 HD
ATOM     34  H   UNL     1      -1.830   5.667  -2.881  0.00  0.00    +0.144 HD
ENDBRANCH  21  32
BRANCH  20  35
ATOM     35  C   UNL     1      -2.305   3.477  -2.012  0.00  0.00    +0.100 C 
ATOM     36  N   UNL     1      -2.074   2.838  -2.922  0.00  0.00    -0.191 NA
ENDBRANCH  20  35
TORSDOF 3
