REMARK  Name = ZINC36496623
REMARK  21 active torsions:
REMARK  status: ('A' for Active; 'I' for Inactive)
REMARK    1  A    between atoms: C_1  and  C_2
REMARK    2  A    between atoms: C_2  and  C_3
REMARK    3  A    between atoms: C_3  and  C_4
REMARK    4  A    between atoms: C_4  and  C_5
REMARK    5  A    between atoms: C_5  and  C_7
REMARK    6  A    between atoms: C_5  and  C_9
REMARK    7  A    between atoms: C_7  and  C_8
REMARK    8  A    between atoms: N_11  and  C_12
REMARK    9  A    between atoms: N_11  and  C_18
REMARK   10  A    between atoms: C_12  and  C_13
REMARK   11  A    between atoms: C_18  and  C_20
REMARK   12  A    between atoms: C_18  and  C_23
REMARK   13  A    between atoms: C_21  and  C_22
REMARK   14  A    between atoms: N_25  and  C_26
REMARK   15  A    between atoms: C_26  and  C_27
REMARK   16  A    between atoms: C_26  and  C_28
REMARK   17  A    between atoms: C_26  and  C_29
REMARK   18  A    between atoms: C_29  and  C_30
REMARK   19  A    between atoms: C_30  and  C_31
REMARK   20  A    between atoms: C_30  and  C_32
REMARK   21  A    between atoms: C_30  and  C_33
REMARK                            x       y       z     vdW  Elec       q    Type
REMARK                         _______ _______ _______ _____ _____    ______ ____
ROOT
ATOM      1  C   UNL     1       5.902  -5.273   2.327  0.00  0.00    +0.220 C 
ATOM      2  O   UNL     1       5.830  -5.703   1.195  0.00  0.00    -0.275 OA
ATOM      3  N   UNL     1       5.848  -6.120   3.374  0.00  0.00    -0.279 N 
ENDROOT
BRANCH   1   4
ATOM      4  C   UNL     1       6.051  -3.792   2.562  0.00  0.00    +0.075 C 
BRANCH   4   5
ATOM      5  C   UNL     1       7.437  -3.505   3.141  0.00  0.00    +0.009 C 
ATOM      6  C   UNL     1       8.509  -3.984   2.161  0.00  0.00    +0.004 C 
ENDBRANCH   4   5
BRANCH   4   7
ATOM      7  C   UNL     1       5.887  -3.046   1.236  0.00  0.00    +0.013 C 
BRANCH   7   8
ATOM      8  C   UNL     1       5.911  -1.538   1.493  0.00  0.00    +0.000 C 
BRANCH   8  10
ATOM      9  C   UNL     1       5.887   0.716   0.415  0.00  0.00    +0.004 C 
ATOM     10  C   UNL     1       5.863  -0.792   0.158  0.00  0.00    -0.003 C 
ENDBRANCH   8  10
ENDBRANCH   7   8
ENDBRANCH   4   7
ENDBRANCH   1   4
BRANCH   3  11
ATOM     11  C   UNL     1       5.970  -5.604   4.740  0.00  0.00    +0.183 C 
BRANCH  11  12
ATOM     12  C   UNL     1       7.199  -6.187   5.389  0.00  0.00    +0.122 A 
ATOM     13  C   UNL     1       8.462  -5.763   5.204  0.00  0.00    +0.046 A 
ATOM     14  C   UNL     1       9.291  -6.587   6.001  0.00  0.00    +0.041 A 
ATOM     15  C   UNL     1       8.484  -7.463   6.626  0.00  0.00    +0.195 A 
ATOM     16  O   UNL     1       7.217  -7.213   6.256  0.00  0.00    -0.466 OA
ENDBRANCH  11  12
ENDBRANCH   3  11
BRANCH   3  17
ATOM     17  C   UNL     1       5.669  -7.556   3.147  0.00  0.00    +0.185 C 
BRANCH  17  18
ATOM     18  C   UNL     1       4.444  -8.032   3.884  0.00  0.00    +0.238 C 
ATOM     19  O   UNL     1       3.764  -7.242   4.503  0.00  0.00    -0.273 OA
ATOM     20  N   UNL     1       4.105  -9.336   3.856  0.00  0.00    -0.308 N 
ATOM     21  H   UNL     1       4.608  -9.956   3.305  0.00  0.00    +0.149 HD
BRANCH  20  22
ATOM     22  C   UNL     1       2.977  -9.817   4.658  0.00  0.00    +0.030 C 
ATOM     23  C   UNL     1       3.322  -9.705   6.144  0.00  0.00    +0.031 C 
ATOM     24  C   UNL     1       1.739  -8.969   4.357  0.00  0.00    +0.031 C 
BRANCH  22  25
ATOM     25  C   UNL     1       2.690 -11.279   4.309  0.00  0.00    +0.031 C 
BRANCH  25  26
ATOM     26  C   UNL     1       2.142 -11.365   2.883  0.00  0.00    -0.036 C 
ATOM     27  C   UNL     1       2.907 -10.394   1.983  0.00  0.00    +0.010 C 
ATOM     28  C   UNL     1       2.312 -12.791   2.357  0.00  0.00    +0.010 C 
ATOM     29  C   UNL     1       0.657 -10.996   2.885  0.00  0.00    +0.010 C 
ENDBRANCH  25  26
ENDBRANCH  22  25
ENDBRANCH  20  22
ENDBRANCH  17  18
BRANCH  17  30
ATOM     30  C   UNL     1       6.879  -8.299   3.650  0.00  0.00    +0.000 C 
ATOM     31  C   UNL     1       7.709  -8.852   2.800  0.00  0.00    -0.032 C 
ATOM     32  C   UNL     1       8.919  -9.596   3.304  0.00  0.00    +0.035 C 
ENDBRANCH  17  30
ENDBRANCH   3  17
TORSDOF 13
