REMARK  Name = ZINC39037452
REMARK  10 active torsions:
REMARK  status: ('A' for Active; 'I' for Inactive)
REMARK    1  A    between atoms: C_1  and  C_2
REMARK    2  A    between atoms: C_5  and  S_8
REMARK    3  A    between atoms: S_8  and  O_11
REMARK    4  A    between atoms: O_11  and  C_12
REMARK    5  A    between atoms: C_15  and  C_18
REMARK    6  A    between atoms: C_18  and  C_20
REMARK    7  A    between atoms: C_18  and  C_27
REMARK    8  A    between atoms: C_21  and  C_26
REMARK    9  A    between atoms: C_28  and  C_34
REMARK   10  A    between atoms: C_31  and  O_33
REMARK                            x       y       z     vdW  Elec       q    Type
REMARK                         _______ _______ _______ _____ _____    ______ ____
ROOT
ATOM      1  C   UNL     1       2.300  -5.599   1.265  0.00  0.00    +0.157 A 
ATOM      2  C   UNL     1       3.028  -4.419   1.315  0.00  0.00    +0.049 A 
ATOM      3  C   UNL     1       3.616  -4.021   2.499  0.00  0.00    +0.008 A 
ATOM      4  C   UNL     1       3.481  -4.797   3.635  0.00  0.00    -0.035 A 
ATOM      5  C   UNL     1       2.756  -5.974   3.589  0.00  0.00    +0.008 A 
ATOM      6  C   UNL     1       2.160  -6.373   2.408  0.00  0.00    +0.049 A 
ENDROOT
BRANCH   1   7
ATOM      7  O   UNL     1       1.720  -5.993   0.101  0.00  0.00    -0.342 OA
BRANCH   7   8
ATOM      8  S   UNL     1       0.304  -5.469  -0.093  0.00  0.00    +0.151 S 
ATOM      9  O   UNL     1      -0.328  -5.525   1.179  0.00  0.00    -0.131 OA
ATOM     10  O   UNL     1      -0.222  -6.133  -1.234  0.00  0.00    -0.131 OA
BRANCH   8  15
ATOM     11  C   UNL     1       0.741   0.371  -1.545  0.00  0.00    +0.044 C 
ATOM     12  C   UNL     1       0.632  -1.088  -1.182  0.00  0.00    -0.050 A 
ATOM     13  C   UNL     1       0.634  -2.049  -2.176  0.00  0.00    +0.005 A 
ATOM     14  C   UNL     1       0.534  -3.387  -1.843  0.00  0.00    +0.031 A 
ATOM     15  C   UNL     1       0.432  -3.764  -0.517  0.00  0.00    +0.128 A 
ATOM     16  C   UNL     1       0.431  -2.803   0.477  0.00  0.00    +0.031 A 
ATOM     17  C   UNL     1       0.536  -1.465   0.144  0.00  0.00    +0.005 A 
ENDBRANCH   8  15
ENDBRANCH   7   8
ENDBRANCH   1   7
BRANCH   4  18
ATOM     18  C   UNL     1       4.124  -4.360   4.926  0.00  0.00    +0.088 C 
BRANCH  18  19
ATOM     19  C   UNL     1       3.106  -4.410   6.036  0.00  0.00    +0.052 A 
ATOM     20  C   UNL     1       1.748  -4.097   5.923  0.00  0.00    +0.068 A 
ATOM     21  N   UNL     1       1.191  -4.259   7.096  0.00  0.00    -0.176 NA
ATOM     22  N   UNL     1       2.176  -4.681   7.998  0.00  0.00    -0.243 N 
ATOM     23  C   UNL     1       3.344  -4.772   7.325  0.00  0.00    +0.271 A 
ATOM     24  O   UNL     1       4.540  -5.154   7.843  0.00  0.00    -0.266 OA
ATOM     25  C   UNL     1       1.047  -3.649   4.667  0.00  0.00    +0.068 C 
ATOM     26  H   UNL     1       2.042  -4.877   8.938  0.00  0.00    +0.192 HD
ENDBRANCH  18  19
BRANCH  18  27
ATOM     27  C   UNL     1       5.270  -5.282   5.253  0.00  0.00    +0.017 C 
ATOM     28  C   UNL     1       6.558  -4.970   5.410  0.00  0.00    +0.065 C 
ATOM     29  N   UNL     1       7.288  -6.070   5.698  0.00  0.00    -0.156 NA
ATOM     30  N   UNL     1       6.636  -7.115   5.758  0.00  0.00    -0.151 NA
ATOM     31  C   UNL     1       5.227  -6.782   5.488  0.00  0.00    +0.284 C 
ATOM     32  C   UNL     1       7.123  -3.578   5.282  0.00  0.00    +0.067 C 
BRANCH  31  33
ATOM     33  O   UNL     1       4.763  -7.463   4.321  0.00  0.00    -0.366 OA
ATOM     34  H   UNL     1       4.717  -8.424   4.418  0.00  0.00    +0.212 HD
ENDBRANCH  31  33
ENDBRANCH  18  27
ENDBRANCH   4  18
TORSDOF 7
