REMARK  Name = ZINC08975454
REMARK  2 active torsions:
REMARK  status: ('A' for Active; 'I' for Inactive)
REMARK    1  A    between atoms: C_1  and  S_2
REMARK    2  A    between atoms: S_2  and  C_5
REMARK                            x       y       z     vdW  Elec       q    Type
REMARK                         _______ _______ _______ _____ _____    ______ ____
ROOT
ATOM      1  C   UNL     1       2.402  -0.004  -0.021  0.00  0.00    +0.114 A 
ATOM      2  C   UNL     1       2.374   1.367  -0.012  0.00  0.00    +0.029 A 
ATOM      3  C   UNL     1       1.177   2.067   0.002  0.00  0.00    +0.003 A 
ATOM      4  C   UNL     1      -0.017   1.368   0.010  0.00  0.00    +0.017 A 
ATOM      5  C   UNL     1       0.002  -0.004   0.002  0.00  0.00    +0.043 A 
ATOM      6  C   UNL     1       1.202  -0.751  -0.013  0.00  0.00    +0.105 A 
ATOM      7  N   UNL     1       1.056  -2.094  -0.019  0.00  0.00    -0.223 NA
ATOM      8  C   UNL     1      -0.122  -2.675  -0.011  0.00  0.00    +0.162 A 
ATOM      9  S   UNL     1      -1.236  -1.278   0.007  0.00  0.00    -0.052 S 
ATOM     10  N   UNL     1      -0.423  -4.022  -0.015  0.00  0.00    -0.307 N 
ATOM     11  C   UNL     1       0.196  -4.697  -1.164  0.00  0.00    +0.126 C 
ATOM     12  C   UNL     1      -0.094  -6.198  -1.088  0.00  0.00    +0.126 C 
ATOM     13  N   UNL     1      -1.548  -6.413  -1.075  0.00  0.00    -0.307 N 
ATOM     14  C   UNL     1      -2.167  -5.738   0.074  0.00  0.00    +0.126 C 
ATOM     15  C   UNL     1      -1.877  -4.237  -0.002  0.00  0.00    +0.126 C 
ATOM     16  C   UNL     1      -1.849  -7.760  -1.079  0.00  0.00    +0.162 A 
ATOM     17  N   UNL     1      -2.571  -8.445  -0.222  0.00  0.00    -0.222 NA
ATOM     18  C   UNL     1      -2.788  -9.773  -0.354  0.00  0.00    +0.115 A 
ATOM     19  C   UNL     1      -3.545 -10.622   0.488  0.00  0.00    +0.150 A 
ATOM     20  C   UNL     1      -3.660 -11.962   0.210  0.00  0.00    +0.040 A 
ATOM     21  C   UNL     1      -3.044 -12.528  -0.897  0.00  0.00    +0.004 A 
ATOM     22  C   UNL     1      -2.297 -11.726  -1.740  0.00  0.00    +0.017 A 
ATOM     23  C   UNL     1      -2.176 -10.385  -1.471  0.00  0.00    +0.044 A 
ATOM     24  S   UNL     1      -1.348  -9.018  -2.246  0.00  0.00    -0.052 S 
ATOM     25  F   UNL     1      -4.160 -10.110   1.575  0.00  0.00    -0.203 F 
ENDROOT
BRANCH   1  27
ATOM     26  C   UNL     1       4.022  -1.726   1.544  0.00  0.00    +0.200 C 
ATOM     27  S   UNL     1       3.951  -0.844  -0.039  0.00  0.00    -0.004 S 
ATOM     28  O   UNL     1       3.848  -1.770  -1.111  0.00  0.00    -0.170 OA
ATOM     29  O   UNL     1       4.924   0.191  -0.067  0.00  0.00    -0.170 OA
ENDBRANCH   1  27
TORSDOF 1
