REMARK  Name = ZINC14941554
REMARK  9 active torsions:
REMARK  status: ('A' for Active; 'I' for Inactive)
REMARK    1  A    between atoms: C_1  and  C_2
REMARK    2  A    between atoms: C_2  and  C_3
REMARK    3  A    between atoms: C_2  and  C_4
REMARK    4  A    between atoms: C_4  and  C_6
REMARK    5  A    between atoms: C_4  and  N_17
REMARK    6  A    between atoms: N_8  and  C_9
REMARK    7  A    between atoms: C_9  and  C_10
REMARK    8  A    between atoms: C_10  and  C_11
REMARK    9  A    between atoms: C_18  and  C_20
REMARK                            x       y       z     vdW  Elec       q    Type
REMARK                         _______ _______ _______ _____ _____    ______ ____
ROOT
ATOM      1  C   UNL     1      -2.132   7.259  -0.950  0.00  0.00    +0.161 C 
ENDROOT
BRANCH   1   2
ATOM      2  C   UNL     1      -2.276   7.767  -2.361  0.00  0.00    +0.234 C 
ATOM      3  O   UNL     1      -2.355   6.983  -3.283  0.00  0.00    -0.274 OA
ATOM      4  N   UNL     1      -2.318   9.093  -2.599  0.00  0.00    -0.313 N 
ATOM      5  H   UNL     1      -2.255   9.720  -1.861  0.00  0.00    +0.149 HD
BRANCH   4   6
ATOM      6  C   UNL     1      -2.458   9.587  -3.971  0.00  0.00    +0.108 C 
BRANCH   6   7
ATOM      7  C   UNL     1      -2.479  11.117  -3.962  0.00  0.00    +0.049 C 
BRANCH   7   8
ATOM      8  C   UNL     1      -2.623  11.625  -5.374  0.00  0.00    -0.072 C 
ATOM      9  C   UNL     1      -3.813  11.908  -5.799  0.00  0.00    -0.028 C 
ATOM     10  C   UNL     1      -4.115  12.412  -7.179  0.00  0.00    +0.027 C 
ATOM     11  C   UNL     1      -2.838  12.939  -7.839  0.00  0.00    +0.004 C 
ATOM     12  C   UNL     1      -1.739  11.880  -7.682  0.00  0.00    +0.005 C 
ATOM     13  C   UNL     1      -1.378  11.778  -6.197  0.00  0.00    +0.030 C 
ENDBRANCH   7   8
ENDBRANCH   6   7
ENDBRANCH   4   6
ENDBRANCH   1   2
BRANCH   1  14
ATOM     14  N   UNL     1      -2.112   5.794  -0.958  0.00  0.00    -0.303 N 
ATOM     15  C   UNL     1      -1.510   5.123   0.044  0.00  0.00    +0.220 C 
ATOM     16  O   UNL     1      -0.985   5.731   0.952  0.00  0.00    -0.275 OA
ATOM     17  H   UNL     1      -2.533   5.307  -1.684  0.00  0.00    +0.149 HD
BRANCH  15  18
ATOM     18  C   UNL     1      -1.490   3.616   0.036  0.00  0.00    +0.048 C 
ATOM     19  C   UNL     1      -0.773   3.123  -1.223  0.00  0.00    +0.019 C 
ATOM     20  C   UNL     1      -0.753   1.593  -1.232  0.00  0.00    -0.009 C 
ATOM     21  C   UNL     1      -0.013   1.086   0.008  0.00  0.00    +0.007 C 
ATOM     22  C   UNL     1      -0.729   1.579   1.267  0.00  0.00    -0.009 C 
ATOM     23  C   UNL     1      -0.750   3.109   1.275  0.00  0.00    +0.019 C 
ATOM     24  C   UNL     1      -2.164   1.050   1.278  0.00  0.00    +0.007 C 
ATOM     25  C   UNL     1      -2.904   1.556   0.038  0.00  0.00    -0.009 C 
ATOM     26  C   UNL     1      -2.188   1.063  -1.221  0.00  0.00    +0.007 C 
ATOM     27  C   UNL     1      -2.925   3.086   0.047  0.00  0.00    +0.019 C 
ENDBRANCH  15  18
ENDBRANCH   1  14
BRANCH   1  29
ATOM     28  C   UNL     1      -4.607   7.123  -0.633  0.00  0.00    +0.009 C 
ATOM     29  C   UNL     1      -3.313   7.748  -0.108  0.00  0.00    +0.012 C 
ATOM     30  C   UNL     1      -3.104   7.338   1.351  0.00  0.00    +0.009 C 
ENDBRANCH   1  29
TORSDOF 7
