REMARK  Name = ZINC40744435
REMARK  12 active torsions:
REMARK  status: ('A' for Active; 'I' for Inactive)
REMARK    1  A    between atoms: C_1  and  C_2
REMARK    2  A    between atoms: C_2  and  C_3
REMARK    3  A    between atoms: C_3  and  O_4
REMARK    4  A    between atoms: O_4  and  C_5
REMARK    5  A    between atoms: C_6  and  O_25
REMARK    6  A    between atoms: C_8  and  C_12
REMARK    7  A    between atoms: C_12  and  N_13
REMARK    8  A    between atoms: N_13  and  C_14
REMARK    9  A    between atoms: C_14  and  C_15
REMARK   10  A    between atoms: C_15  and  N_16
REMARK   11  A    between atoms: C_17  and  C_19
REMARK   12  A    between atoms: O_25  and  C_26
REMARK                            x       y       z     vdW  Elec       q    Type
REMARK                         _______ _______ _______ _____ _____    ______ ____
ROOT
ATOM      1  N   UNL     1      -7.480  -3.594   0.043  0.00  0.00    +0.383 N 
ATOM      2  H   UNL     1      -7.400  -3.018   0.867  0.00  0.00    -0.085 HD
ATOM      3  H   UNL     1      -7.409  -3.015  -0.780  0.00  0.00    -0.085 HD
ENDROOT
BRANCH   1   4
ATOM      4  C   UNL     1      -6.401  -4.591   0.035  0.00  0.00    -0.047 C 
BRANCH   4   8
ATOM      5  C   UNL     1      -2.617  -2.596   0.013  0.00  0.00    +0.180 A 
ATOM      6  C   UNL     1      -3.225  -2.923   1.221  0.00  0.00    +0.163 A 
ATOM      7  C   UNL     1      -4.451  -3.569   1.224  0.00  0.00    +0.051 A 
ATOM      8  C   UNL     1      -5.068  -3.888   0.029  0.00  0.00    -0.059 A 
ATOM      9  C   UNL     1      -4.465  -3.565  -1.172  0.00  0.00    +0.025 A 
ATOM     10  C   UNL     1      -3.243  -2.914  -1.182  0.00  0.00    +0.086 A 
ATOM     11 CL   UNL     1      -2.492  -2.502  -2.692  0.00  0.00    -0.080 Cl
BRANCH   6  12
ATOM     12  O   UNL     1      -2.618  -2.609   2.397  0.00  0.00    -0.491 OA
ATOM     13  C   UNL     1      -3.300  -2.974   3.598  0.00  0.00    +0.277 C 
ENDBRANCH   6  12
BRANCH   5  14
ATOM     14  O   UNL     1      -1.414  -1.962   0.005  0.00  0.00    -0.487 OA
BRANCH  14  15
ATOM     15  C   UNL     1      -1.433  -0.534   0.013  0.00  0.00    +0.229 C 
BRANCH  15  17
ATOM     16  C   UNL     1      -0.019   1.526   0.010  0.00  0.00    +0.007 C 
ATOM     17  C   UNL     1       0.002  -0.004   0.002  0.00  0.00    +0.038 C 
ENDBRANCH  15  17
ENDBRANCH  14  15
ENDBRANCH   5  14
ENDBRANCH   4   8
ENDBRANCH   1   4
BRANCH   1  18
ATOM     18  C   UNL     1      -8.780  -4.279   0.049  0.00  0.00    -0.063 C 
BRANCH  18  19
ATOM     19  C   UNL     1      -9.903  -3.241   0.057  0.00  0.00    +0.085 C 
BRANCH  19  20
ATOM     20  N   UNL     1     -11.199  -3.924   0.062  0.00  0.00    -0.312 N 
ATOM     21  C   UNL     1     -12.340  -3.206   0.070  0.00  0.00    +0.269 C 
ATOM     22  O   UNL     1     -12.293  -1.992   0.072  0.00  0.00    -0.268 OA
ATOM     23  H   UNL     1     -11.237  -4.894   0.061  0.00  0.00    +0.149 HD
BRANCH  21  24
ATOM     24  C   UNL     1     -13.650  -3.897   0.076  0.00  0.00    +0.209 A 
ATOM     25  C   UNL     1     -14.965  -3.246   0.079  0.00  0.00    +0.192 A 
ATOM     26  N   UNL     1     -15.882  -4.175   0.084  0.00  0.00    -0.033 NA
ATOM     27  O   UNL     1     -15.230  -5.432   0.085  0.00  0.00    -0.240 OA
ATOM     28  N   UNL     1     -13.834  -5.192   0.074  0.00  0.00    -0.042 NA
ATOM     29  N   UNL     1     -15.195  -1.877   0.076  0.00  0.00    -0.339 N 
ATOM     30  H   UNL     1     -14.446  -1.260   0.072  0.00  0.00    +0.144 HD
ATOM     31  H   UNL     1     -16.103  -1.538   0.078  0.00  0.00    +0.144 HD
ENDBRANCH  21  24
ENDBRANCH  19  20
ENDBRANCH  18  19
ENDBRANCH   1  18
TORSDOF 10
