REMARK  Name = ZINC58884592
REMARK  11 active torsions:
REMARK  status: ('A' for Active; 'I' for Inactive)
REMARK    1  A    between atoms: C_1  and  C_2
REMARK    2  A    between atoms: C_2  and  N_3
REMARK    3  A    between atoms: N_3  and  C_4
REMARK    4  A    between atoms: N_3  and  C_6
REMARK    5  A    between atoms: C_4  and  C_5
REMARK    6  A    between atoms: C_6  and  C_8
REMARK    7  A    between atoms: C_6  and  C_29
REMARK    8  A    between atoms: C_8  and  N_9
REMARK    9  A    between atoms: N_12  and  C_13
REMARK   10  A    between atoms: C_17  and  N_19
REMARK   11  A    between atoms: N_22  and  C_23
REMARK                            x       y       z     vdW  Elec       q    Type
REMARK                         _______ _______ _______ _____ _____    ______ ____
ROOT
ATOM      1  N   UNL     1       1.205  -2.238   3.346  0.00  0.00    -0.300 N 
ATOM      2  C   UNL     1       1.836  -2.541   4.498  0.00  0.00    +0.304 C 
ATOM      3  O   UNL     1       2.972  -2.973   4.474  0.00  0.00    -0.253 OA
ATOM      4  N   UNL     1       1.207  -2.364   5.677  0.00  0.00    -0.269 N 
ATOM      5  H   UNL     1       0.299  -1.893   3.366  0.00  0.00    +0.150 HD
ATOM      6  H   UNL     1       0.276  -2.094   5.694  0.00  0.00    +0.156 HD
ENDROOT
BRANCH   4   7
ATOM      7  C   UNL     1       1.898  -2.571   6.877  0.00  0.00    +0.037 A 
ATOM      8  C   UNL     1       1.236  -3.099   7.978  0.00  0.00    +0.023 A 
ATOM      9  C   UNL     1       1.917  -3.304   9.162  0.00  0.00    +0.004 A 
ATOM     10  C   UNL     1       3.258  -2.985   9.255  0.00  0.00    +0.023 A 
ATOM     11  C   UNL     1       3.925  -2.457   8.158  0.00  0.00    +0.037 A 
ATOM     12  C   UNL     1       3.245  -2.255   6.965  0.00  0.00    +0.046 A 
BRANCH  11  13
ATOM     13  N   UNL     1       5.284  -2.134   8.253  0.00  0.00    -0.269 N 
ATOM     14  C   UNL     1       6.103  -2.883   9.018  0.00  0.00    +0.308 C 
ATOM     15  O   UNL     1       5.684  -3.894   9.547  0.00  0.00    -0.252 OA
ATOM     16  N   UNL     1       7.386  -2.510   9.197  0.00  0.00    -0.269 N 
ATOM     17  H   UNL     1       5.636  -1.371   7.768  0.00  0.00    +0.156 HD
ATOM     18  H   UNL     1       7.738  -1.741   8.722  0.00  0.00    +0.156 HD
BRANCH  16  19
ATOM     19  C   UNL     1       8.209  -3.233  10.067  0.00  0.00    +0.035 A 
ATOM     20  C   UNL     1       8.068  -4.610  10.175  0.00  0.00    +0.023 A 
ATOM     21  C   UNL     1       8.883  -5.320  11.035  0.00  0.00    +0.002 A 
ATOM     22  C   UNL     1       9.839  -4.662  11.787  0.00  0.00    +0.000 A 
ATOM     23  C   UNL     1       9.982  -3.290  11.681  0.00  0.00    +0.002 A 
ATOM     24  C   UNL     1       9.174  -2.575  10.819  0.00  0.00    +0.023 A 
ENDBRANCH  16  19
ENDBRANCH  11  13
ENDBRANCH   4   7
BRANCH   1  25
ATOM     25  C   UNL     1       1.889  -2.429   2.065  0.00  0.00    +0.095 C 
BRANCH  25  26
ATOM     26  C   UNL     1       1.030  -1.853   0.937  0.00  0.00    -0.020 C 
BRANCH  26  27
ATOM     27  C   UNL     1       1.631  -2.227  -0.393  0.00  0.00    -0.052 A 
ATOM     28  C   UNL     1       1.114  -3.279  -1.126  0.00  0.00    +0.009 A 
ATOM     29  C   UNL     1       1.677  -3.589  -2.319  0.00  0.00    +0.045 A 
ATOM     30  S   UNL     1       2.981  -2.375  -2.438  0.00  0.00    -0.105 S 
ATOM     31  C   UNL     1       2.683  -1.533  -0.892  0.00  0.00    +0.047 A 
ENDBRANCH  26  27
BRANCH  26  32
ATOM     32  N   UNL     1       0.980  -0.390   1.059  0.00  0.00    +0.385 N 
ATOM     33  H   UNL     1       1.919  -0.024   1.103  0.00  0.00    -0.081 HD
BRANCH  32  35
ATOM     34  C   UNL     1       0.355   1.702  -0.050  0.00  0.00    -0.017 C 
ATOM     35  C   UNL     1       0.289   0.175  -0.108  0.00  0.00    -0.081 C 
ENDBRANCH  32  35
BRANCH  32  36
ATOM     36  C   UNL     1       0.254  -0.024   2.282  0.00  0.00    -0.081 C 
ATOM     37  C   UNL     1      -1.133  -0.669   2.264  0.00  0.00    -0.017 C 
ENDBRANCH  32  36
ENDBRANCH  26  32
ENDBRANCH  25  26
ENDBRANCH   1  25
TORSDOF 9
