REMARK  Name = ZINC06469167
REMARK  10 active torsions:
REMARK  status: ('A' for Active; 'I' for Inactive)
REMARK    1  A    between atoms: C_1  and  C_2
REMARK    2  A    between atoms: C_2  and  C_3
REMARK    3  A    between atoms: C_3  and  CA_4
REMARK    4  A    between atoms: CA_4  and  C_6
REMARK    5  A    between atoms: CA_4  and  N_8
REMARK    6  A    between atoms: C_10  and  CA_12
REMARK    7  A    between atoms: CA_12  and  N_21
REMARK    8  A    between atoms: C_13  and  C_14
REMARK    9  A    between atoms: C_22  and  C_24
REMARK   10  A    between atoms: C_27  and  C_30
REMARK                            x       y       z     vdW  Elec       q    Type
REMARK                         _______ _______ _______ _____ _____    ______ ____
ROOT
ATOM      1  CA  UNL     1       0.340  -4.614  -2.511  0.00  0.00    +0.097 C 
ATOM      2  C   UNL     1       0.228  -3.758  -3.553  0.00  0.00    +0.036 C 
ENDROOT
BRANCH   2   3
ATOM      3  C   UNL     1      -0.297  -2.401  -3.337  0.00  0.00    -0.023 A 
ATOM      4  C   UNL     1      -1.083  -1.786  -4.317  0.00  0.00    +0.009 A 
ATOM      5  C   UNL     1      -1.575  -0.516  -4.105  0.00  0.00    +0.016 A 
ATOM      6  C   UNL     1      -1.284   0.156  -2.929  0.00  0.00    +0.018 A 
ATOM      7  C   UNL     1      -0.503  -0.444  -1.956  0.00  0.00    +0.016 A 
ATOM      8  C   UNL     1      -0.008  -1.716  -2.152  0.00  0.00    +0.009 A 
ATOM      9 BR   UNL     1      -1.958   1.901  -2.652  0.00  0.00    -0.050 Br
ENDBRANCH   2   3
BRANCH   1  12
ATOM     10  N   UNL     1      -1.536  -4.207  -1.004  0.00  0.00    -0.297 N 
ATOM     11  H   UNL     1      -2.136  -4.490  -1.711  0.00  0.00    +0.150 HD
ATOM     12  C   UNL     1      -0.203  -4.246  -1.196  0.00  0.00    +0.259 C 
ATOM     13  O   UNL     1       0.552  -3.976  -0.280  0.00  0.00    -0.269 OA
BRANCH  10  14
ATOM     14  CA  UNL     1      -2.079  -3.738   0.274  0.00  0.00    +0.186 C 
BRANCH  14  15
ATOM     15  C   UNL     1      -2.142  -4.888   1.246  0.00  0.00    +0.376 C 
ATOM     16  O   UNL     1      -1.771  -5.987   0.906  0.00  0.00    -0.244 OA
ATOM     17  OXT UNL     1      -2.609  -4.692   2.488  0.00  0.00    -0.244 OA
ENDBRANCH  14  15
BRANCH  14  18
ATOM     18  C   UNL     1      -3.486  -3.178   0.055  0.00  0.00    +0.033 C 
BRANCH  18  20
ATOM     19  C   UNL     1      -4.812  -1.364  -1.037  0.00  0.00    +0.004 C 
ATOM     20  C   UNL     1      -3.405  -1.924  -0.819  0.00  0.00    -0.001 C 
ENDBRANCH  18  20
ENDBRANCH  14  18
ENDBRANCH  10  14
ENDBRANCH   1  12
BRANCH   1  21
ATOM     21  N   UNL     1       0.973  -5.848  -2.686  0.00  0.00    -0.277 N 
ATOM     22  C   UNL     1       0.983  -6.748  -1.683  0.00  0.00    +0.248 C 
ATOM     23  O   UNL     1       0.361  -6.528  -0.662  0.00  0.00    -0.270 OA
ATOM     24  H   UNL     1       1.404  -6.057  -3.530  0.00  0.00    +0.155 HD
BRANCH  22  25
ATOM     25  C   UNL     1       1.752  -8.003  -1.824  0.00  0.00    +0.037 A 
ATOM     26  C   UNL     1       2.463  -8.262  -2.997  0.00  0.00    +0.013 A 
ATOM     27  C   UNL     1       3.182  -9.432  -3.120  0.00  0.00    +0.004 A 
ATOM     28  C   UNL     1       3.190 -10.354  -2.088  0.00  0.00    -0.050 A 
ATOM     29  C   UNL     1       2.483 -10.106  -0.925  0.00  0.00    +0.004 A 
ATOM     30  C   UNL     1       1.764  -8.937  -0.787  0.00  0.00    +0.013 A 
ATOM     31  C   UNL     1       3.972 -11.634  -2.232  0.00  0.00    +0.044 C 
ENDBRANCH  22  25
ENDBRANCH   1  21
TORSDOF 8
