REMARK  Name = ZINC11685559
REMARK  7 active torsions:
REMARK  status: ('A' for Active; 'I' for Inactive)
REMARK    1  A    between atoms: C_1  and  C_2
REMARK    2  A    between atoms: C_2  and  C_4
REMARK    3  A    between atoms: C_2  and  S_19
REMARK    4  A    between atoms: N_6  and  C_7
REMARK    5  A    between atoms: C_8  and  C_17
REMARK    6  A    between atoms: S_19  and  C_20
REMARK    7  A    between atoms: N_24  and  C_29
REMARK                            x       y       z     vdW  Elec       q    Type
REMARK                         _______ _______ _______ _____ _____    ______ ____
ROOT
ATOM      1  C   UNL     1       1.147   1.655   0.000  0.00  0.00    +0.231 C 
ATOM      2  O   UNL     1       1.130   2.868   0.007  0.00  0.00    -0.274 OA
ATOM      3  N   UNL     1      -0.011   0.966   0.007  0.00  0.00    -0.278 N 
ATOM      4  H   UNL     1       0.002  -0.004   0.002  0.00  0.00    +0.155 HD
ENDROOT
BRANCH   3   5
ATOM      5  C   UNL     1      -1.222   1.643   0.017  0.00  0.00    +0.090 A 
ATOM      6  C   UNL     1      -2.503   1.117   0.020  0.00  0.00    +0.084 A 
ATOM      7  C   UNL     1      -3.621   2.051   0.034  0.00  0.00    -0.018 A 
ATOM      8  C   UNL     1      -3.272   3.356   0.032  0.00  0.00    -0.004 A 
ATOM      9  S   UNL     1      -1.500   3.353   0.035  0.00  0.00    -0.077 S 
ATOM     10  C   UNL     1      -4.179   4.546   0.029  0.00  0.00    +0.043 C 
ATOM     11  C   UNL     1      -5.245   4.372   1.119  0.00  0.00    +0.005 C 
ATOM     12  C   UNL     1      -6.440   3.642   0.515  0.00  0.00    +0.001 C 
ATOM     13  C   UNL     1      -5.969   2.657  -0.553  0.00  0.00    +0.005 C 
ATOM     14  C   UNL     1      -5.072   1.589   0.063  0.00  0.00    +0.037 C 
BRANCH   6  15
ATOM     15  C   UNL     1      -2.722  -0.298   0.011  0.00  0.00    +0.102 C 
ATOM     16  N   UNL     1      -2.895  -1.421   0.003  0.00  0.00    -0.191 NA
ENDBRANCH   6  15
ENDBRANCH   3   5
BRANCH   1  18
ATOM     17  C   UNL     1       2.832   0.569  -1.459  0.00  0.00    +0.029 C 
ATOM     18  C   UNL     1       2.462   0.920  -0.017  0.00  0.00    +0.136 C 
BRANCH  18  19
ATOM     19  S   UNL     1       3.750   1.971   0.698  0.00  0.00    -0.093 S 
BRANCH  19  20
ATOM     20  C   UNL     1       5.103   0.842   0.695  0.00  0.00    +0.112 A 
ATOM     21  C   UNL     1       6.370   1.232   1.173  0.00  0.00    +0.070 A 
ATOM     22  C   UNL     1       6.903   2.421   1.716  0.00  0.00    +0.147 A 
ATOM     23  N   UNL     1       8.160   2.220   1.995  0.00  0.00    -0.177 NA
ATOM     24  N   UNL     1       8.512   0.905   1.664  0.00  0.00    -0.249 N 
ATOM     25  C   UNL     1       7.412   0.286   1.149  0.00  0.00    +0.162 A 
ATOM     26  N   UNL     1       7.163  -0.932   0.669  0.00  0.00    -0.216 NA
ATOM     27  C   UNL     1       5.965  -1.248   0.229  0.00  0.00    +0.224 A 
ATOM     28  N   UNL     1       4.956  -0.396   0.235  0.00  0.00    -0.228 NA
ATOM     29  C   UNL     1       9.837   0.304   1.830  0.00  0.00    +0.174 C 
ENDBRANCH  19  20
ENDBRANCH  18  19
ENDBRANCH   1  18
TORSDOF 5
