REMARK  Name = ZINC39890070
REMARK  1 active torsions:
REMARK  status: ('A' for Active; 'I' for Inactive)
REMARK    1  A    between atoms: C_1  and  N_2
REMARK                            x       y       z     vdW  Elec       q    Type
REMARK                         _______ _______ _______ _____ _____    ______ ____
ROOT
ATOM      1  C   UNL     1      -0.018   1.461   0.010  0.00  0.00    +0.138 C 
ATOM      2  N   UNL     1       0.002  -0.004   0.002  0.00  0.00    -0.272 N 
ATOM      3  C   UNL     1      -1.135  -0.793   0.003  0.00  0.00    +0.042 A 
ATOM      4  C   UNL     1      -2.478  -0.412   0.011  0.00  0.00    +0.024 A 
ATOM      5  C   UNL     1      -3.424  -1.425   0.011  0.00  0.00    +0.002 A 
ATOM      6  C   UNL     1      -3.067  -2.758   0.005  0.00  0.00    +0.000 A 
ATOM      7  C   UNL     1      -1.733  -3.151  -0.004  0.00  0.00    +0.008 A 
ATOM      8  C   UNL     1      -0.786  -2.150  -0.006  0.00  0.00    +0.011 A 
ATOM      9  C   UNL     1       0.708  -2.196  -0.018  0.00  0.00    +0.180 C 
ATOM     10  C   UNL     1       1.131  -0.743  -0.013  0.00  0.00    +0.253 C 
ATOM     11  O   UNL     1       2.269  -0.323  -0.020  0.00  0.00    -0.272 OA
ATOM     12  C   UNL     1       1.269  -2.938   1.144  0.00  0.00    +0.085 A 
ATOM     13  C   UNL     1       1.121  -2.741   2.589  0.00  0.00    +0.199 A 
ATOM     14  O   UNL     1       0.316  -1.967   3.077  0.00  0.00    -0.287 OA
ATOM     15  C   UNL     1       2.042  -3.574   3.402  0.00  0.00    +0.067 A 
ATOM     16  C   UNL     1       2.158  -3.362   4.776  0.00  0.00    +0.053 A 
ATOM     17  C   UNL     1       3.023  -4.141   5.515  0.00  0.00    +0.124 A 
ATOM     18  C   UNL     1       3.775  -5.129   4.891  0.00  0.00    +0.042 A 
ATOM     19  C   UNL     1       3.666  -5.348   3.536  0.00  0.00    +0.050 A 
ATOM     20  C   UNL     1       2.794  -4.577   2.768  0.00  0.00    +0.140 A 
ATOM     21  O   UNL     1       2.695  -4.824   1.442  0.00  0.00    -0.450 OA
ATOM     22  C   UNL     1       2.041  -3.954   0.648  0.00  0.00    +0.200 A 
ATOM     23  C   UNL     1       1.997  -3.892  -0.823  0.00  0.00    +0.289 C 
ATOM     24  O   UNL     1       2.579  -4.654  -1.569  0.00  0.00    -0.266 OA
ATOM     25  N   UNL     1       1.215  -2.866  -1.221  0.00  0.00    -0.220 N 
ATOM     26  C   UNL     1       0.940  -2.508  -2.533  0.00  0.00    +0.169 A 
ATOM     27  N   UNL     1       0.192  -1.518  -2.971  0.00  0.00    -0.233 NA
ATOM     28  C   UNL     1       0.029  -1.307  -4.264  0.00  0.00    +0.120 A 
ATOM     29  C   UNL     1       0.663  -2.154  -5.112  0.00  0.00    +0.068 A 
ATOM     30  S   UNL     1       1.487  -3.232  -3.951  0.00  0.00    -0.060 S 
ATOM     31  F   UNL     1       3.141  -3.942   6.846  0.00  0.00    -0.205 F 
ENDROOT
TORSDOF 0
