REMARK  Name = ZINC15860613
REMARK  5 active torsions:
REMARK  status: ('A' for Active; 'I' for Inactive)
REMARK    1  A    between atoms: C_4  and  C_7
REMARK    2  A    between atoms: N_10  and  C_23
REMARK    3  A    between atoms: C_11  and  S_13
REMARK    4  A    between atoms: S_13  and  C_14
REMARK    5  A    between atoms: C_14  and  C_15
REMARK                            x       y       z     vdW  Elec       q    Type
REMARK                         _______ _______ _______ _____ _____    ______ ____
ROOT
ATOM      1  C   UNL     1       4.788   4.129  -0.041  0.00  0.00    +0.159 C 
ATOM      2  N   UNL     1       6.019   3.775  -0.299  0.00  0.00    -0.245 NA
ATOM      3  C   UNL     1       6.333   2.385  -0.652  0.00  0.00    +0.257 C 
ATOM      4  N   UNL     1       5.318   1.512  -0.035  0.00  0.00    -0.260 N 
ATOM      5  C   UNL     1       4.011   1.944  -0.058  0.00  0.00    +0.165 C 
ATOM      6  N   UNL     1       3.776   3.245  -0.044  0.00  0.00    -0.206 NA
ENDROOT
BRANCH   4   7
ATOM      7  C   UNL     1       5.668   0.289   0.549  0.00  0.00    +0.038 A 
ATOM      8  C   UNL     1       5.542   0.112   1.921  0.00  0.00    +0.026 A 
ATOM      9  C   UNL     1       5.882  -1.097   2.494  0.00  0.00    +0.040 A 
ATOM     10  C   UNL     1       6.359  -2.130   1.703  0.00  0.00    +0.124 A 
ATOM     11  C   UNL     1       6.490  -1.954   0.336  0.00  0.00    +0.040 A 
ATOM     12  C   UNL     1       6.146  -0.747  -0.242  0.00  0.00    +0.026 A 
ATOM     13  F   UNL     1       6.695  -3.311   2.267  0.00  0.00    -0.205 F 
ENDBRANCH   4   7
BRANCH   1  17
ATOM     14  C   UNL     1       3.958   8.207   0.834  0.00  0.00    +0.000 A 
ATOM     15  C   UNL     1       2.930   7.281   0.825  0.00  0.00    +0.001 A 
ATOM     16  C   UNL     1       3.194   5.956   0.542  0.00  0.00    +0.011 A 
ATOM     17  C   UNL     1       4.498   5.552   0.264  0.00  0.00    +0.019 A 
ATOM     18  C   UNL     1       5.531   6.488   0.280  0.00  0.00    +0.011 A 
ATOM     19  C   UNL     1       5.255   7.811   0.559  0.00  0.00    +0.001 A 
ENDBRANCH   1  17
BRANCH   5  20
ATOM     20  S   UNL     1       2.682   0.789  -0.096  0.00  0.00    -0.081 S 
BRANCH  20  21
ATOM     21  C   UNL     1       1.275   1.928  -0.105  0.00  0.00    +0.173 C 
BRANCH  21  22
ATOM     22  C   UNL     1      -0.009   1.140  -0.137  0.00  0.00    +0.229 C 
ATOM     23  O   UNL     1       0.023  -0.072  -0.153  0.00  0.00    -0.275 OA
ATOM     24  N   UNL     1      -1.194   1.783  -0.155  0.00  0.00    -0.264 N 
ATOM     25  C   UNL     1      -2.378   1.057  -0.191  0.00  0.00    +0.164 A 
ATOM     26  N   UNL     1      -2.548  -0.251  -0.217  0.00  0.00    -0.233 NA
ATOM     27  C   UNL     1      -3.754  -0.783  -0.245  0.00  0.00    +0.120 A 
ATOM     28  C   UNL     1      -4.826   0.047  -0.258  0.00  0.00    +0.068 A 
ATOM     29  S   UNL     1      -4.014   1.638  -0.219  0.00  0.00    -0.061 S 
ATOM     30  H   UNL     1      -1.220   2.753  -0.143  0.00  0.00    +0.157 HD
ENDBRANCH  21  22
ENDBRANCH  20  21
ENDBRANCH   5  20
TORSDOF 5
