REMARK  Name = ZINC33256395
REMARK  10 active torsions:
REMARK  status: ('A' for Active; 'I' for Inactive)
REMARK    1  A    between atoms: C_1  and  C_2
REMARK    2  A    between atoms: C_2  and  C_3
REMARK    3  A    between atoms: C_3  and  N_4
REMARK    4  A    between atoms: C_5  and  C_7
REMARK    5  A    between atoms: C_7  and  N_8
REMARK    6  A    between atoms: C_16  and  C_35
REMARK    7  A    between atoms: C_19  and  N_24
REMARK    8  A    between atoms: N_24  and  S_25
REMARK    9  A    between atoms: S_25  and  C_28
REMARK   10  A    between atoms: C_32  and  C_34
REMARK                            x       y       z     vdW  Elec       q    Type
REMARK                         _______ _______ _______ _____ _____    ______ ____
ROOT
ATOM      1  N   UNL     1      -3.071  -5.006  -1.070  0.00  0.00    -0.291 NA
ATOM      2  C   UNL     1      -3.710  -4.817  -2.379  0.00  0.00    +0.104 C 
ATOM      3  C   UNL     1      -5.231  -4.923  -2.222  0.00  0.00    +0.122 C 
ATOM      4  N   UNL     1      -5.544  -6.196  -1.555  0.00  0.00    -0.313 N 
ATOM      5  C   UNL     1      -4.839  -6.518  -0.305  0.00  0.00    +0.122 C 
ATOM      6  C   UNL     1      -3.334  -6.350  -0.538  0.00  0.00    +0.104 C 
ATOM      7  C   UNL     1      -6.481  -7.070  -2.090  0.00  0.00    +0.123 A 
ATOM      8  C   UNL     1      -7.304  -6.622  -3.133  0.00  0.00    +0.059 A 
ATOM      9  C   UNL     1      -8.245  -7.486  -3.678  0.00  0.00    +0.076 A 
ATOM     10  C   UNL     1      -8.320  -8.837  -3.117  0.00  0.00    +0.016 A 
ATOM     11  C   UNL     1      -9.234  -9.777  -3.599  0.00  0.00    +0.035 A 
ATOM     12  C   UNL     1      -9.269 -11.039  -3.041  0.00  0.00    +0.049 A 
ATOM     13  C   UNL     1      -8.398 -11.379  -1.999  0.00  0.00    +0.026 A 
ATOM     14  C   UNL     1      -7.501 -10.480  -1.515  0.00  0.00    +0.030 A 
ATOM     15  C   UNL     1      -7.439  -9.184  -2.062  0.00  0.00    +0.074 A 
ATOM     16  N   UNL     1      -6.561  -8.288  -1.605  0.00  0.00    -0.232 NA
ENDROOT
BRANCH   9  17
ATOM     17  C   UNL     1      -9.133  -7.060  -4.776  0.00  0.00    +0.387 C 
ATOM     18  O   UNL     1      -9.011  -5.946  -5.264  0.00  0.00    -0.241 OA
ATOM     19  O   UNL     1      -9.993  -7.822  -5.197  0.00  0.00    -0.241 OA
ENDBRANCH   9  17
BRANCH  12  20
ATOM     20  N   UNL     1     -10.180 -11.982  -3.518  0.00  0.00    -0.216 N 
ATOM     21  H   UNL     1     -11.101 -11.726  -3.684  0.00  0.00    +0.174 HD
BRANCH  20  22
ATOM     22  S   UNL     1      -9.689 -13.538  -3.800  0.00  0.00    +0.072 S 
ATOM     23  O   UNL     1      -9.074 -13.993  -2.603  0.00  0.00    -0.150 OA
ATOM     24  O   UNL     1     -10.792 -14.211  -4.392  0.00  0.00    -0.150 OA
BRANCH  22  25
ATOM     25  C   UNL     1      -8.423 -13.471  -5.023  0.00  0.00    +0.109 A 
ATOM     26  C   UNL     1      -8.756 -13.501  -6.365  0.00  0.00    +0.029 A 
ATOM     27  C   UNL     1      -7.763 -13.449  -7.325  0.00  0.00    +0.002 A 
ATOM     28  C   UNL     1      -6.437 -13.366  -6.943  0.00  0.00    +0.003 A 
ATOM     29  C   UNL     1      -6.104 -13.336  -5.602  0.00  0.00    -0.049 A 
ATOM     30  C   UNL     1      -7.098 -13.384  -4.642  0.00  0.00    +0.032 A 
ATOM     31  C   UNL     1      -4.658 -13.246  -5.187  0.00  0.00    +0.044 C 
ENDBRANCH  22  25
ENDBRANCH  20  22
ENDBRANCH  12  20
BRANCH   1  32
ATOM     32  C   UNL     1      -1.628  -4.742  -1.146  0.00  0.00    +0.180 C 
BRANCH  32  34
ATOM     33  N   UNL     1      -0.144  -2.811  -1.576  0.00  0.00    -0.314 N 
ATOM     34  C   UNL     1      -1.400  -3.286  -1.458  0.00  0.00    +0.227 C 
ATOM     35  O   UNL     1      -2.345  -2.541  -1.603  0.00  0.00    -0.274 OA
ATOM     36  H   UNL     1       0.613  -3.407  -1.460  0.00  0.00    +0.149 HD
BRANCH  33  37
ATOM     37  C   UNL     1       0.079  -1.395  -1.879  0.00  0.00    +0.104 C 
BRANCH  37  39
ATOM     38  C   UNL     1       1.814   0.358  -2.275  0.00  0.00    +0.005 C 
ATOM     39  C   UNL     1       1.582  -1.120  -1.958  0.00  0.00    +0.015 C 
ENDBRANCH  37  39
ENDBRANCH  33  37
ENDBRANCH  32  34
ENDBRANCH   1  32
TORSDOF 8
