REMARK  Name = ZINC00985591
REMARK  5 active torsions:
REMARK  status: ('A' for Active; 'I' for Inactive)
REMARK    1  A    between atoms: C_1  and  C_2
REMARK    2  A    between atoms: C_5  and  C_8
REMARK    3  A    between atoms: C_15  and  N_29
REMARK    4  A    between atoms: C_16  and  C_27
REMARK    5  A    between atoms: C_17  and  C_19
REMARK                            x       y       z     vdW  Elec       q    Type
REMARK                         _______ _______ _______ _____ _____    ______ ____
ROOT
ATOM      1  C   UNL     1      -0.104  -4.735   0.081  0.00  0.00    +0.100 A 
ATOM      2  C   UNL     1       0.805  -5.331   0.960  0.00  0.00    +0.054 A 
ATOM      3  C   UNL     1       0.740  -6.683   0.782  0.00  0.00    +0.223 A 
ATOM      4  N   UNL     1      -0.179  -6.927  -0.174  0.00  0.00    -0.246 N 
ATOM      5  H   UNL     1      -0.437  -7.801  -0.507  0.00  0.00    +0.192 HD
ATOM      6  N   UNL     1      -0.701  -5.695  -0.599  0.00  0.00    -0.171 NA
ATOM      7  O   UNL     1       1.506  -7.552   1.488  0.00  0.00    -0.423 OA
ATOM      8  C   UNL     1       2.542  -7.046   2.188  0.00  0.00    +0.200 C 
ATOM      9  C   UNL     1       2.707  -5.728   2.440  0.00  0.00    +0.098 C 
ATOM     10  C   UNL     1       1.730  -4.685   1.959  0.00  0.00    +0.103 C 
ENDROOT
BRANCH  10  11
ATOM     11  C   UNL     1       0.932  -4.160   3.125  0.00  0.00    -0.016 A 
ATOM     12  C   UNL     1       0.074  -5.000   3.810  0.00  0.00    +0.007 A 
ATOM     13  C   UNL     1      -0.658  -4.519   4.879  0.00  0.00    +0.020 A 
ATOM     14  C   UNL     1      -0.532  -3.196   5.265  0.00  0.00    +0.042 A 
ATOM     15  C   UNL     1       0.326  -2.355   4.580  0.00  0.00    +0.040 A 
ATOM     16  C   UNL     1       1.062  -2.838   3.513  0.00  0.00    +0.046 A 
ATOM     17 CL   UNL     1       2.145  -1.785   2.657  0.00  0.00    -0.083 Cl
ATOM     18 CL   UNL     1      -1.452  -2.592   6.607  0.00  0.00    -0.083 Cl
ENDBRANCH  10  11
BRANCH   1  23
ATOM     19  C   UNL     1      -1.089   0.914  -0.457  0.00  0.00    +0.044 C 
ATOM     20  C   UNL     1      -0.832  -0.564  -0.316  0.00  0.00    -0.050 A 
ATOM     21  C   UNL     1      -1.893  -1.450  -0.305  0.00  0.00    +0.004 A 
ATOM     22  C   UNL     1      -1.663  -2.805  -0.176  0.00  0.00    +0.010 A 
ATOM     23  C   UNL     1      -0.358  -3.279  -0.058  0.00  0.00    +0.003 A 
ATOM     24  C   UNL     1       0.708  -2.382  -0.069  0.00  0.00    +0.010 A 
ATOM     25  C   UNL     1       0.466  -1.030  -0.204  0.00  0.00    +0.004 A 
ENDBRANCH   1  23
BRANCH   8  26
ATOM     26  N   UNL     1       3.484  -7.919   2.671  0.00  0.00    -0.328 N 
ATOM     27  H   UNL     1       3.393  -8.871   2.506  0.00  0.00    +0.145 HD
ATOM     28  H   UNL     1       4.241  -7.585   3.178  0.00  0.00    +0.145 HD
ENDBRANCH   8  26
BRANCH   9  29
ATOM     29  C   UNL     1       3.851  -5.307   3.191  0.00  0.00    +0.101 C 
ATOM     30  N   UNL     1       4.759  -4.974   3.787  0.00  0.00    -0.191 NA
ENDBRANCH   9  29
TORSDOF 4
