REMARK  Name = ZINC12664520
REMARK  7 active torsions:
REMARK  status: ('A' for Active; 'I' for Inactive)
REMARK    1  A    between atoms: C_1  and  C_2
REMARK    2  A    between atoms: C_4  and  C_32
REMARK    3  A    between atoms: N_8  and  C_31
REMARK    4  A    between atoms: N_10  and  C_11
REMARK    5  A    between atoms: C_11  and  C_13
REMARK    6  A    between atoms: N_18  and  S_20
REMARK    7  A    between atoms: S_20  and  C_23
REMARK                            x       y       z     vdW  Elec       q    Type
REMARK                         _______ _______ _______ _____ _____    ______ ____
ROOT
ATOM      1  C   UNL     1       1.442   3.030   0.832  0.00  0.00    +0.093 C 
ATOM      2  C   UNL     1       0.662   3.876  -0.177  0.00  0.00    +0.015 C 
ATOM      3  C   UNL     1       0.673   5.341   0.267  0.00  0.00    +0.018 C 
ATOM      4  C   UNL     1       2.119   5.847   0.308  0.00  0.00    +0.109 C 
ATOM      5  N   UNL     1       2.909   4.951   1.164  0.00  0.00    -0.176 NA
ATOM      6  C   UNL     1       2.896   3.510   0.880  0.00  0.00    +0.122 C 
ENDROOT
BRANCH   5   7
ATOM      7  S   UNL     1       3.799   5.555   2.423  0.00  0.00    +0.061 S 
ATOM      8  O   UNL     1       3.201   6.792   2.786  0.00  0.00    -0.153 OA
ATOM      9  O   UNL     1       3.967   4.490   3.349  0.00  0.00    -0.153 OA
BRANCH   7  10
ATOM     10  C   UNL     1       5.401   5.934   1.795  0.00  0.00    +0.106 A 
ATOM     11  C   UNL     1       6.399   4.978   1.825  0.00  0.00    +0.030 A 
ATOM     12  C   UNL     1       7.654   5.274   1.327  0.00  0.00    +0.022 A 
ATOM     13  C   UNL     1       7.915   6.530   0.810  0.00  0.00    +0.041 A 
ATOM     14  C   UNL     1       6.917   7.488   0.786  0.00  0.00    +0.022 A 
ATOM     15  C   UNL     1       5.660   7.190   1.278  0.00  0.00    +0.030 A 
ATOM     16 CL   UNL     1       9.493   6.904   0.192  0.00  0.00    -0.084 Cl
ENDBRANCH   7  10
ENDBRANCH   5   7
BRANCH   1  17
ATOM     17  C   UNL     1       1.403   1.583   0.412  0.00  0.00    +0.243 C 
ATOM     18  O   UNL     1       2.438   0.991   0.173  0.00  0.00    -0.273 OA
BRANCH  17  28
ATOM     19  C   UNL     1       0.666  -1.403  -6.696  0.00  0.00    +0.044 C 
ATOM     20  C   UNL     1       0.056  -1.304  -5.321  0.00  0.00    -0.048 A 
ATOM     21  C   UNL     1      -1.107  -2.003  -5.042  0.00  0.00    +0.008 A 
ATOM     22  C   UNL     1      -1.664  -1.909  -3.779  0.00  0.00    -0.034 A 
ATOM     23  C   UNL     1      -1.057  -1.127  -2.825  0.00  0.00    +0.042 A 
ATOM     24  C   UNL     1       0.120  -0.409  -3.079  0.00  0.00    +0.058 A 
ATOM     25  C   UNL     1       0.664  -0.522  -4.368  0.00  0.00    +0.030 A 
ATOM     26  N   UNL     1       0.596   0.325  -2.009  0.00  0.00    -0.324 N 
ATOM     27  C   UNL     1      -0.070   0.314  -0.824  0.00  0.00    +0.166 A 
ATOM     28  N   UNL     1       0.238   0.954   0.302  0.00  0.00    -0.156 NA
ATOM     29  S   UNL     1      -1.412  -0.740  -1.129  0.00  0.00    -0.052 S 
ATOM     30  C   UNL     1       1.820   1.118  -2.152  0.00  0.00    +0.151 C 
ATOM     31  C   UNL     1      -2.930  -2.660  -3.451  0.00  0.00    +0.045 C 
ENDBRANCH  17  28
ENDBRANCH   1  17
TORSDOF 4
