REMARK  Name = ZINC23259786
REMARK  10 active torsions:
REMARK  status: ('A' for Active; 'I' for Inactive)
REMARK    1  A    between atoms: C_1  and  C_2
REMARK    2  A    between atoms: C_2  and  C_4
REMARK    3  A    between atoms: C_2  and  N_14
REMARK    4  A    between atoms: C_7  and  S_10
REMARK    5  A    between atoms: S_10  and  N_13
REMARK    6  A    between atoms: N_14  and  C_15
REMARK    7  A    between atoms: N_14  and  C_16
REMARK    8  A    between atoms: C_16  and  C_17
REMARK    9  A    between atoms: N_19  and  C_20
REMARK   10  A    between atoms: C_25  and  N_26
REMARK                            x       y       z     vdW  Elec       q    Type
REMARK                         _______ _______ _______ _____ _____    ______ ____
ROOT
ATOM      1  N   UNL     1      -2.271   3.826   5.813  0.00  0.00    +0.388 N 
ATOM      2  C   UNL     1      -1.100   3.010   6.158  0.00  0.00    -0.095 C 
ATOM      3  H   UNL     1      -1.914   4.731   5.301  0.00  0.00    -0.081 HD
ENDROOT
BRANCH   1   5
ATOM      4  C   UNL     1      -4.315   4.023   4.478  0.00  0.00    -0.008 C 
ATOM      5  C   UNL     1      -3.161   3.107   4.891  0.00  0.00    -0.041 C 
BRANCH   5   6
ATOM      6  C   UNL     1      -2.386   2.693   3.667  0.00  0.00    -0.061 A 
ATOM      7  C   UNL     1      -2.602   1.452   3.099  0.00  0.00    +0.004 A 
ATOM      8  C   UNL     1      -1.892   1.072   1.975  0.00  0.00    +0.029 A 
ATOM      9  C   UNL     1      -0.964   1.934   1.420  0.00  0.00    +0.105 A 
ATOM     10  C   UNL     1      -0.743   3.173   1.991  0.00  0.00    +0.029 A 
ATOM     11  C   UNL     1      -1.458   3.555   3.112  0.00  0.00    +0.004 A 
BRANCH   9  12
ATOM     12  S   UNL     1      -0.058   1.449  -0.011  0.00  0.00    +0.056 S 
ATOM     13  O   UNL     1      -0.052   0.028  -0.027  0.00  0.00    -0.153 OA
ATOM     14  O   UNL     1       1.138   2.216  -0.013  0.00  0.00    -0.153 OA
BRANCH  12  15
ATOM     15  N   UNL     1      -0.933   1.933  -1.331  0.00  0.00    -0.204 NA
ATOM     16  H   UNL     1      -0.399   1.648  -2.250  0.00  0.00    +0.144 HD
ATOM     17  H   UNL     1      -1.061   3.026  -1.306  0.00  0.00    +0.144 HD
ENDBRANCH  12  15
ENDBRANCH   9  12
ENDBRANCH   5   6
ENDBRANCH   1   5
BRANCH   1  18
ATOM     18  C   UNL     1      -2.994   4.246   7.021  0.00  0.00    +0.019 C 
BRANCH  18  19
ATOM     19  C   UNL     1      -2.129   5.182   7.824  0.00  0.00    +0.201 C 
ATOM     20  O   UNL     1      -1.019   5.471   7.430  0.00  0.00    -0.278 OA
ATOM     21  N   UNL     1      -2.588   5.699   8.982  0.00  0.00    -0.285 N 
ATOM     22  H   UNL     1      -3.620   5.497   9.303  0.00  0.00    +0.155 HD
BRANCH  21  23
ATOM     23  C   UNL     1      -1.751   6.492   9.775  0.00  0.00    +0.060 A 
ATOM     24  C   UNL     1      -0.823   7.335   9.181  0.00  0.00    +0.045 A 
ATOM     25  C   UNL     1      -0.001   8.121   9.967  0.00  0.00    +0.043 A 
ATOM     26  C   UNL     1      -0.093   8.061  11.347  0.00  0.00    +0.022 A 
ATOM     27  C   UNL     1      -1.010   7.220  11.946  0.00  0.00    +0.031 A 
ATOM     28  C   UNL     1      -1.843   6.432  11.165  0.00  0.00    +0.088 A 
ATOM     29 CL   UNL     1       1.155   9.180   9.221  0.00  0.00    -0.083 Cl
BRANCH  28  30
ATOM     30  N   UNL     1      -2.775   5.577  11.772  0.00  0.00    -0.218 N 
ATOM     31  C   UNL     1      -3.044   5.480  13.088  0.00  0.00    +0.225 A 
ATOM     32  N   UNL     1      -3.974   4.573  13.246  0.00  0.00    -0.222 NA
ATOM     33  C   UNL     1      -4.316   4.066  12.062  0.00  0.00    +0.245 A 
ATOM     34  N   UNL     1      -3.609   4.648  11.129  0.00  0.00    -0.153 NA
ENDBRANCH  28  30
ENDBRANCH  21  23
ENDBRANCH  18  19
ENDBRANCH   1  18
TORSDOF 8
