REMARK  Name = ZINC44144418
REMARK  4 active torsions:
REMARK  status: ('A' for Active; 'I' for Inactive)
REMARK    1  A    between atoms: C_1  and  C_2
REMARK    2  A    between atoms: C_10  and  S_14
REMARK    3  A    between atoms: S_14  and  N_17
REMARK    4  A    between atoms: C_20  and  C_23
REMARK                            x       y       z     vdW  Elec       q    Type
REMARK                         _______ _______ _______ _____ _____    ______ ____
ROOT
ATOM      1  S   UNL     1       0.724  -5.597  -0.033  0.00  0.00    +0.062 S 
ATOM      2  O   UNL     1       0.398  -6.523  -1.060  0.00  0.00    -0.153 OA
ATOM      3  O   UNL     1       1.951  -4.881  -0.013  0.00  0.00    -0.153 OA
ENDROOT
BRANCH   1  13
ATOM      4  C   UNL     1      -0.018   1.503   0.010  0.00  0.00    +0.109 C 
ATOM      5  C   UNL     1       0.002  -0.004   0.002  0.00  0.00    +0.217 C 
ATOM      6  O   UNL     1       1.060  -0.596  -0.011  0.00  0.00    -0.276 OA
ATOM      7  N   UNL     1      -1.156  -0.694   0.009  0.00  0.00    -0.271 N 
ATOM      8  C   UNL     1      -2.492  -0.092   0.019  0.00  0.00    +0.118 C 
ATOM      9  C   UNL     1      -3.469  -1.279   0.024  0.00  0.00    +0.056 C 
ATOM     10  C   UNL     1      -2.581  -2.503   0.017  0.00  0.00    -0.023 A 
ATOM     11  C   UNL     1      -1.258  -2.089   0.003  0.00  0.00    +0.041 A 
ATOM     12  C   UNL     1      -0.246  -3.050  -0.011  0.00  0.00    +0.053 A 
ATOM     13  C   UNL     1      -0.562  -4.392  -0.015  0.00  0.00    +0.121 A 
ATOM     14  C   UNL     1      -1.885  -4.796  -0.005  0.00  0.00    +0.045 A 
ATOM     15  C   UNL     1      -2.893  -3.849   0.017  0.00  0.00    +0.022 A 
ATOM     16 BR   UNL     1      -2.314  -6.638  -0.012  0.00  0.00    -0.048 Br
ENDBRANCH   1  13
BRANCH   1  17
ATOM     17  N   UNL     1       0.637  -6.427   1.398  0.00  0.00    -0.177 NA
ATOM     18  C   UNL     1       1.381  -5.965   2.578  0.00  0.00    +0.110 C 
ATOM     19  C   UNL     1       2.234  -7.122   3.107  0.00  0.00    +0.025 C 
ATOM     20  C   UNL     1       1.338  -8.335   3.364  0.00  0.00    +0.022 C 
ATOM     21  C   UNL     1       0.685  -8.777   2.053  0.00  0.00    +0.025 C 
ATOM     22  C   UNL     1      -0.191  -7.635   1.513  0.00  0.00    +0.110 C 
BRANCH  20  23
ATOM     23  C   UNL     1       2.168  -9.465   3.917  0.00  0.00    -0.041 A 
ATOM     24  C   UNL     1       3.229  -9.986   3.192  0.00  0.00    +0.023 A 
ATOM     25  C   UNL     1       3.968 -11.022   3.731  0.00  0.00    +0.111 A 
ATOM     26  N   UNL     1       3.674 -11.514   4.919  0.00  0.00    -0.263 NA
ATOM     27  C   UNL     1       2.673 -11.042   5.636  0.00  0.00    +0.111 A 
ATOM     28  C   UNL     1       1.893 -10.003   5.165  0.00  0.00    +0.023 A 
ENDBRANCH  20  23
ENDBRANCH   1  17
TORSDOF 3
