REMARK  Name = ZINC38915623
REMARK  2 active torsions:
REMARK  status: ('A' for Active; 'I' for Inactive)
REMARK    1  A    between atoms: C_5  and  C_7
REMARK    2  A    between atoms: N_15  and  C_16
REMARK                            x       y       z     vdW  Elec       q    Type
REMARK                         _______ _______ _______ _____ _____    ______ ____
ROOT
ATOM      1  C   UNL     1       1.249  -2.215  -0.015  0.00  0.00    +0.224 C 
ATOM      2  N   UNL     1       0.063  -2.781   0.668  0.00  0.00    -0.166 NA
ATOM      3  N   UNL     1      -0.710  -3.451   0.022  0.00  0.00    -0.130 NA
ATOM      4  C   UNL     1      -0.569  -3.732  -1.320  0.00  0.00    +0.185 C 
ATOM      5  N   UNL     1      -1.351  -4.447  -2.109  0.00  0.00    -0.247 N 
ATOM      6  C   UNL     1      -1.034  -4.603  -3.405  0.00  0.00    +0.310 C 
ATOM      7  O   UNL     1      -0.027  -4.085  -3.853  0.00  0.00    -0.252 OA
ATOM      8  N   UNL     1      -1.832  -5.332  -4.210  0.00  0.00    -0.267 N 
ATOM      9  S   UNL     1       0.955  -2.872  -1.714  0.00  0.00    -0.055 S 
ATOM     10  H   UNL     1      -2.598  -5.798  -3.841  0.00  0.00    +0.156 HD
ATOM     11  H   UNL     1      -2.153  -4.859  -1.752  0.00  0.00    +0.158 HD
ENDROOT
BRANCH   1  16
ATOM     12  C   UNL     1       0.005   1.349   0.046  0.00  0.00    +0.000 A 
ATOM     13  C   UNL     1       1.192   2.057   0.037  0.00  0.00    +0.001 A 
ATOM     14  C   UNL     1       2.398   1.383   0.012  0.00  0.00    +0.015 A 
ATOM     15  C   UNL     1       2.417  -0.000  -0.005  0.00  0.00    +0.019 A 
ATOM     16  C   UNL     1       1.229  -0.708   0.004  0.00  0.00    +0.002 A 
ATOM     17  C   UNL     1       0.023  -0.033   0.029  0.00  0.00    +0.007 A 
ATOM     18  I   UNL     1       4.245  -1.023  -0.044  0.00  0.00    -0.043 I 
ENDBRANCH   1  16
BRANCH   8  19
ATOM     19  C   UNL     1      -1.554  -5.418  -5.580  0.00  0.00    +0.070 A 
ATOM     20  C   UNL     1      -0.239  -5.428  -6.024  0.00  0.00    +0.026 A 
ATOM     21  C   UNL     1       0.032  -5.513  -7.375  0.00  0.00    +0.002 A 
ATOM     22  C   UNL     1      -1.005  -5.587  -8.288  0.00  0.00    +0.003 A 
ATOM     23  C   UNL     1      -2.316  -5.577  -7.851  0.00  0.00    +0.040 A 
ATOM     24  C   UNL     1      -2.595  -5.499  -6.498  0.00  0.00    +0.145 A 
ATOM     25  F   UNL     1      -3.877  -5.496  -6.071  0.00  0.00    -0.204 F 
ENDBRANCH   8  19
TORSDOF 2
