REMARK  Name = ZINC34920390
REMARK  6 active torsions:
REMARK  status: ('A' for Active; 'I' for Inactive)
REMARK    1  A    between atoms: C_1  and  C_2
REMARK    2  A    between atoms: C_9  and  C_13
REMARK    3  A    between atoms: C_18  and  N_21
REMARK    4  A    between atoms: N_21  and  C_22
REMARK    5  A    between atoms: N_21  and  C_23
REMARK    6  A    between atoms: C_24  and  C_26
REMARK                            x       y       z     vdW  Elec       q    Type
REMARK                         _______ _______ _______ _____ _____    ______ ____
ROOT
ATOM      1  C   UNL     1      -0.493   1.100   1.285  0.00  0.00    +0.007 C 
ATOM      2  C   UNL     1      -0.327  -0.407   1.079  0.00  0.00    -0.014 C 
ATOM      3  C   UNL     1       0.192  -0.674  -0.336  0.00  0.00    +0.008 C 
ATOM      4  C   UNL     1       0.354  -2.181  -0.543  0.00  0.00    +0.056 C 
ATOM      5  C   UNL     1       1.344  -2.733   0.483  0.00  0.00    +0.139 C 
ATOM      6  C   UNL     1       0.834  -2.462   1.898  0.00  0.00    +0.056 C 
ATOM      7  C   UNL     1       0.671  -0.954   2.101  0.00  0.00    +0.008 C 
ATOM      8  N   UNL     1       1.508  -4.181   0.284  0.00  0.00    -0.255 N 
ATOM      9  C   UNL     1       2.935  -4.389  -0.050  0.00  0.00    +0.191 C 
ATOM     10  C   UNL     1       3.377  -2.992  -0.552  0.00  0.00    +0.194 C 
ATOM     11  O   UNL     1       2.623  -2.103   0.304  0.00  0.00    -0.354 OA
ATOM     12  C   UNL     1       0.553  -5.126   0.386  0.00  0.00    +0.249 C 
ATOM     13  O   UNL     1       0.830  -6.293   0.189  0.00  0.00    -0.270 OA
ENDROOT
BRANCH   9  14
ATOM     14  C   UNL     1       3.083  -5.423  -1.137  0.00  0.00    +0.238 C 
ATOM     15  O   UNL     1       2.124  -5.736  -1.811  0.00  0.00    -0.273 OA
ATOM     16  N   UNL     1       4.280  -6.000  -1.360  0.00  0.00    -0.300 N 
ATOM     17  C   UNL     1       5.416  -5.736  -0.467  0.00  0.00    +0.106 C 
ATOM     18  C   UNL     1       5.979  -7.074   0.023  0.00  0.00    +0.004 C 
ATOM     19  C   UNL     1       6.319  -7.952  -1.183  0.00  0.00    -0.066 C 
ATOM     20  C   UNL     1       5.048  -8.229  -1.989  0.00  0.00    +0.004 C 
ATOM     21  C   UNL     1       4.473  -6.909  -2.498  0.00  0.00    +0.106 C 
BRANCH  19  22
ATOM     22  N   UNL     1       6.891  -9.223  -0.718  0.00  0.00    +0.378 N 
ATOM     23  C   UNL     1       7.217 -10.066  -1.876  0.00  0.00    -0.096 C 
ATOM     24  C   UNL     1       8.111  -8.957   0.054  0.00  0.00    -0.096 C 
ATOM     25  H   UNL     1       6.220  -9.699  -0.134  0.00  0.00    -0.082 HD
ENDBRANCH  19  22
ENDBRANCH   9  14
BRANCH  12  26
ATOM     26  C   UNL     1      -0.830  -4.744   0.738  0.00  0.00    +0.037 A 
ATOM     27  C   UNL     1      -1.157  -3.400   0.934  0.00  0.00    +0.016 A 
ATOM     28  C   UNL     1      -2.449  -3.049   1.262  0.00  0.00    +0.039 A 
ATOM     29  C   UNL     1      -3.423  -4.027   1.398  0.00  0.00    +0.123 A 
ATOM     30  C   UNL     1      -3.103  -5.362   1.204  0.00  0.00    +0.039 A 
ATOM     31  C   UNL     1      -1.816  -5.724   0.870  0.00  0.00    +0.016 A 
ATOM     32  F   UNL     1      -4.687  -3.678   1.720  0.00  0.00    -0.205 F 
ENDBRANCH  12  26
TORSDOF 3
