REMARK  Name = ZINC05175877
REMARK  9 active torsions:
REMARK  status: ('A' for Active; 'I' for Inactive)
REMARK    1  A    between atoms: C_1  and  C_2
REMARK    2  A    between atoms: C_4  and  C_30
REMARK    3  A    between atoms: C_6  and  N_8
REMARK    4  A    between atoms: N_10  and  C_11
REMARK    5  A    between atoms: C_13  and  C_18
REMARK    6  A    between atoms: C_13  and  C_19
REMARK    7  A    between atoms: C_14  and  C_16
REMARK    8  A    between atoms: C_14  and  C_17
REMARK    9  A    between atoms: N_23  and  C_24
REMARK                            x       y       z     vdW  Elec       q    Type
REMARK                         _______ _______ _______ _____ _____    ______ ____
ROOT
ATOM      1  N   UNL     1       0.787   5.813  -1.265  0.00  0.00    -0.179 NA
ATOM      2  C   UNL     1       1.113   5.215  -2.391  0.00  0.00    +0.200 C 
ATOM      3  N   UNL     1       2.426   5.141  -2.769  0.00  0.00    -0.355 N 
ATOM      4  N   UNL     1       0.136   4.666  -3.187  0.00  0.00    -0.240 N 
ATOM      5  C   UNL     1       0.155   3.348  -3.466  0.00  0.00    +0.310 C 
ATOM      6  O   UNL     1       0.812   2.591  -2.778  0.00  0.00    -0.252 OA
ATOM      7  N   UNL     1      -0.553   2.869  -4.508  0.00  0.00    -0.269 N 
ATOM      8  H   UNL     1       2.877   5.927  -3.115  0.00  0.00    +0.163 HD
ATOM      9  H   UNL     1      -0.569   5.228  -3.547  0.00  0.00    +0.159 HD
ATOM     10  H   UNL     1      -0.990   2.006  -4.442  0.00  0.00    +0.156 HD
ENDROOT
BRANCH   3  11
ATOM     11  C   UNL     1       3.152   3.870  -2.653  0.00  0.00    +0.079 C 
ATOM     12  C   UNL     1       4.644   4.121  -2.870  0.00  0.00    +0.011 C 
ATOM     13  C   UNL     1       5.428   2.818  -2.735  0.00  0.00    -0.071 C 
ATOM     14  C   UNL     1       3.719   1.992  -1.089  0.00  0.00    -0.071 C 
ATOM     15  C   UNL     1       2.955   3.304  -1.247  0.00  0.00    +0.011 C 
ATOM     16  C   UNL     1       2.972   0.872  -1.824  0.00  0.00    -0.010 C 
ATOM     17  C   UNL     1       3.720   1.632   0.413  0.00  0.00    -0.010 C 
ATOM     18  C   UNL     1       6.928   3.180  -2.678  0.00  0.00    -0.010 C 
ATOM     19  C   UNL     1       5.215   1.959  -3.987  0.00  0.00    -0.010 C 
ATOM     20  N   UNL     1       5.150   2.047  -1.493  0.00  0.00    +0.386 N 
ATOM     21  H   UNL     1       5.680   2.478  -0.726  0.00  0.00    -0.084 HD
ATOM     22  H   UNL     1       5.477   1.084  -1.637  0.00  0.00    -0.084 HD
ENDBRANCH   3  11
BRANCH   1  28
ATOM     23  C   UNL     1       5.345   7.169  -0.819  0.00  0.00    +0.066 C 
ATOM     24  C   UNL     1       3.939   7.088  -0.281  0.00  0.00    +0.044 A 
ATOM     25  C   UNL     1       3.631   7.628   0.958  0.00  0.00    +0.046 A 
ATOM     26  C   UNL     1       2.326   7.534   1.419  0.00  0.00    +0.044 A 
ATOM     27  N   UNL     1       1.418   6.934   0.668  0.00  0.00    -0.216 NA
ATOM     28  C   UNL     1       1.745   6.425  -0.516  0.00  0.00    +0.254 A 
ATOM     29  N   UNL     1       2.989   6.495  -0.983  0.00  0.00    -0.216 NA
ATOM     30  C   UNL     1       1.948   8.108   2.759  0.00  0.00    +0.066 C 
ENDBRANCH   1  28
BRANCH   7  31
ATOM     31  C   UNL     1      -0.657   3.617  -5.686  0.00  0.00    +0.035 A 
ATOM     32  C   UNL     1      -0.500   4.997  -5.651  0.00  0.00    +0.023 A 
ATOM     33  C   UNL     1      -0.598   5.732  -6.816  0.00  0.00    +0.002 A 
ATOM     34  C   UNL     1      -0.864   5.097  -8.015  0.00  0.00    +0.000 A 
ATOM     35  C   UNL     1      -1.026   3.724  -8.053  0.00  0.00    +0.002 A 
ATOM     36  C   UNL     1      -0.924   2.983  -6.892  0.00  0.00    +0.023 A 
ENDBRANCH   7  31
TORSDOF 3
