REMARK  Name = ZINC40850573
REMARK  4 active torsions:
REMARK  status: ('A' for Active; 'I' for Inactive)
REMARK    1  A    between atoms: C_2  and  O_22
REMARK    2  A    between atoms: C_6  and  C_8
REMARK    3  A    between atoms: N_10  and  C_11
REMARK    4  A    between atoms: C_11  and  C_12
REMARK                            x       y       z     vdW  Elec       q    Type
REMARK                         _______ _______ _______ _____ _____    ______ ____
ROOT
ATOM      1  C   UNL     1      -0.723  -0.521  -1.214  0.00  0.00    +0.199 C 
ATOM      2  O   UNL     1      -0.095  -0.885  -2.185  0.00  0.00    -0.278 OA
ATOM      3  N   UNL     1      -2.070  -0.578  -1.221  0.00  0.00    -0.316 N 
ATOM      4  H   UNL     1      -2.572  -0.287  -0.444  0.00  0.00    +0.149 HD
ENDROOT
BRANCH   1   9
ATOM      5  C   UNL     1      -0.019   1.536   0.011  0.00  0.00    +0.023 C 
ATOM      6  C   UNL     1       1.468   1.960  -0.001  0.00  0.00    +0.097 C 
ATOM      7  C   UNL     1       2.191   0.705   0.550  0.00  0.00    -0.050 C 
ATOM      8  N   UNL     1       1.421  -0.418  -0.044  0.00  0.00    +0.388 N 
ATOM      9  C   UNL     1       0.002  -0.004   0.002  0.00  0.00    +0.018 C 
ATOM     10  H   UNL     1       1.708  -0.571  -0.999  0.00  0.00    -0.085 HD
ATOM     11  H   UNL     1       1.556  -1.258   0.499  0.00  0.00    -0.085 HD
BRANCH   6  12
ATOM     12  O   UNL     1       1.679   3.086   0.853  0.00  0.00    -0.394 OA
ATOM     13  H   UNL     1       2.596   3.391   0.881  0.00  0.00    +0.210 HD
ENDBRANCH   6  12
ENDBRANCH   1   9
BRANCH   3  14
ATOM     14  C   UNL     1      -2.775  -1.080  -2.403  0.00  0.00    +0.111 C 
BRANCH  14  15
ATOM     15  C   UNL     1      -4.284  -1.040  -2.152  0.00  0.00    -0.013 C 
ATOM     16  C   UNL     1      -4.716   0.401  -1.874  0.00  0.00    +0.012 C 
ATOM     17  C   UNL     1      -6.225   0.441  -1.623  0.00  0.00    -0.010 C 
ATOM     18  C   UNL     1      -6.962  -0.084  -2.857  0.00  0.00    +0.007 C 
ATOM     19  C   UNL     1      -6.529  -1.525  -3.135  0.00  0.00    -0.010 C 
ATOM     20  C   UNL     1      -5.020  -1.565  -3.386  0.00  0.00    +0.012 C 
ATOM     21  C   UNL     1      -6.868  -2.401  -1.928  0.00  0.00    +0.007 C 
ATOM     22  C   UNL     1      -6.132  -1.877  -0.694  0.00  0.00    -0.010 C 
ATOM     23  C   UNL     1      -6.565  -0.436  -0.416  0.00  0.00    +0.007 C 
ATOM     24  C   UNL     1      -4.623  -1.917  -0.945  0.00  0.00    +0.012 C 
ENDBRANCH  14  15
ENDBRANCH   3  14
TORSDOF 4
