REMARK  Name = ZINC34700134
REMARK  2 active torsions:
REMARK  status: ('A' for Active; 'I' for Inactive)
REMARK    1  A    between atoms: C_3  and  C_8
REMARK    2  A    between atoms: C_26  and  C_29
REMARK                            x       y       z     vdW  Elec       q    Type
REMARK                         _______ _______ _______ _____ _____    ______ ____
ROOT
ATOM      1  C   UNL     1       3.478   1.470   1.635  0.00  0.00    +0.247 C 
ATOM      2  O   UNL     1       3.328   2.183   2.608  0.00  0.00    -0.270 OA
ATOM      3  N   UNL     1       4.628   0.787   1.470  0.00  0.00    -0.295 N 
ATOM      4  C   UNL     1       4.871   0.015   0.243  0.00  0.00    +0.127 C 
ATOM      5  C   UNL     1       6.190   0.488  -0.380  0.00  0.00    +0.127 C 
ATOM      6  N   UNL     1       7.224   0.502   0.664  0.00  0.00    -0.298 N 
ATOM      7  C   UNL     1       6.981   1.274   1.891  0.00  0.00    +0.127 C 
ATOM      8  C   UNL     1       5.665   0.806   2.512  0.00  0.00    +0.127 C 
ATOM      9  C   UNL     1       8.396  -0.194   0.496  0.00  0.00    +0.206 A 
ATOM     10  N   UNL     1       8.441  -1.446   0.872  0.00  0.00    -0.215 NA
ATOM     11  C   UNL     1       9.562  -2.200   0.739  0.00  0.00    +0.079 A 
ATOM     12  C   UNL     1       9.591  -3.535   1.146  0.00  0.00    +0.048 A 
ATOM     13  C   UNL     1      10.746  -4.271   0.996  0.00  0.00    +0.043 A 
ATOM     14  C   UNL     1      11.886  -3.701   0.443  0.00  0.00    +0.021 A 
ATOM     15  C   UNL     1      11.881  -2.385   0.034  0.00  0.00    +0.015 A 
ATOM     16  C   UNL     1      10.724  -1.623   0.177  0.00  0.00    +0.045 A 
ATOM     17  C   UNL     1      10.660  -0.218  -0.240  0.00  0.00    +0.173 A 
ATOM     18  N   UNL     1       9.467   0.449  -0.062  0.00  0.00    -0.244 N 
ATOM     19  C   UNL     1       9.683   1.718  -0.536  0.00  0.00    +0.206 A 
ATOM     20  N   UNL     1      10.930   1.765  -0.965  0.00  0.00    -0.125 NA
ATOM     21  N   UNL     1      11.504   0.628  -0.782  0.00  0.00    -0.128 NA
ATOM     22 CL   UNL     1      10.778  -5.931   1.504  0.00  0.00    -0.083 Cl
ENDROOT
BRANCH   1  25
ATOM     23  C   UNL     1       1.181   0.039  -0.970  0.00  0.00    +0.004 A 
ATOM     24  C   UNL     1       2.190   0.144  -0.035  0.00  0.00    +0.013 A 
ATOM     25  C   UNL     1       2.398   1.352   0.631  0.00  0.00    +0.040 A 
ATOM     26  C   UNL     1       1.583   2.449   0.348  0.00  0.00    +0.051 A 
ATOM     27  C   UNL     1       0.575   2.331  -0.591  0.00  0.00    +0.124 A 
ATOM     28  C   UNL     1       0.375   1.128  -1.248  0.00  0.00    +0.038 A 
ATOM     29  F   UNL     1      -0.216   3.391  -0.867  0.00  0.00    -0.205 F 
ENDBRANCH   1  25
BRANCH  19  30
ATOM     30  C   UNL     1       8.708   2.818  -0.562  0.00  0.00    +0.172 A 
ATOM     31  C   UNL     1       8.900   4.071  -0.059  0.00  0.00    +0.053 A 
ATOM     32  C   UNL     1       7.715   4.791  -0.300  0.00  0.00    +0.042 A 
ATOM     33  C   UNL     1       6.865   3.955  -0.931  0.00  0.00    +0.196 A 
ATOM     34  O   UNL     1       7.470   2.767  -1.093  0.00  0.00    -0.460 OA
ENDBRANCH  19  30
TORSDOF 2
