REMARK  Name = ZINC34967754
REMARK  5 active torsions:
REMARK  status: ('A' for Active; 'I' for Inactive)
REMARK    1  A    between atoms: C_1  and  C_2
REMARK    2  A    between atoms: C_10  and  S_20
REMARK    3  A    between atoms: C_11  and  N_12
REMARK    4  A    between atoms: N_13  and  C_14
REMARK    5  A    between atoms: S_20  and  C_23
REMARK                            x       y       z     vdW  Elec       q    Type
REMARK                         _______ _______ _______ _____ _____    ______ ____
ROOT
ATOM      1  C   UNL     1       1.319   2.160   1.295  0.00  0.00    +0.045 C 
ATOM      2  C   UNL     1       1.041   0.693   1.092  0.00  0.00    -0.034 A 
ATOM      3  C   UNL     1       0.864   0.186  -0.205  0.00  0.00    +0.008 A 
ATOM      4  C   UNL     1       0.614  -1.139  -0.382  0.00  0.00    +0.047 A 
ATOM      5  C   UNL     1       0.535  -1.991   0.742  0.00  0.00    +0.143 A 
ATOM      6  N   UNL     1       0.290  -3.280   0.545  0.00  0.00    -0.211 NA
ATOM      7  C   UNL     1       0.201  -4.150   1.558  0.00  0.00    +0.150 A 
ATOM      8  C   UNL     1       0.374  -3.679   2.885  0.00  0.00    +0.084 A 
ATOM      9  C   UNL     1       0.284  -4.577   3.955  0.00  0.00    +0.047 A 
ATOM     10  C   UNL     1       0.030  -5.892   3.675  0.00  0.00    +0.132 A 
ATOM     11  C   UNL     1      -0.132  -6.299   2.348  0.00  0.00    +0.124 A 
ATOM     12  N   UNL     1      -0.046  -5.443   1.344  0.00  0.00    -0.309 N 
ATOM     13  C   UNL     1       0.643  -2.257   3.088  0.00  0.00    +0.268 A 
ATOM     14  O   UNL     1       0.800  -1.801   4.207  0.00  0.00    -0.267 OA
ATOM     15  N   UNL     1       0.714  -1.464   1.994  0.00  0.00    -0.267 N 
ATOM     16  C   UNL     1       0.969  -0.133   2.157  0.00  0.00    +0.099 A 
ENDROOT
BRANCH  12  17
ATOM     17  C   UNL     1      -0.224  -5.923  -0.028  0.00  0.00    +0.090 C 
ATOM     18  C   UNL     1       1.021  -5.586  -0.852  0.00  0.00    +0.025 C 
ATOM     19  C   UNL     1       0.835  -6.088  -2.285  0.00  0.00    +0.002 C 
ATOM     20  C   UNL     1      -0.388  -5.411  -2.908  0.00  0.00    +0.000 C 
ATOM     21  C   UNL     1      -1.632  -5.748  -2.084  0.00  0.00    +0.002 C 
ATOM     22  C   UNL     1      -1.446  -5.246  -0.651  0.00  0.00    +0.025 C 
ENDBRANCH  12  17
BRANCH  11  23
ATOM     23  N   UNL     1      -0.390  -7.632   2.077  0.00  0.00    -0.343 N 
ATOM     24  H   UNL     1      -0.805  -7.886   1.238  0.00  0.00    +0.144 HD
ATOM     25  H   UNL     1      -0.154  -8.313   2.727  0.00  0.00    +0.144 HD
ENDBRANCH  11  23
BRANCH  10  26
ATOM     26  S   UNL     1      -0.094  -7.066   4.983  0.00  0.00    +0.028 S 
ATOM     27  O   UNL     1       0.727  -8.168   4.618  0.00  0.00    -0.164 OA
ATOM     28  O   UNL     1       0.091  -6.347   6.194  0.00  0.00    -0.164 OA
BRANCH  26  29
ATOM     29  C   UNL     1      -1.753  -7.658   4.997  0.00  0.00    +0.094 A 
ATOM     30  C   UNL     1      -2.738  -6.938   5.648  0.00  0.00    +0.029 A 
ATOM     31  C   UNL     1      -4.040  -7.401   5.659  0.00  0.00    +0.022 A 
ATOM     32  C   UNL     1      -4.358  -8.586   5.019  0.00  0.00    +0.041 A 
ATOM     33  C   UNL     1      -3.372  -9.306   4.369  0.00  0.00    +0.022 A 
ATOM     34  C   UNL     1      -2.071  -8.839   4.353  0.00  0.00    +0.029 A 
ATOM     35 CL   UNL     1      -5.993  -9.169   5.034  0.00  0.00    -0.084 Cl
ENDBRANCH  26  29
ENDBRANCH  10  26
TORSDOF 4
