REMARK  Name = ZINC13278734
REMARK  6 active torsions:
REMARK  status: ('A' for Active; 'I' for Inactive)
REMARK    1  A    between atoms: C_3  and  S_21
REMARK    2  A    between atoms: C_6  and  N_7
REMARK    3  A    between atoms: N_7  and  S_8
REMARK    4  A    between atoms: S_8  and  C_11
REMARK    5  A    between atoms: C_13  and  C_18
REMARK    6  A    between atoms: S_21  and  N_24
REMARK                            x       y       z     vdW  Elec       q    Type
REMARK                         _______ _______ _______ _____ _____    ______ ____
ROOT
ATOM      1  C   UNL     1      -0.017   1.385   0.010  0.00  0.00    +0.028 A 
ATOM      2  C   UNL     1       1.171   2.090   0.002  0.00  0.00    +0.031 A 
ATOM      3  C   UNL     1       2.377   1.415  -0.013  0.00  0.00    +0.113 A 
ATOM      4  C   UNL     1       2.400   0.032  -0.021  0.00  0.00    +0.031 A 
ATOM      5  C   UNL     1       1.216  -0.679  -0.014  0.00  0.00    +0.028 A 
ATOM      6  C   UNL     1       0.002  -0.004   0.002  0.00  0.00    +0.074 A 
ENDROOT
BRANCH   3   7
ATOM      7  S   UNL     1       3.890   2.319  -0.024  0.00  0.00    +0.100 S 
ATOM      8  O   UNL     1       4.872   1.461  -0.589  0.00  0.00    -0.146 OA
ATOM      9  O   UNL     1       3.595   3.599  -0.566  0.00  0.00    -0.146 OA
BRANCH   7  10
ATOM     10  N   UNL     1       4.326   2.562   1.555  0.00  0.00    -0.118 NA
ATOM     11  C   UNL     1       5.412   3.207   1.833  0.00  0.00    +0.117 C 
ATOM     12  N   UNL     1       6.274   3.739   0.912  0.00  0.00    -0.331 N 
ATOM     13  C   UNL     1       7.090   4.781   1.556  0.00  0.00    +0.103 C 
ATOM     14  C   UNL     1       7.209   4.323   3.027  0.00  0.00    +0.026 C 
ATOM     15  C   UNL     1       5.922   3.496   3.228  0.00  0.00    +0.074 C 
ATOM     16  H   UNL     1       6.337   3.472  -0.018  0.00  0.00    +0.147 HD
ENDBRANCH   7  10
ENDBRANCH   3   7
BRANCH   6  17
ATOM     17  N   UNL     1      -1.197  -0.720   0.010  0.00  0.00    -0.098 NA
BRANCH  17  18
ATOM     18  S   UNL     1      -1.172  -2.376   0.001  0.00  0.00    +0.093 S 
ATOM     19  O   UNL     1      -0.628  -2.767  -1.252  0.00  0.00    -0.148 OA
ATOM     20  O   UNL     1      -0.603  -2.781   1.239  0.00  0.00    -0.148 OA
BRANCH  18  21
ATOM     21  C   UNL     1      -2.848  -2.922   0.015  0.00  0.00    +0.129 A 
ATOM     22  C   UNL     1      -3.354  -3.615  -1.065  0.00  0.00    +0.045 A 
ATOM     23  C   UNL     1      -4.683  -4.047  -1.052  0.00  0.00    +0.065 A 
ATOM     24  C   UNL     1      -5.490  -3.774   0.056  0.00  0.00    +0.016 A 
ATOM     25  C   UNL     1      -4.971  -3.081   1.129  0.00  0.00    +0.023 A 
ATOM     26  C   UNL     1      -3.651  -2.660   1.112  0.00  0.00    +0.068 A 
ATOM     27 CL   UNL     1      -3.003  -1.794   2.470  0.00  0.00    -0.082 Cl
BRANCH  23  28
ATOM     28  C   UNL     1      -5.232  -4.787  -2.203  0.00  0.00    +0.387 C 
ATOM     29  O   UNL     1      -4.523  -5.025  -3.172  0.00  0.00    -0.241 OA
ATOM     30  O   UNL     1      -6.395  -5.165  -2.189  0.00  0.00    -0.241 OA
ENDBRANCH  23  28
ENDBRANCH  18  21
ENDBRANCH  17  18
ENDBRANCH   6  17
TORSDOF 6
