REMARK  Name = ZINC39584758
REMARK  7 active torsions:
REMARK  status: ('A' for Active; 'I' for Inactive)
REMARK    1  A    between atoms: C_4  and  N_7
REMARK    2  A    between atoms: C_8  and  C_29
REMARK    3  A    between atoms: C_12  and  S_13
REMARK    4  A    between atoms: S_13  and  C_14
REMARK    5  A    between atoms: C_14  and  C_15
REMARK    6  A    between atoms: N_17  and  N_18
REMARK    7  A    between atoms: C_19  and  C_20
REMARK                            x       y       z     vdW  Elec       q    Type
REMARK                         _______ _______ _______ _____ _____    ______ ____
ROOT
ATOM      1  N   UNL     1       3.650  -0.647  -0.056  0.00  0.00    -0.254 N 
ATOM      2  C   UNL     1       3.817  -2.106   0.050  0.00  0.00    +0.213 C 
ATOM      3  N   UNL     1       5.277  -2.299   0.005  0.00  0.00    -0.242 N 
ATOM      4  N   UNL     1       5.836  -1.021  -0.116  0.00  0.00    -0.162 NA
ATOM      5  C   UNL     1       4.925  -0.108  -0.154  0.00  0.00    +0.180 C 
ATOM      6  H   UNL     1       5.755  -3.142   0.051  0.00  0.00    +0.170 HD
ENDROOT
BRANCH   2   7
ATOM      7  C   UNL     1       3.153  -2.800  -1.112  0.00  0.00    -0.008 A 
ATOM      8  C   UNL     1       2.086  -3.650  -0.890  0.00  0.00    +0.008 A 
ATOM      9  C   UNL     1       1.477  -4.287  -1.955  0.00  0.00    +0.020 A 
ATOM     10  C   UNL     1       1.936  -4.073  -3.243  0.00  0.00    +0.041 A 
ATOM     11  C   UNL     1       3.004  -3.222  -3.464  0.00  0.00    +0.020 A 
ATOM     12  C   UNL     1       3.609  -2.581  -2.399  0.00  0.00    +0.008 A 
ATOM     13 CL   UNL     1       1.171  -4.872  -4.581  0.00  0.00    -0.084 Cl
ENDBRANCH   2   7
BRANCH   1  17
ATOM     14  C   UNL     1       0.053   1.453  -0.072  0.00  0.00    +0.000 A 
ATOM     15  C   UNL     1       0.457   0.784   1.070  0.00  0.00    +0.002 A 
ATOM     16  C   UNL     1       1.649   0.087   1.079  0.00  0.00    +0.023 A 
ATOM     17  C   UNL     1       2.443   0.057  -0.061  0.00  0.00    +0.038 A 
ATOM     18  C   UNL     1       2.034   0.730  -1.206  0.00  0.00    +0.023 A 
ATOM     19  C   UNL     1       0.841   1.425  -1.208  0.00  0.00    +0.002 A 
ENDBRANCH   1  17
BRANCH   5  20
ATOM     20  S   UNL     1       5.260   1.615  -0.309  0.00  0.00    -0.079 S 
BRANCH  20  21
ATOM     21  C   UNL     1       7.069   1.704  -0.394  0.00  0.00    +0.174 C 
BRANCH  21  22
ATOM     22  C   UNL     1       7.495   3.143  -0.530  0.00  0.00    +0.242 C 
ATOM     23  O   UNL     1       6.660   4.022  -0.565  0.00  0.00    -0.273 OA
ATOM     24  N   UNL     1       8.804   3.454  -0.612  0.00  0.00    -0.206 N 
ATOM     25  H   UNL     1       9.472   2.751  -0.583  0.00  0.00    +0.177 HD
BRANCH  24  26
ATOM     26  N   UNL     1       9.200   4.792  -0.737  0.00  0.00    -0.188 NA
ATOM     27  C   UNL     1      10.472   5.094  -0.817  0.00  0.00    +0.136 C 
BRANCH  27  28
ATOM     28  C   UNL     1      10.868   6.433  -0.943  0.00  0.00    +0.000 C 
ATOM     29  C   UNL     1      12.169   6.920  -1.044  0.00  0.00    +0.004 A 
ATOM     30  C   UNL     1      13.429   6.282  -1.053  0.00  0.00    +0.010 A 
ATOM     31  C   UNL     1      14.558   7.025  -1.167  0.00  0.00    +0.001 A 
ATOM     32  C   UNL     1      14.511   8.418  -1.276  0.00  0.00    +0.002 A 
ATOM     33  C   UNL     1      13.339   9.097  -1.274  0.00  0.00    +0.026 A 
ATOM     34  C   UNL     1      12.113   8.388  -1.159  0.00  0.00    +0.043 A 
ATOM     35  N   UNL     1      10.865   8.805  -1.132  0.00  0.00    -0.380 N 
ATOM     36  C   UNL     1       9.972   7.650  -1.004  0.00  0.00    +0.150 C 
ATOM     37  H   UNL     1      10.581   9.731  -1.192  0.00  0.00    +0.160 HD
ENDBRANCH  27  28
ENDBRANCH  24  26
ENDBRANCH  21  22
ENDBRANCH  20  21
ENDBRANCH   5  20
TORSDOF 7
