REMARK  Name = ZINC21892600
REMARK  6 active torsions:
REMARK  status: ('A' for Active; 'I' for Inactive)
REMARK    1  A    between atoms: C_1  and  O_2
REMARK    2  A    between atoms: O_2  and  C_3
REMARK    3  A    between atoms: C_6  and  C_11
REMARK    4  A    between atoms: C_8  and  O_9
REMARK    5  A    between atoms: O_9  and  C_10
REMARK    6  A    between atoms: N_28  and  C_29
REMARK                            x       y       z     vdW  Elec       q    Type
REMARK                         _______ _______ _______ _____ _____    ______ ____
ROOT
ATOM      1  C   UNL     1      -2.627   8.246  -0.226  0.00  0.00    +0.155 C 
ATOM      2  C   UNL     1      -2.464   9.374  -1.212  0.00  0.00    +0.049 A 
ATOM      3  C   UNL     1      -3.022   9.507  -2.425  0.00  0.00    +0.025 A 
ATOM      4  C   UNL     1      -2.566  10.729  -2.966  0.00  0.00    +0.020 A 
ATOM      5  C   UNL     1      -1.744  11.296  -2.056  0.00  0.00    +0.091 A 
ATOM      6  N   UNL     1      -1.678  10.472  -0.979  0.00  0.00    -0.318 N 
ATOM      7  C   UNL     1      -0.959  10.629   0.215  0.00  0.00    +0.051 A 
ATOM      8  C   UNL     1      -0.973  11.827   0.909  0.00  0.00    +0.026 A 
ATOM      9  C   UNL     1      -0.297  11.931   2.110  0.00  0.00    +0.002 A 
ATOM     10  C   UNL     1       0.387  10.841   2.617  0.00  0.00    +0.000 A 
ATOM     11  C   UNL     1       0.419   9.650   1.915  0.00  0.00    +0.007 A 
ATOM     12  C   UNL     1      -0.233   9.548   0.703  0.00  0.00    -0.006 A 
ATOM     13  C   UNL     1      -0.106   8.308  -0.131  0.00  0.00    +0.147 C 
ATOM     14  N   UNL     1      -1.349   7.514  -0.131  0.00  0.00    -0.268 N 
ATOM     15  C   UNL     1      -1.319   6.169  -0.042  0.00  0.00    +0.308 C 
ATOM     16  O   UNL     1      -2.357   5.537  -0.039  0.00  0.00    -0.252 OA
ATOM     17  N   UNL     1      -0.138   5.526   0.044  0.00  0.00    -0.269 N 
ATOM     18  H   UNL     1       0.798   6.101   0.117  0.00  0.00    +0.156 HD
ENDROOT
BRANCH  17  19
ATOM     19  C   UNL     1      -0.101   4.125   0.040  0.00  0.00    +0.038 A 
ATOM     20  C   UNL     1      -1.115   3.402   0.654  0.00  0.00    +0.027 A 
ATOM     21  C   UNL     1      -1.075   2.021   0.656  0.00  0.00    +0.051 A 
ATOM     22  C   UNL     1      -0.030   1.353   0.037  0.00  0.00    +0.162 A 
ATOM     23  C   UNL     1       0.986   2.074  -0.580  0.00  0.00    +0.164 A 
ATOM     24  C   UNL     1       0.949   3.460  -0.577  0.00  0.00    +0.072 A 
ATOM     25  O   UNL     1       2.020   1.436  -1.193  0.00  0.00    -0.485 OA
ATOM     26  C   UNL     1       2.219   0.059  -0.854  0.00  0.00    +0.270 C 
ATOM     27  C   UNL     1       0.857  -0.647  -0.897  0.00  0.00    +0.270 C 
ATOM     28  O   UNL     1      -0.009  -0.009   0.047  0.00  0.00    -0.485 OA
ENDBRANCH  17  19
BRANCH   1  32
ATOM     29  C   UNL     1      -3.674   9.822   3.609  0.00  0.00    +0.162 A 
ATOM     30  C   UNL     1      -4.071  10.479   2.455  0.00  0.00    +0.050 A 
ATOM     31  C   UNL     1      -3.731   9.966   1.217  0.00  0.00    +0.009 A 
ATOM     32  C   UNL     1      -2.995   8.800   1.126  0.00  0.00    -0.017 A 
ATOM     33  C   UNL     1      -2.600   8.137   2.273  0.00  0.00    +0.055 A 
ATOM     34  C   UNL     1      -2.933   8.648   3.518  0.00  0.00    +0.162 A 
BRANCH  29  36
ATOM     35  C   UNL     1      -4.767  11.535   4.845  0.00  0.00    +0.277 C 
ATOM     36  O   UNL     1      -4.006  10.325   4.828  0.00  0.00    -0.491 OA
ENDBRANCH  29  36
BRANCH  34  37
ATOM     37  O   UNL     1      -2.541   8.000   4.647  0.00  0.00    -0.491 OA
ATOM     38  C   UNL     1      -1.783   6.801   4.477  0.00  0.00    +0.277 C 
ENDBRANCH  34  37
ENDBRANCH   1  32
TORSDOF 4
