REMARK  Name = ZINC52852900
REMARK  3 active torsions:
REMARK  status: ('A' for Active; 'I' for Inactive)
REMARK    1  A    between atoms: C_6  and  N_7
REMARK    2  A    between atoms: C_9  and  C_19
REMARK    3  A    between atoms: N_10  and  C_11
REMARK                            x       y       z     vdW  Elec       q    Type
REMARK                         _______ _______ _______ _____ _____    ______ ____
ROOT
ATOM      1  C   UNL     1      -0.017   1.389   0.010  0.00  0.00    +0.025 A 
ATOM      2  C   UNL     1       1.162   2.102   0.002  0.00  0.00    +0.030 A 
ATOM      3  C   UNL     1       2.377   1.432  -0.013  0.00  0.00    +0.074 A 
ATOM      4  C   UNL     1       2.405   0.027  -0.021  0.00  0.00    +0.091 A 
ATOM      5  C   UNL     1       1.204  -0.687  -0.014  0.00  0.00    +0.052 A 
ATOM      6  C   UNL     1       0.002  -0.004   0.002  0.00  0.00    +0.027 A 
ATOM      7  N   UNL     1       3.712  -0.344  -0.035  0.00  0.00    -0.232 NA
ATOM      8  C   UNL     1       4.469   0.715  -0.037  0.00  0.00    +0.118 A 
ATOM      9  N   UNL     1       3.700   1.839  -0.023  0.00  0.00    -0.293 N 
ENDROOT
BRANCH   9  10
ATOM     10  C   UNL     1       4.162   3.163  -0.021  0.00  0.00    +0.084 A 
ATOM     11  C   UNL     1       4.409   3.811   1.181  0.00  0.00    +0.044 A 
ATOM     12  C   UNL     1       4.865   5.116   1.181  0.00  0.00    +0.020 A 
ATOM     13  C   UNL     1       5.076   5.777  -0.016  0.00  0.00    +0.018 A 
ATOM     14  C   UNL     1       4.831   5.135  -1.216  0.00  0.00    +0.041 A 
ATOM     15  C   UNL     1       4.380   3.827  -1.222  0.00  0.00    +0.147 A 
ATOM     16  F   UNL     1       4.147   3.198  -2.395  0.00  0.00    -0.203 F 
ATOM     17 BR   UNL     1       5.201   5.999   2.819  0.00  0.00    -0.050 Br
ENDBRANCH   9  10
BRANCH   6  18
ATOM     18  N   UNL     1      -1.202  -0.716   0.010  0.00  0.00    -0.358 N 
ATOM     19  H   UNL     1      -2.047  -0.240   0.021  0.00  0.00    +0.142 HD
ATOM     20  H   UNL     1      -1.192  -1.686   0.005  0.00  0.00    +0.142 HD
ENDBRANCH   6  18
BRANCH   8  21
ATOM     21  C   UNL     1       5.976   0.699  -0.051  0.00  0.00    +0.056 C 
ATOM     22  C   UNL     1       6.666  -0.648  -0.268  0.00  0.00    +0.012 C 
ATOM     23  C   UNL     1       6.685   0.007   1.115  0.00  0.00    +0.012 C 
ENDBRANCH   8  21
TORSDOF 3
