REMARK  Name = ZINC02109879
REMARK  5 active torsions:
REMARK  status: ('A' for Active; 'I' for Inactive)
REMARK    1  A    between atoms: C_1  and  C_2
REMARK    2  A    between atoms: C_5  and  N_9
REMARK    3  A    between atoms: C_6  and  C_8
REMARK    4  A    between atoms: C_28  and  C_35
REMARK    5  A    between atoms: C_29  and  C_34
REMARK                            x       y       z     vdW  Elec       q    Type
REMARK                         _______ _______ _______ _____ _____    ______ ____
ROOT
ATOM      1  N   UNL     1       0.059  -4.172  -0.021  0.00  0.00    -0.210 N 
ATOM      2  C   UNL     1      -1.057  -4.911  -0.025  0.00  0.00    +0.228 C 
ATOM      3  O   UNL     1      -2.188  -4.472  -0.025  0.00  0.00    -0.275 OA
ATOM      4  C   UNL     1      -0.689  -6.377  -0.030  0.00  0.00    +0.074 C 
ATOM      5  C   UNL     1      -1.101  -7.003  -1.376  0.00  0.00    -0.054 C 
ATOM      6  C   UNL     1      -2.247  -6.177  -1.989  0.00  0.00    -0.016 C 
ATOM      7  C   UNL     1      -1.562  -5.116  -2.873  0.00  0.00    -0.020 C 
ATOM      8  C   UNL     1      -0.050  -5.366  -2.704  0.00  0.00    -0.076 C 
ATOM      9  N   UNL     1       0.075  -6.806  -2.277  0.00  0.00    +0.395 N 
ATOM     10  C   UNL     1       1.245  -6.973  -1.399  0.00  0.00    +0.053 C 
ATOM     11  C   UNL     1       0.864  -6.357  -0.032  0.00  0.00    +0.089 C 
ATOM     12  C   UNL     1       1.194  -4.881  -0.031  0.00  0.00    +0.229 C 
ATOM     13  O   UNL     1       2.312  -4.413  -0.035  0.00  0.00    -0.275 OA
ATOM     14  C   UNL     1       1.623  -8.421  -1.256  0.00  0.00    -0.027 A 
ATOM     15  C   UNL     1       0.957  -9.533  -0.792  0.00  0.00    +0.005 A 
ATOM     16  C   UNL     1       1.587 -10.764  -0.783  0.00  0.00    +0.004 A 
ATOM     17  C   UNL     1       2.887 -10.875  -1.240  0.00  0.00    -0.046 A 
ATOM     18  C   UNL     1       3.559  -9.764  -1.705  0.00  0.00    -0.026 A 
ATOM     19  C   UNL     1       2.932  -8.521  -1.718  0.00  0.00    +0.039 A 
ATOM     20  N   UNL     1       3.394  -7.270  -2.133  0.00  0.00    -0.286 N 
ATOM     21  C   UNL     1       2.465  -6.308  -1.979  0.00  0.00    +0.212 C 
ATOM     22  O   UNL     1       2.586  -5.133  -2.254  0.00  0.00    -0.277 OA
ATOM     23  C   UNL     1       4.976  -9.896  -2.201  0.00  0.00    +0.046 C 
ATOM     24  C   UNL     1       3.574 -12.217  -1.230  0.00  0.00    +0.044 C 
ATOM     25  H   UNL     1       4.282  -7.112  -2.490  0.00  0.00    +0.155 HD
ATOM     26  H   UNL     1       0.075  -7.444  -3.058  0.00  0.00    -0.079 HD
ENDROOT
BRANCH   1  31
ATOM     27  C   UNL     1      -0.018   1.503   0.010  0.00  0.00    +0.044 C 
ATOM     28  C   UNL     1       0.002  -0.004   0.002  0.00  0.00    -0.050 A 
ATOM     29  C   UNL     1       0.006  -0.688  -1.200  0.00  0.00    +0.005 A 
ATOM     30  C   UNL     1       0.025  -2.068  -1.211  0.00  0.00    +0.024 A 
ATOM     31  C   UNL     1       0.040  -2.771  -0.013  0.00  0.00    +0.047 A 
ATOM     32  C   UNL     1       0.037  -2.082   1.192  0.00  0.00    -0.028 A 
ATOM     33  C   UNL     1       0.023  -0.700   1.196  0.00  0.00    +0.008 A 
ATOM     34  C   UNL     1       0.053  -2.840   2.494  0.00  0.00    +0.046 C 
ENDBRANCH   1  31
TORSDOF 1
