REMARK  Name = ZINC39916562
REMARK  6 active torsions:
REMARK  status: ('A' for Active; 'I' for Inactive)
REMARK    1  A    between atoms: C_1  and  C_2
REMARK    2  A    between atoms: C_3  and  S_8
REMARK    3  A    between atoms: C_4  and  C_7
REMARK    4  A    between atoms: S_8  and  N_11
REMARK    5  A    between atoms: C_20  and  C_22
REMARK    6  A    between atoms: N_24  and  C_25
REMARK                            x       y       z     vdW  Elec       q    Type
REMARK                         _______ _______ _______ _____ _____    ______ ____
ROOT
ATOM      1  N   UNL     1       2.265  -0.367  -2.686  0.00  0.00    -0.160 NA
ATOM      2  C   UNL     1       2.772   0.930  -2.225  0.00  0.00    +0.145 C 
ATOM      3  C   UNL     1       4.206   0.787  -1.782  0.00  0.00    -0.028 A 
ATOM      4  C   UNL     1       4.779   1.845  -1.089  0.00  0.00    +0.005 A 
ATOM      5  C   UNL     1       6.090   1.778  -0.667  0.00  0.00    +0.000 A 
ATOM      6  C   UNL     1       6.840   0.648  -0.937  0.00  0.00    +0.000 A 
ATOM      7  C   UNL     1       6.271  -0.405  -1.621  0.00  0.00    +0.004 A 
ATOM      8  C   UNL     1       4.948  -0.343  -2.042  0.00  0.00    -0.041 A 
ATOM      9  C   UNL     1       4.387  -1.542  -2.760  0.00  0.00    +0.065 C 
ATOM     10  C   UNL     1       3.145  -1.165  -3.557  0.00  0.00    +0.170 C 
ENDROOT
BRANCH  10  11
ATOM     11  C   UNL     1       2.428  -2.415  -3.997  0.00  0.00    +0.236 C 
ATOM     12  O   UNL     1       2.554  -3.442  -3.364  0.00  0.00    -0.274 OA
ATOM     13  N   UNL     1       1.647  -2.393  -5.095  0.00  0.00    -0.283 N 
ATOM     14  H   UNL     1       1.597  -1.591  -5.638  0.00  0.00    +0.155 HD
BRANCH  13  15
ATOM     15  C   UNL     1       0.908  -3.527  -5.452  0.00  0.00    +0.053 A 
ATOM     16  C   UNL     1       0.644  -4.510  -4.509  0.00  0.00    +0.044 A 
ATOM     17  C   UNL     1      -0.086  -5.629  -4.864  0.00  0.00    +0.043 A 
ATOM     18  C   UNL     1      -0.555  -5.768  -6.159  0.00  0.00    +0.021 A 
ATOM     19  C   UNL     1      -0.294  -4.791  -7.101  0.00  0.00    +0.023 A 
ATOM     20  C   UNL     1       0.431  -3.667  -6.750  0.00  0.00    +0.062 A 
ATOM     21 CL   UNL     1       0.753  -2.437  -7.931  0.00  0.00    -0.082 Cl
ATOM     22 CL   UNL     1      -0.415  -6.860  -3.685  0.00  0.00    -0.083 Cl
ENDBRANCH  13  15
ENDBRANCH  10  11
BRANCH   1  23
ATOM     23  S   UNL     1       0.768  -0.915  -2.241  0.00  0.00    +0.067 S 
ATOM     24  O   UNL     1       0.437  -1.968  -3.136  0.00  0.00    -0.153 OA
ATOM     25  O   UNL     1      -0.053   0.234  -2.079  0.00  0.00    -0.153 OA
BRANCH  23  28
ATOM     26  C   UNL     1       1.326   0.538   0.706  0.00  0.00    +0.071 C 
ATOM     27  C   UNL     1       1.169  -0.954   0.557  0.00  0.00    +0.107 A 
ATOM     28  C   UNL     1       0.933  -1.644  -0.645  0.00  0.00    +0.170 A 
ATOM     29  C   UNL     1       0.854  -2.959  -0.365  0.00  0.00    +0.161 A 
ATOM     30  O   UNL     1       1.032  -3.113   0.956  0.00  0.00    -0.358 OA
ATOM     31  N   UNL     1       1.235  -1.830   1.520  0.00  0.00    -0.081 NA
ATOM     32  C   UNL     1       0.610  -4.064  -1.360  0.00  0.00    +0.091 C 
ENDBRANCH  23  28
ENDBRANCH   1  23
TORSDOF 4
