REMARK  Name = ZINC28054643
REMARK  3 active torsions:
REMARK  status: ('A' for Active; 'I' for Inactive)
REMARK    1  A    between atoms: C_1  and  C_2
REMARK    2  A    between atoms: C_5  and  C_8
REMARK    3  A    between atoms: C_19  and  C_21
REMARK                            x       y       z     vdW  Elec       q    Type
REMARK                         _______ _______ _______ _____ _____    ______ ____
ROOT
ATOM      1  C   UNL     1      -2.553   3.869   0.044  0.00  0.00    +0.174 C 
ATOM      2  C   UNL     1      -3.319   3.498   1.290  0.00  0.00    +0.026 C 
ATOM      3  C   UNL     1      -4.401   2.719   1.258  0.00  0.00    +0.050 C 
ATOM      4  C   UNL     1      -5.099   2.428   2.534  0.00  0.00    +0.038 A 
ATOM      5  C   UNL     1      -6.007   1.383   2.643  0.00  0.00    +0.013 A 
ATOM      6  C   UNL     1      -6.636   1.150   3.852  0.00  0.00    +0.001 A 
ATOM      7  C   UNL     1      -6.364   1.952   4.946  0.00  0.00    +0.004 A 
ATOM      8  C   UNL     1      -5.460   2.995   4.846  0.00  0.00    +0.046 A 
ATOM      9  C   UNL     1      -4.823   3.238   3.643  0.00  0.00    +0.131 A 
ATOM     10  O   UNL     1      -3.926   4.247   3.505  0.00  0.00    -0.479 OA
ATOM     11  C   UNL     1      -2.829   4.024   2.621  0.00  0.00    +0.241 C 
ATOM     12  N   UNL     1      -4.902   2.183   0.066  0.00  0.00    -0.282 N 
ATOM     13  C   UNL     1      -4.418   2.711  -1.120  0.00  0.00    +0.240 A 
ATOM     14  N   UNL     1      -3.320   3.511  -1.141  0.00  0.00    -0.201 N 
ATOM     15  N   UNL     1      -3.141   3.861  -2.478  0.00  0.00    -0.042 NA
ATOM     16  N   UNL     1      -4.086   3.276  -3.142  0.00  0.00    -0.021 NA
ATOM     17  N   UNL     1      -4.839   2.597  -2.346  0.00  0.00    -0.092 NA
ATOM     18  H   UNL     1      -5.649   1.376   0.096  0.00  0.00    +0.155 HD
ENDROOT
BRANCH   1  23
ATOM     19  C   UNL     1       2.490   1.048  -0.016  0.00  0.00    +0.044 C 
ATOM     20  C   UNL     1       1.175   1.783   0.000  0.00  0.00    -0.050 A 
ATOM     21  C   UNL     1      -0.013   1.076   0.008  0.00  0.00    +0.004 A 
ATOM     22  C   UNL     1      -1.219   1.751   0.017  0.00  0.00    +0.006 A 
ATOM     23  C   UNL     1      -1.238   3.133   0.029  0.00  0.00    -0.019 A 
ATOM     24  C   UNL     1      -0.050   3.840   0.022  0.00  0.00    +0.006 A 
ATOM     25  C   UNL     1       1.156   3.165   0.008  0.00  0.00    +0.004 A 
ENDBRANCH   1  23
BRANCH  11  26
ATOM     26  C   UNL     1      -1.890   3.020   3.237  0.00  0.00    +0.034 A 
ATOM     27  C   UNL     1      -0.534   3.008   3.239  0.00  0.00    +0.015 A 
ATOM     28  C   UNL     1       0.126   1.974   3.876  0.00  0.00    +0.008 A 
ATOM     29  C   UNL     1      -0.601   1.003   4.479  0.00  0.00    +0.045 A 
ATOM     30  S   UNL     1      -2.273   1.542   4.161  0.00  0.00    -0.098 S 
ENDBRANCH  11  26
TORSDOF 2
