REMARK  Name = ZINC29763070
REMARK  5 active torsions:
REMARK  status: ('A' for Active; 'I' for Inactive)
REMARK    1  A    between atoms: C_1  and  C_2
REMARK    2  A    between atoms: C_2  and  C_4
REMARK    3  A    between atoms: C_7  and  C_9
REMARK    4  A    between atoms: C_9  and  N_11
REMARK    5  A    between atoms: N_13  and  C_17
REMARK                            x       y       z     vdW  Elec       q    Type
REMARK                         _______ _______ _______ _____ _____    ______ ____
ROOT
ATOM      1  C   UNL     1       4.698   5.131  -0.327  0.00  0.00    +0.276 C 
ATOM      2  O   UNL     1       5.917   5.153  -0.306  0.00  0.00    -0.267 OA
ENDROOT
BRANCH   1   3
ATOM      3  N   UNL     1       4.007   6.266  -0.192  0.00  0.00    -0.152 NA
ATOM      4  C   UNL     1       4.147   7.005   0.907  0.00  0.00    +0.165 A 
ATOM      5  N   UNL     1       4.845   6.722   2.046  0.00  0.00    -0.331 N 
ATOM      6  C   UNL     1       4.851   7.632   3.054  0.00  0.00    +0.094 A 
ATOM      7  C   UNL     1       4.173   8.774   2.895  0.00  0.00    +0.066 A 
ATOM      8  S   UNL     1       3.497   8.575   1.255  0.00  0.00    -0.061 S 
ATOM      9  C   UNL     1       5.573   5.458   2.178  0.00  0.00    +0.150 C 
ENDBRANCH   1   3
BRANCH   1  13
ATOM     10  C   UNL     1       2.284   1.774  -0.789  0.00  0.00    +0.055 A 
ATOM     11  C   UNL     1       3.653   1.523  -0.795  0.00  0.00    +0.020 A 
ATOM     12  C   UNL     1       4.511   2.575  -0.655  0.00  0.00    +0.021 A 
ATOM     13  C   UNL     1       3.986   3.850  -0.500  0.00  0.00    +0.077 A 
ATOM     14  S   UNL     1       2.228   3.544  -0.564  0.00  0.00    -0.081 S 
BRANCH  10  16
ATOM     15  C   UNL     1      -0.212   1.354  -0.884  0.00  0.00    +0.092 C 
ATOM     16  C   UNL     1       1.210   0.858  -0.921  0.00  0.00    +0.167 C 
ATOM     17  O   UNL     1       1.436  -0.326  -1.068  0.00  0.00    -0.292 OA
ENDBRANCH  10  16
ENDBRANCH   1  13
TORSDOF 3
