REMARK  Name = ZINC64058370
REMARK  4 active torsions:
REMARK  status: ('A' for Active; 'I' for Inactive)
REMARK    1  A    between atoms: C_8  and  C_27
REMARK    2  A    between atoms: C_16  and  C_18
REMARK    3  A    between atoms: C_18  and  C_19
REMARK    4  A    between atoms: C_19  and  C_20
REMARK                            x       y       z     vdW  Elec       q    Type
REMARK                         _______ _______ _______ _____ _____    ______ ____
ROOT
ATOM      1  C   UNL     1      -0.241   1.163  -0.070  0.00  0.00    +0.001 A 
ATOM      2  C   UNL     1       0.903   1.971  -0.039  0.00  0.00    +0.002 A 
ATOM      3  C   UNL     1       2.153   1.462  -0.019  0.00  0.00    +0.026 A 
ATOM      4  C   UNL     1       2.359   0.055  -0.030  0.00  0.00    +0.043 A 
ATOM      5  N   UNL     1       3.456  -0.667  -0.035  0.00  0.00    -0.375 N 
ATOM      6  C   UNL     1       3.084  -2.078   0.031  0.00  0.00    +0.131 C 
ATOM      7  C   UNL     1       3.651  -2.874  -1.150  0.00  0.00    +0.135 C 
ATOM      8  N   UNL     1       2.917  -4.147  -1.230  0.00  0.00    -0.292 N 
ATOM      9  C   UNL     1       1.464  -4.159  -1.432  0.00  0.00    +0.113 C 
ATOM     10  C   UNL     1       0.785  -3.377  -0.293  0.00  0.00    +0.052 C 
ATOM     11  C   UNL     1       1.569  -2.101  -0.085  0.00  0.00    -0.035 C 
ATOM     12  C   UNL     1       1.163  -0.823  -0.069  0.00  0.00    -0.001 A 
ATOM     13  C   UNL     1      -0.160  -0.186  -0.086  0.00  0.00    +0.010 A 
ATOM     14  C   UNL     1       3.585  -5.312  -1.119  0.00  0.00    +0.216 C 
ATOM     15  O   UNL     1       4.786  -5.308  -0.952  0.00  0.00    -0.276 OA
ATOM     16  H   UNL     1       4.362  -0.321  -0.077  0.00  0.00    +0.160 HD
ENDROOT
BRANCH   7  17
ATOM     17  C   UNL     1       3.466  -2.096  -2.427  0.00  0.00    +0.013 A 
ATOM     18  C   UNL     1       2.195  -1.779  -2.865  0.00  0.00    +0.046 A 
ATOM     19  C   UNL     1       2.025  -1.063  -4.037  0.00  0.00    +0.124 A 
ATOM     20  C   UNL     1       3.129  -0.664  -4.771  0.00  0.00    +0.041 A 
ATOM     21  C   UNL     1       4.401  -0.981  -4.333  0.00  0.00    +0.041 A 
ATOM     22  C   UNL     1       4.571  -1.692  -3.158  0.00  0.00    +0.129 A 
ATOM     23  F   UNL     1       5.814  -1.998  -2.727  0.00  0.00    -0.205 F 
ATOM     24  F   UNL     1       0.781  -0.754  -4.466  0.00  0.00    -0.205 F 
ENDBRANCH   7  17
BRANCH  14  25
ATOM     25  C   UNL     1       2.839  -6.619  -1.200  0.00  0.00    +0.102 C 
BRANCH  25  26
ATOM     26  C   UNL     1       3.825  -7.779  -1.044  0.00  0.00    +0.061 C 
BRANCH  26  27
ATOM     27  C   UNL     1       3.079  -9.086  -1.126  0.00  0.00    +0.038 C 
ATOM     28  N   UNL     1       1.816  -9.076  -1.306  0.00  0.00    -0.189 NA
ATOM     29  N   UNL     1       1.082 -10.264  -1.386  0.00  0.00    -0.207 N 
ATOM     30  C   UNL     1       1.591 -11.414  -0.901  0.00  0.00    +0.233 C 
ATOM     31  O   UNL     1       0.949 -12.441  -0.965  0.00  0.00    -0.274 OA
ATOM     32  C   UNL     1       2.966 -11.415  -0.280  0.00  0.00    +0.103 C 
ATOM     33  C   UNL     1       3.838 -10.379  -0.999  0.00  0.00    +0.062 C 
ATOM     34  H   UNL     1       0.201 -10.260  -1.793  0.00  0.00    +0.177 HD
ENDBRANCH  26  27
ENDBRANCH  25  26
ENDBRANCH  14  25
TORSDOF 4
