REMARK  Name = ZINC66169289
REMARK  11 active torsions:
REMARK  status: ('A' for Active; 'I' for Inactive)
REMARK    1  A    between atoms: C_1  and  C_2
REMARK    2  A    between atoms: C_2  and  C_4
REMARK    3  A    between atoms: C_2  and  O_22
REMARK    4  A    between atoms: C_4  and  N_5
REMARK    5  A    between atoms: N_5  and  C_6
REMARK    6  A    between atoms: C_11  and  O_12
REMARK    7  A    between atoms: O_12  and  C_13
REMARK    8  A    between atoms: C_13  and  C_14
REMARK    9  A    between atoms: C_14  and  C_15
REMARK   10  A    between atoms: C_15  and  C_16
REMARK   11  A    between atoms: O_22  and  C_23
REMARK                            x       y       z     vdW  Elec       q    Type
REMARK                         _______ _______ _______ _____ _____    ______ ____
ROOT
ATOM      1  C   UNL     1       1.896  -2.244   2.376  0.00  0.00    +0.070 A 
ATOM      2  C   UNL     1       2.433  -1.384   3.323  0.00  0.00    +0.026 A 
ATOM      3  C   UNL     1       3.201  -1.887   4.357  0.00  0.00    +0.002 A 
ATOM      4  C   UNL     1       3.436  -3.246   4.450  0.00  0.00    +0.004 A 
ATOM      5  C   UNL     1       2.905  -4.110   3.510  0.00  0.00    +0.047 A 
ATOM      6  C   UNL     1       2.130  -3.615   2.474  0.00  0.00    +0.141 A 
ENDROOT
BRANCH   1   7
ATOM      7  N   UNL     1       1.118  -1.738   1.329  0.00  0.00    -0.338 N 
ATOM      8  H   UNL     1       0.740  -2.341   0.670  0.00  0.00    +0.146 HD
BRANCH   7   9
ATOM      9  C   UNL     1       0.874  -0.297   1.229  0.00  0.00    +0.145 C 
BRANCH   9  11
ATOM     10  C   UNL     1      -0.253   1.493  -0.101  0.00  0.00    +0.053 C 
ATOM     11  C   UNL     1       0.002  -0.012   0.005  0.00  0.00    +0.187 C 
BRANCH  11  12
ATOM     12  O   UNL     1       0.671  -0.465  -1.174  0.00  0.00    -0.488 OA
BRANCH  12  13
ATOM     13  C   UNL     1      -0.107  -0.775  -2.245  0.00  0.00    +0.121 A 
ATOM     14  C   UNL     1       0.465  -1.331  -3.380  0.00  0.00    +0.047 A 
ATOM     15  C   UNL     1      -0.327  -1.645  -4.467  0.00  0.00    +0.023 A 
ATOM     16  C   UNL     1      -1.689  -1.405  -4.425  0.00  0.00    +0.041 A 
ATOM     17  C   UNL     1      -2.261  -0.850  -3.293  0.00  0.00    +0.023 A 
ATOM     18  C   UNL     1      -1.473  -0.540  -2.202  0.00  0.00    +0.047 A 
ATOM     19 CL   UNL     1      -2.682  -1.800  -5.793  0.00  0.00    -0.084 Cl
ENDBRANCH  12  13
ENDBRANCH  11  12
ENDBRANCH   9  11
ENDBRANCH   7   9
ENDBRANCH   1   7
BRANCH   6  20
ATOM     20  O   UNL     1       1.602  -4.463   1.552  0.00  0.00    -0.490 OA
BRANCH  20  21
ATOM     21  C   UNL     1       1.882  -5.855   1.715  0.00  0.00    +0.229 C 
BRANCH  21  22
ATOM     22  C   UNL     1       1.210  -6.646   0.591  0.00  0.00    +0.046 C 
BRANCH  22  23
ATOM     23  C   UNL     1       1.510  -8.136   0.766  0.00  0.00    +0.038 C 
BRANCH  23  24
ATOM     24  C   UNL     1       0.848  -8.915  -0.341  0.00  0.00    -0.047 A 
ATOM     25  C   UNL     1      -0.441  -9.387  -0.178  0.00  0.00    +0.003 A 
ATOM     26  C   UNL     1      -1.049 -10.102  -1.194  0.00  0.00    +0.000 A 
ATOM     27  C   UNL     1      -0.368 -10.344  -2.372  0.00  0.00    +0.000 A 
ATOM     28  C   UNL     1       0.921  -9.872  -2.535  0.00  0.00    +0.000 A 
ATOM     29  C   UNL     1       1.527  -9.153  -1.521  0.00  0.00    +0.003 A 
ENDBRANCH  23  24
ENDBRANCH  22  23
ENDBRANCH  21  22
ENDBRANCH  20  21
ENDBRANCH   6  20
TORSDOF 10
