REMARK  Name = ZINC29370047
REMARK  6 active torsions:
REMARK  status: ('A' for Active; 'I' for Inactive)
REMARK    1  A    between atoms: C_1  and  C_2
REMARK    2  A    between atoms: C_4  and  N_27
REMARK    3  A    between atoms: C_7  and  N_8
REMARK    4  A    between atoms: C_9  and  C_11
REMARK    5  A    between atoms: C_18  and  C_20
REMARK    6  A    between atoms: N_30  and  C_33
REMARK                            x       y       z     vdW  Elec       q    Type
REMARK                         _______ _______ _______ _____ _____    ______ ____
ROOT
ATOM      1  N   UNL     1      -3.215   5.787  -5.491  0.00  0.00    -0.285 N 
ATOM      2  C   UNL     1      -4.081   5.054  -6.219  0.00  0.00    +0.222 C 
ATOM      3  O   UNL     1      -4.415   3.953  -5.835  0.00  0.00    -0.275 OA
ATOM      4  H   UNL     1      -2.978   6.818  -5.793  0.00  0.00    +0.155 HD
ENDROOT
BRANCH   2   5
ATOM      5  C   UNL     1      -4.635   5.603  -7.508  0.00  0.00    +0.093 C 
ATOM      6  C   UNL     1      -5.587   4.580  -8.132  0.00  0.00    +0.016 C 
ATOM      7  C   UNL     1      -6.175   5.150  -9.425  0.00  0.00    +0.020 C 
ATOM      8  C   UNL     1      -5.043   5.425 -10.419  0.00  0.00    +0.108 C 
ATOM      9  N   UNL     1      -4.048   6.293  -9.774  0.00  0.00    -0.297 N 
ATOM     10  C   UNL     1      -3.485   5.883  -8.481  0.00  0.00    +0.120 C 
ATOM     11  C   UNL     1      -3.660   7.444 -10.358  0.00  0.00    +0.247 C 
ATOM     12  O   UNL     1      -2.812   8.138  -9.831  0.00  0.00    -0.270 OA
BRANCH  11  13
ATOM     13  C   UNL     1      -4.266   7.863 -11.640  0.00  0.00    +0.037 A 
ATOM     14  C   UNL     1      -4.664   6.904 -12.573  0.00  0.00    +0.014 A 
ATOM     15  C   UNL     1      -5.233   7.301 -13.765  0.00  0.00    +0.021 A 
ATOM     16  C   UNL     1      -5.400   8.648 -14.041  0.00  0.00    +0.041 A 
ATOM     17  C   UNL     1      -5.002   9.604 -13.122  0.00  0.00    +0.021 A 
ATOM     18  C   UNL     1      -4.437   9.219 -11.924  0.00  0.00    +0.014 A 
ATOM     19 CL   UNL     1      -6.111   9.140 -15.547  0.00  0.00    -0.084 Cl
ENDBRANCH  11  13
ENDBRANCH   2   5
BRANCH   1  26
ATOM     20  C   UNL     1      -0.611   6.679  -4.779  0.00  0.00    +0.046 C 
ATOM     21  C   UNL     1      -1.346   5.644  -3.968  0.00  0.00    -0.028 A 
ATOM     22  C   UNL     1      -0.757   5.104  -2.841  0.00  0.00    +0.028 A 
ATOM     23  C   UNL     1      -1.433   4.146  -2.097  0.00  0.00    +0.030 A 
ATOM     24  C   UNL     1      -2.704   3.738  -2.480  0.00  0.00    +0.025 A 
ATOM     25  C   UNL     1      -3.294   4.282  -3.603  0.00  0.00    +0.025 A 
ATOM     26  C   UNL     1      -2.616   5.236  -4.350  0.00  0.00    +0.036 A 
BRANCH  23  27
ATOM     27  N   UNL     1      -0.835   3.595  -0.958  0.00  0.00    -0.333 N 
ATOM     28  C   UNL     1      -1.721   2.611  -0.322  0.00  0.00    +0.086 C 
ATOM     29  C   UNL     1      -1.001   1.976   0.870  0.00  0.00    -0.060 C 
ATOM     30  N   UNL     1      -0.615   3.026   1.823  0.00  0.00    +0.380 N 
ATOM     31  C   UNL     1       0.271   4.010   1.186  0.00  0.00    -0.060 C 
ATOM     32  C   UNL     1      -0.449   4.646  -0.006  0.00  0.00    +0.086 C 
ATOM     33  C   UNL     1       0.013   2.447   3.018  0.00  0.00    -0.096 C 
ATOM     34  H   UNL     1      -1.529   3.548   2.142  0.00  0.00    -0.082 HD
ENDBRANCH  23  27
ENDBRANCH   1  26
TORSDOF 4
