REMARK  Name = ZINC00755400
REMARK  6 active torsions:
REMARK  status: ('A' for Active; 'I' for Inactive)
REMARK    1  A    between atoms: C_1  and  C_2
REMARK    2  A    between atoms: C_5  and  C_9
REMARK    3  A    between atoms: C_7  and  C_8
REMARK    4  A    between atoms: C_14  and  N_18
REMARK    5  A    between atoms: C_19  and  N_25
REMARK    6  A    between atoms: C_20  and  C_23
REMARK                            x       y       z     vdW  Elec       q    Type
REMARK                         _______ _______ _______ _____ _____    ______ ____
ROOT
ATOM      1  C   UNL     1       2.115   0.364  -0.393  0.00  0.00    +0.002 A 
ATOM      2  C   UNL     1       2.887   0.337  -1.504  0.00  0.00    +0.056 A 
ATOM      3  S   UNL     1       4.354  -0.524  -0.972  0.00  0.00    -0.076 S 
ATOM      4  C   UNL     1       3.901  -0.835   0.714  0.00  0.00    +0.114 A 
ATOM      5  C   UNL     1       2.618  -0.257   0.827  0.00  0.00    +0.060 A 
ATOM      6  C   UNL     1       2.011  -0.366   2.105  0.00  0.00    +0.168 A 
ATOM      7  N   UNL     1       2.662  -0.981   3.078  0.00  0.00    -0.216 NA
ATOM      8  C   UNL     1       3.863  -1.500   2.903  0.00  0.00    +0.224 A 
ATOM      9  N   UNL     1       4.479  -1.430   1.738  0.00  0.00    -0.228 NA
ENDROOT
BRANCH   1  14
ATOM     10  C   UNL     1      -3.070   2.867  -0.485  0.00  0.00    +0.044 C 
ATOM     11  C   UNL     1      -1.713   2.212  -0.461  0.00  0.00    -0.048 A 
ATOM     12  C   UNL     1      -1.599   0.875  -0.124  0.00  0.00    +0.004 A 
ATOM     13  C   UNL     1      -0.359   0.271  -0.095  0.00  0.00    +0.009 A 
ATOM     14  C   UNL     1       0.780   1.009  -0.417  0.00  0.00    -0.016 A 
ATOM     15  C   UNL     1       0.659   2.354  -0.761  0.00  0.00    +0.012 A 
ATOM     16  C   UNL     1      -0.587   2.949  -0.781  0.00  0.00    -0.047 A 
ATOM     17  C   UNL     1      -0.720   4.403  -1.153  0.00  0.00    +0.044 C 
ENDBRANCH   1  14
BRANCH   6  18
ATOM     18  N   UNL     1       0.745   0.168   2.331  0.00  0.00    -0.199 N 
ATOM     19  C   UNL     1      -0.352  -0.528   2.732  0.00  0.00    +0.139 A 
ATOM     20  C   UNL     1      -1.397   0.386   2.836  0.00  0.00    +0.111 A 
ATOM     21  C   UNL     1      -0.877   1.653   2.479  0.00  0.00    +0.155 A 
ATOM     22  N   UNL     1       0.386   1.512   2.190  0.00  0.00    -0.170 NA
BRANCH  19  23
ATOM     23  N   UNL     1      -0.418  -1.883   2.989  0.00  0.00    -0.342 N 
ATOM     24  H   UNL     1       0.373  -2.435   2.885  0.00  0.00    +0.144 HD
ATOM     25  H   UNL     1      -1.254  -2.283   3.272  0.00  0.00    +0.144 HD
ENDBRANCH  19  23
BRANCH  20  26
ATOM     26  C   UNL     1      -2.744   0.099   3.228  0.00  0.00    +0.104 C 
ATOM     27  N   UNL     1      -3.812  -0.130   3.539  0.00  0.00    -0.191 NA
ENDBRANCH  20  26
ENDBRANCH   6  18
TORSDOF 4
