REMARK  Name = ZINC09601792
REMARK  5 active torsions:
REMARK  status: ('A' for Active; 'I' for Inactive)
REMARK    1  A    between atoms: C_1  and  C_2
REMARK    2  A    between atoms: C_2  and  S_3
REMARK    3  A    between atoms: S_3  and  C_4
REMARK    4  A    between atoms: C_17  and  C_20
REMARK    5  A    between atoms: C_22  and  O_27
REMARK                            x       y       z     vdW  Elec       q    Type
REMARK                         _______ _______ _______ _____ _____    ______ ____
ROOT
ATOM      1  C   UNL     1       0.065   1.121   2.742  0.00  0.00    +0.212 A 
ATOM      2  N   UNL     1      -0.187   1.325   4.032  0.00  0.00    -0.184 NA
ATOM      3  C   UNL     1       0.553   0.713   4.940  0.00  0.00    +0.248 A 
ATOM      4  C   UNL     1       1.594  -0.139   4.506  0.00  0.00    +0.156 A 
ATOM      5  N   UNL     1       1.790  -0.302   3.207  0.00  0.00    -0.141 NA
ATOM      6  N   UNL     1       1.041   0.308   2.355  0.00  0.00    -0.122 NA
ATOM      7  C   UNL     1       2.441  -0.824   5.505  0.00  0.00    +0.028 A 
ATOM      8  C   UNL     1       2.734  -2.179   5.403  0.00  0.00    +0.012 A 
ATOM      9  C   UNL     1       3.556  -2.775   6.340  0.00  0.00    +0.001 A 
ATOM     10  C   UNL     1       4.089  -2.032   7.379  0.00  0.00    +0.002 A 
ATOM     11  C   UNL     1       3.800  -0.684   7.495  0.00  0.00    +0.024 A 
ATOM     12  C   UNL     1       2.975  -0.074   6.569  0.00  0.00    +0.039 A 
ATOM     13  N   UNL     1       2.650   1.282   6.664  0.00  0.00    -0.305 N 
ATOM     14  C   UNL     1       1.278   1.655   6.994  0.00  0.00    +0.295 C 
ATOM     15  O   UNL     1       0.330   0.884   6.265  0.00  0.00    -0.449 OA
ATOM     16  H   UNL     1       3.324   1.964   6.514  0.00  0.00    +0.150 HD
ENDROOT
BRANCH  14  17
ATOM     17  C   UNL     1       1.054   1.441   8.469  0.00  0.00    +0.029 A 
ATOM     18  C   UNL     1       0.458   0.277   8.915  0.00  0.00    +0.055 A 
ATOM     19  C   UNL     1       0.253   0.081  10.273  0.00  0.00    +0.117 A 
ATOM     20  C   UNL     1       0.645   1.054  11.180  0.00  0.00    +0.046 A 
ATOM     21  C   UNL     1       1.240   2.216  10.730  0.00  0.00    +0.019 A 
ATOM     22  C   UNL     1       1.450   2.408   9.376  0.00  0.00    +0.026 A 
ATOM     23 BR   UNL     1       2.272   3.997   8.763  0.00  0.00    -0.050 Br
BRANCH  19  24
ATOM     24  O   UNL     1      -0.334  -1.064  10.713  0.00  0.00    -0.507 OA
ATOM     25  H   UNL     1       0.291  -1.776  10.906  0.00  0.00    +0.292 HD
ENDBRANCH  19  24
ENDBRANCH  14  17
BRANCH   1  26
ATOM     26  S   UNL     1      -0.917   1.935   1.527  0.00  0.00    -0.085 S 
BRANCH  26  28
ATOM     27  C   UNL     1      -0.851   1.888  -1.204  0.00  0.00    +0.016 C 
ATOM     28  C   UNL     1      -0.144   1.300   0.019  0.00  0.00    +0.074 C 
ENDBRANCH  26  28
ENDBRANCH   1  26
TORSDOF 4
