REMARK  Name = ZINC16533062
REMARK  7 active torsions:
REMARK  status: ('A' for Active; 'I' for Inactive)
REMARK    1  A    between atoms: C_1  and  C_2
REMARK    2  A    between atoms: C_6  and  N_8
REMARK    3  A    between atoms: C_10  and  C_17
REMARK    4  A    between atoms: C_13  and  C_16
REMARK    5  A    between atoms: N_24  and  C_25
REMARK    6  A    between atoms: C_27  and  C_35
REMARK    7  A    between atoms: C_29  and  C_31
REMARK                            x       y       z     vdW  Elec       q    Type
REMARK                         _______ _______ _______ _____ _____    ______ ____
ROOT
ATOM      1  C   UNL     1       0.719   1.322  -0.631  0.00  0.00    +0.086 C 
ATOM      2  C   UNL     1       0.553  -0.158  -0.405  0.00  0.00    +0.106 A 
ATOM      3  N   UNL     1       0.729  -0.983  -1.414  0.00  0.00    -0.347 N 
ATOM      4  C   UNL     1       0.597  -2.300  -1.264  0.00  0.00    +0.027 A 
ATOM      5  C   UNL     1       0.278  -2.795  -0.023  0.00  0.00    +0.029 A 
ATOM      6  C   UNL     1       0.090  -1.892   1.030  0.00  0.00    +0.130 A 
ATOM      7  N   UNL     1       0.241  -0.592   0.800  0.00  0.00    -0.219 NA
ATOM      8  C   UNL     1       0.135  -4.267   0.252  0.00  0.00    +0.149 C 
ATOM      9  N   UNL     1       0.108  -5.003  -1.018  0.00  0.00    -0.281 N 
ATOM     10  C   UNL     1       1.092  -4.619  -2.044  0.00  0.00    +0.116 C 
ATOM     11  C   UNL     1       0.797  -3.180  -2.467  0.00  0.00    +0.072 C 
ATOM     12  C   UNL     1      -0.782  -5.991  -1.237  0.00  0.00    +0.307 C 
ATOM     13  O   UNL     1      -0.729  -6.642  -2.262  0.00  0.00    -0.252 OA
ATOM     14  N   UNL     1      -1.732  -6.258  -0.318  0.00  0.00    -0.269 N 
ATOM     15  H   UNL     1      -1.866  -5.655   0.430  0.00  0.00    +0.156 HD
ATOM     16  H   UNL     1       0.959  -0.625  -2.286  0.00  0.00    +0.167 HD
ENDROOT
BRANCH   6  17
ATOM     17  N   UNL     1      -0.244  -2.348   2.295  0.00  0.00    -0.310 N 
ATOM     18  C   UNL     1       0.796  -2.767   3.248  0.00  0.00    +0.138 C 
ATOM     19  C   UNL     1       0.548  -2.051   4.580  0.00  0.00    +0.133 C 
ATOM     20  O   UNL     1      -0.807  -2.265   4.984  0.00  0.00    -0.371 OA
ATOM     21  C   UNL     1      -1.778  -1.727   4.083  0.00  0.00    +0.133 C 
ATOM     22  C   UNL     1      -1.648  -2.421   2.727  0.00  0.00    +0.138 C 
ATOM     23  C   UNL     1      -3.182  -1.959   4.647  0.00  0.00    +0.039 C 
ATOM     24  C   UNL     1       1.494  -2.610   5.645  0.00  0.00    +0.039 C 
ENDBRANCH   6  17
BRANCH  14  25
ATOM     25  C   UNL     1      -2.525  -7.404  -0.444  0.00  0.00    +0.036 A 
ATOM     26  C   UNL     1      -2.710  -7.989  -1.690  0.00  0.00    +0.035 A 
ATOM     27  C   UNL     1      -3.493  -9.120  -1.811  0.00  0.00    +0.057 A 
ATOM     28  C   UNL     1      -4.091  -9.671  -0.693  0.00  0.00    +0.024 A 
ATOM     29  C   UNL     1      -3.909  -9.091   0.549  0.00  0.00    +0.057 A 
ATOM     30  C   UNL     1      -3.123  -7.963   0.678  0.00  0.00    +0.035 A 
BRANCH  29  31
ATOM     31  C   UNL     1      -4.564  -9.694   1.765  0.00  0.00    +0.417 C 
ATOM     32  F   UNL     1      -3.704 -10.637   2.339  0.00  0.00    -0.166 F 
ATOM     33  F   UNL     1      -4.838  -8.686   2.696  0.00  0.00    -0.166 F 
ATOM     34  F   UNL     1      -5.758 -10.320   1.390  0.00  0.00    -0.166 F 
ENDBRANCH  29  31
BRANCH  27  35
ATOM     35  C   UNL     1      -3.695  -9.755  -3.163  0.00  0.00    +0.417 C 
ATOM     36  F   UNL     1      -2.996  -9.024  -4.130  0.00  0.00    -0.166 F 
ATOM     37  F   UNL     1      -3.217 -11.070  -3.136  0.00  0.00    -0.166 F 
ATOM     38  F   UNL     1      -5.058  -9.761  -3.476  0.00  0.00    -0.166 F 
ENDBRANCH  27  35
ENDBRANCH  14  25
TORSDOF 4
