REMARK  Name = ZINC40273438
REMARK  4 active torsions:
REMARK  status: ('A' for Active; 'I' for Inactive)
REMARK    1  A    between atoms: C_1  and  O_2
REMARK    2  A    between atoms: O_2  and  C_3
REMARK    3  A    between atoms: C_8  and  C_9
REMARK    4  A    between atoms: C_9  and  C_11
REMARK                            x       y       z     vdW  Elec       q    Type
REMARK                         _______ _______ _______ _____ _____    ______ ____
ROOT
ATOM      1  C   UNL     1       0.051  -2.828   0.005  0.00  0.00    +0.144 C 
ATOM      2 CL   UNL     1       0.863  -4.436  -0.079  0.00  0.00    -0.112 Cl
ENDROOT
BRANCH   1   3
ATOM      3  C   UNL     1      -1.414  -3.020   0.304  0.00  0.00    -0.022 A 
ATOM      4  C   UNL     1      -1.800  -3.741   1.423  0.00  0.00    +0.008 A 
ATOM      5  C   UNL     1      -3.135  -3.924   1.709  0.00  0.00    +0.032 A 
ATOM      6  C   UNL     1      -4.104  -3.379   0.865  0.00  0.00    +0.113 A 
ATOM      7  C   UNL     1      -3.709  -2.651  -0.267  0.00  0.00    +0.159 A 
ATOM      8  C   UNL     1      -2.362  -2.472  -0.536  0.00  0.00    +0.054 A 
ATOM      9  O   UNL     1      -4.847  -2.254  -0.881  0.00  0.00    -0.406 OA
ATOM     10  C   UNL     1      -5.890  -2.713  -0.168  0.00  0.00    +0.441 A 
ATOM     11  O   UNL     1      -7.190  -2.512  -0.480  0.00  0.00    -0.221 OA
ATOM     12  N   UNL     1      -5.465  -3.382   0.870  0.00  0.00    -0.172 NA
ENDBRANCH   1   3
BRANCH   1  18
ATOM     13  C   UNL     1       0.626  -0.619   1.042  0.00  0.00    +0.125 A 
ATOM     14  C   UNL     1       1.202   0.139   2.051  0.00  0.00    +0.047 A 
ATOM     15  C   UNL     1       1.836  -0.487   3.107  0.00  0.00    +0.023 A 
ATOM     16  C   UNL     1       1.896  -1.869   3.158  0.00  0.00    +0.042 A 
ATOM     17  C   UNL     1       1.323  -2.626   2.152  0.00  0.00    +0.029 A 
ATOM     18  C   UNL     1       0.682  -2.003   1.097  0.00  0.00    +0.018 A 
ATOM     19 CL   UNL     1       2.694  -2.654   4.485  0.00  0.00    -0.084 Cl
BRANCH  13  21
ATOM     20  C   UNL     1      -0.017   1.425   0.010  0.00  0.00    +0.277 C 
ATOM     21  O   UNL     1       0.002  -0.004   0.002  0.00  0.00    -0.495 OA
ENDBRANCH  13  21
ENDBRANCH   1  18
TORSDOF 3
