REMARK  Name = ZINC09185442
REMARK  3 active torsions:
REMARK  status: ('A' for Active; 'I' for Inactive)
REMARK    1  A    between atoms: C_13  and  C_26
REMARK    2  A    between atoms: C_15  and  C_17
REMARK    3  A    between atoms: C_17  and  C_19
REMARK                            x       y       z     vdW  Elec       q    Type
REMARK                         _______ _______ _______ _____ _____    ______ ____
ROOT
ATOM      1  C   UNL     1      -0.017   1.375   0.010  0.00  0.00    +0.001 A 
ATOM      2  C   UNL     1       1.168   2.091   0.002  0.00  0.00    +0.000 A 
ATOM      3  C   UNL     1       2.383   1.427  -0.015  0.00  0.00    +0.006 A 
ATOM      4  C   UNL     1       2.415   0.053  -0.024  0.00  0.00    -0.016 A 
ATOM      5  C   UNL     1       1.223  -0.682  -0.013  0.00  0.00    -0.000 A 
ATOM      6  C   UNL     1       0.002  -0.004   0.002  0.00  0.00    +0.010 A 
ATOM      7  C   UNL     1       1.251  -2.159  -0.010  0.00  0.00    +0.138 C 
ATOM      8  N   UNL     1       2.338  -2.790  -0.376  0.00  0.00    -0.191 NA
ATOM      9  N   UNL     1       3.433  -1.986  -0.731  0.00  0.00    -0.235 N 
ATOM     10  C   UNL     1       3.719  -0.702  -0.050  0.00  0.00    +0.146 C 
ATOM     11  C   UNL     1       4.776   0.002  -0.895  0.00  0.00    +0.132 C 
ATOM     12  C   UNL     1       5.536  -1.164  -1.563  0.00  0.00    +0.108 C 
ATOM     13  C   UNL     1       4.397  -2.186  -1.814  0.00  0.00    +0.176 C 
ATOM     14  C   UNL     1       4.169   0.914  -1.924  0.00  0.00    +0.180 C 
ATOM     15  O   UNL     1       3.368   0.607  -2.782  0.00  0.00    -0.291 OA
ATOM     16  C   UNL     1       4.732   2.246  -1.689  0.00  0.00    +0.029 A 
ATOM     17  C   UNL     1       4.491   3.441  -2.373  0.00  0.00    +0.012 A 
ATOM     18  C   UNL     1       5.170   4.570  -1.931  0.00  0.00    +0.001 A 
ATOM     19  C   UNL     1       6.046   4.527  -0.865  0.00  0.00    +0.001 A 
ATOM     20  C   UNL     1       6.304   3.354  -0.169  0.00  0.00    +0.012 A 
ATOM     21  C   UNL     1       5.633   2.203  -0.593  0.00  0.00    +0.029 A 
ATOM     22  C   UNL     1       5.702   0.840  -0.059  0.00  0.00    +0.180 C 
ATOM     23  O   UNL     1       6.376   0.462   0.876  0.00  0.00    -0.291 OA
ENDROOT
BRANCH  12  24
ATOM     24  C   UNL     1       6.164  -0.726  -2.861  0.00  0.00    +0.112 A 
ATOM     25  C   UNL     1       7.477  -0.756  -3.149  0.00  0.00    +0.045 A 
ATOM     26  C   UNL     1       7.619  -0.258  -4.465  0.00  0.00    +0.041 A 
ATOM     27  C   UNL     1       6.384   0.048  -4.901  0.00  0.00    +0.195 A 
ATOM     28  O   UNL     1       5.506  -0.243  -3.928  0.00  0.00    -0.467 OA
ENDBRANCH  12  24
BRANCH  13  29
ATOM     29  C   UNL     1       4.941  -3.591  -1.773  0.00  0.00    +0.186 C 
ATOM     30  O   UNL     1       4.760  -4.283  -0.793  0.00  0.00    -0.290 OA
BRANCH  29  31
ATOM     31  C   UNL     1       5.690  -4.123  -2.920  0.00  0.00    +0.020 A 
ATOM     32  C   UNL     1       5.905  -3.326  -4.050  0.00  0.00    +0.014 A 
ATOM     33  C   UNL     1       6.608  -3.831  -5.122  0.00  0.00    +0.039 A 
ATOM     34  C   UNL     1       7.102  -5.126  -5.083  0.00  0.00    +0.123 A 
ATOM     35  C   UNL     1       6.892  -5.922  -3.966  0.00  0.00    +0.039 A 
ATOM     36  C   UNL     1       6.197  -5.428  -2.885  0.00  0.00    +0.014 A 
ATOM     37  F   UNL     1       7.790  -5.616  -6.138  0.00  0.00    -0.205 F 
ENDBRANCH  29  31
ENDBRANCH  13  29
TORSDOF 3
