REMARK  Name = ZINC36569086
REMARK  19 active torsions:
REMARK  status: ('A' for Active; 'I' for Inactive)
REMARK    1  A    between atoms: C_1  and  C_2
REMARK    2  A    between atoms: C_2  and  C_3
REMARK    3  A    between atoms: C_3  and  N_4
REMARK    4  A    between atoms: N_4  and  C_5
REMARK    5  A    between atoms: C_5  and  C_7
REMARK    6  A    between atoms: C_5  and  C_12
REMARK    7  A    between atoms: C_7  and  C_8
REMARK    8  A    between atoms: C_7  and  C_10
REMARK    9  A    between atoms: C_8  and  C_9
REMARK   10  A    between atoms: C_10  and  C_11
REMARK   11  A    between atoms: N_14  and  C_15
REMARK   12  A    between atoms: C_15  and  C_16
REMARK   13  A    between atoms: C_15  and  C_17
REMARK   14  A    between atoms: C_15  and  C_18
REMARK   15  A    between atoms: C_18  and  C_19
REMARK   16  A    between atoms: C_19  and  C_20
REMARK   17  A    between atoms: C_19  and  C_21
REMARK   18  A    between atoms: C_19  and  C_22
REMARK   19  A    between atoms: C_23  and  C_25
REMARK                            x       y       z     vdW  Elec       q    Type
REMARK                         _______ _______ _______ _____ _____    ______ ____
ROOT
ATOM      1  C   UNL     1       0.621  -3.238  -1.030  0.00  0.00    +0.165 C 
ENDROOT
BRANCH   1   2
ATOM      2  C   UNL     1      -0.693  -2.499  -1.036  0.00  0.00    +0.234 C 
ATOM      3  O   UNL     1      -0.706  -1.287  -1.000  0.00  0.00    -0.274 OA
ATOM      4  N   UNL     1      -1.852  -3.185  -1.080  0.00  0.00    -0.309 N 
ATOM      5  H   UNL     1      -1.843  -4.155  -1.057  0.00  0.00    +0.149 HD
BRANCH   4   6
ATOM      6  C   UNL     1      -3.126  -2.466  -1.162  0.00  0.00    +0.030 C 
ATOM      7  C   UNL     1      -3.311  -1.611   0.093  0.00  0.00    +0.031 C 
ATOM      8  C   UNL     1      -3.123  -1.564  -2.398  0.00  0.00    +0.031 C 
BRANCH   6   9
ATOM      9  C   UNL     1      -4.273  -3.472  -1.267  0.00  0.00    +0.031 C 
BRANCH   9  10
ATOM     10  C   UNL     1      -4.178  -4.217  -2.600  0.00  0.00    -0.036 C 
ATOM     11  C   UNL     1      -2.715  -4.553  -2.893  0.00  0.00    +0.010 C 
ATOM     12  C   UNL     1      -4.993  -5.509  -2.522  0.00  0.00    +0.010 C 
ATOM     13  C   UNL     1      -4.732  -3.332  -3.719  0.00  0.00    +0.010 C 
ENDBRANCH   9  10
ENDBRANCH   6   9
ENDBRANCH   4   6
ENDBRANCH   1   2
BRANCH   1  14
ATOM     14  N   UNL     1       1.371  -2.892   0.179  0.00  0.00    -0.286 N 
ATOM     15  C   UNL     1       1.692  -3.851   1.071  0.00  0.00    +0.247 C 
ATOM     16  O   UNL     1       2.399  -3.583   2.023  0.00  0.00    -0.270 OA
BRANCH  15  17
ATOM     17  C   UNL     1       1.184  -5.227   0.891  0.00  0.00    +0.038 A 
ATOM     18  C   UNL     1      -0.152  -5.442   0.548  0.00  0.00    +0.013 A 
ATOM     19  C   UNL     1      -0.621  -6.729   0.381  0.00  0.00    +0.002 A 
ATOM     20  C   UNL     1       0.230  -7.806   0.553  0.00  0.00    +0.020 A 
ATOM     21  C   UNL     1       1.557  -7.601   0.893  0.00  0.00    +0.042 A 
ATOM     22  C   UNL     1       2.039  -6.317   1.058  0.00  0.00    +0.033 A 
ATOM     23 CL   UNL     1       2.617  -8.959   1.106  0.00  0.00    -0.084 Cl
ENDBRANCH  15  17
BRANCH  14  24
ATOM     24  C   UNL     1       1.773  -1.504   0.420  0.00  0.00    +0.108 C 
BRANCH  24  26
ATOM     25  C   UNL     1       1.247   0.573   1.705  0.00  0.00    +0.005 C 
ATOM     26  C   UNL     1       0.763  -0.835   1.355  0.00  0.00    +0.016 C 
ENDBRANCH  24  26
ENDBRANCH  14  24
ENDBRANCH   1  14
BRANCH   1  27
ATOM     27  C   UNL     1       1.433  -2.843  -2.265  0.00  0.00    +0.018 C 
BRANCH  27  28
ATOM     28  C   UNL     1       2.761  -3.603  -2.266  0.00  0.00    +0.002 C 
ATOM     29  C   UNL     1       3.639  -3.098  -1.120  0.00  0.00    +0.004 C 
ENDBRANCH  27  28
BRANCH  27  30
ATOM     30  C   UNL     1       0.644  -3.193  -3.528  0.00  0.00    +0.002 C 
ATOM     31  C   UNL     1      -0.406  -2.112  -3.790  0.00  0.00    +0.004 C 
ENDBRANCH  27  30
ENDBRANCH   1  27
TORSDOF 11
