REMARK  Name = ZINC36626805
REMARK  4 active torsions:
REMARK  status: ('A' for Active; 'I' for Inactive)
REMARK    1  A    between atoms: C_1  and  C_2
REMARK    2  A    between atoms: C_12  and  C_14
REMARK    3  A    between atoms: N_17  and  S_20
REMARK    4  A    between atoms: S_20  and  C_23
REMARK                            x       y       z     vdW  Elec       q    Type
REMARK                         _______ _______ _______ _____ _____    ______ ____
ROOT
ATOM      1  C   UNL     1       0.122  -8.485   0.891  0.00  0.00    +0.078 C 
ATOM      2  C   UNL     1       1.379  -8.812   1.700  0.00  0.00    +0.030 C 
ATOM      3  C   UNL     1       1.381 -10.303   2.053  0.00  0.00    +0.110 C 
ATOM      4  N   UNL     1       1.239 -11.082   0.815  0.00  0.00    -0.177 NA
ATOM      5  C   UNL     1       0.114 -10.785  -0.082  0.00  0.00    +0.110 C 
ATOM      6  C   UNL     1       0.127  -9.289  -0.411  0.00  0.00    +0.030 C 
ENDROOT
BRANCH   1  18
ATOM      7  C   UNL     1      -0.018   1.503   0.010  0.00  0.00    +0.044 C 
ATOM      8  C   UNL     1       0.002  -0.004   0.002  0.00  0.00    -0.049 A 
ATOM      9  C   UNL     1       0.006  -0.698  -1.199  0.00  0.00    +0.005 A 
ATOM     10  C   UNL     1       0.024  -2.068  -1.235  0.00  0.00    +0.029 A 
ATOM     11  C   UNL     1       0.040  -2.822  -0.038  0.00  0.00    +0.080 A 
ATOM     12  C   UNL     1       0.036  -2.081   1.166  0.00  0.00    +0.041 A 
ATOM     13  C   UNL     1       0.023  -0.709   1.191  0.00  0.00    +0.020 A 
ATOM     14  S   UNL     1       0.059  -3.361   2.397  0.00  0.00    -0.052 S 
ATOM     15  C   UNL     1       0.073  -4.752   1.275  0.00  0.00    +0.165 A 
ATOM     16  N   UNL     1       0.059  -4.165   0.101  0.00  0.00    -0.225 NA
ATOM     17  N   UNL     1       0.093  -6.106   1.569  0.00  0.00    -0.264 N 
ATOM     18  C   UNL     1       0.101  -7.012   0.571  0.00  0.00    +0.222 C 
ATOM     19  O   UNL     1       0.090  -6.643  -0.584  0.00  0.00    -0.275 OA
ATOM     20  H   UNL     1       0.101  -6.402   2.493  0.00  0.00    +0.157 HD
ENDBRANCH   1  18
BRANCH   4  21
ATOM     21  S   UNL     1       2.328 -12.272   0.438  0.00  0.00    +0.061 S 
ATOM     22  O   UNL     1       2.281 -12.433  -0.973  0.00  0.00    -0.153 OA
ATOM     23  O   UNL     1       3.529 -11.957   1.130  0.00  0.00    -0.153 OA
BRANCH  21  24
ATOM     24  C   UNL     1       1.723 -13.772   1.136  0.00  0.00    +0.109 A 
ATOM     25  C   UNL     1       2.082 -14.127   2.423  0.00  0.00    +0.032 A 
ATOM     26  C   UNL     1       1.610 -15.303   2.978  0.00  0.00    +0.051 A 
ATOM     27  C   UNL     1       0.776 -16.125   2.239  0.00  0.00    +0.162 A 
ATOM     28  C   UNL     1       0.415 -15.768   0.948  0.00  0.00    +0.164 A 
ATOM     29  C   UNL     1       0.885 -14.588   0.397  0.00  0.00    +0.078 A 
ATOM     30  O   UNL     1      -0.409 -16.584   0.228  0.00  0.00    -0.488 OA
ATOM     31  C   UNL     1       0.143 -17.843  -0.161  0.00  0.00    +0.232 C 
ATOM     32  C   UNL     1      -0.004 -18.865   0.956  0.00  0.00    +0.082 C 
ATOM     33  C   UNL     1       0.800 -18.493   2.191  0.00  0.00    +0.232 C 
ATOM     34  O   UNL     1       0.302 -17.287   2.775  0.00  0.00    -0.488 OA
ENDBRANCH  21  24
ENDBRANCH   4  21
TORSDOF 3
