REMARK  Name = ZINC00611470
REMARK  3 active torsions:
REMARK  status: ('A' for Active; 'I' for Inactive)
REMARK    1  A    between atoms: C_1  and  C_2
REMARK    2  A    between atoms: C_5  and  N_9
REMARK    3  A    between atoms: N_12  and  C_13
REMARK                            x       y       z     vdW  Elec       q    Type
REMARK                         _______ _______ _______ _____ _____    ______ ____
ROOT
ATOM      1  N   UNL     1      -0.104  -4.158  -0.031  0.00  0.00    -0.268 N 
ATOM      2  C   UNL     1      -0.211  -4.839  -1.189  0.00  0.00    +0.308 C 
ATOM      3  O   UNL     1      -0.385  -4.241  -2.233  0.00  0.00    -0.252 OA
ATOM      4  N   UNL     1      -0.124  -6.184  -1.190  0.00  0.00    -0.269 N 
ATOM      5  H   UNL     1       0.113  -4.627   0.789  0.00  0.00    +0.156 HD
ATOM      6  H   UNL     1      -0.064  -6.667  -0.350  0.00  0.00    +0.156 HD
ENDROOT
BRANCH   4   7
ATOM      7  C   UNL     1      -0.121  -6.886  -2.403  0.00  0.00    +0.038 A 
ATOM      8  C   UNL     1       0.471  -6.326  -3.527  0.00  0.00    +0.027 A 
ATOM      9  C   UNL     1       0.475  -7.017  -4.724  0.00  0.00    +0.051 A 
ATOM     10  C   UNL     1      -0.112  -8.269  -4.806  0.00  0.00    +0.166 A 
ATOM     11  C   UNL     1      -0.708  -8.833  -3.680  0.00  0.00    +0.168 A 
ATOM     12  C   UNL     1      -0.706  -8.142  -2.479  0.00  0.00    +0.073 A 
ATOM     13  O   UNL     1      -1.209 -10.057  -4.018  0.00  0.00    -0.453 OA
ATOM     14  C   UNL     1      -1.276 -10.061  -5.456  0.00  0.00    +0.466 C 
ATOM     15  O   UNL     1      -0.241  -9.141  -5.849  0.00  0.00    -0.453 OA
ENDBRANCH   4   7
BRANCH   1  20
ATOM     16  C   UNL     1      -0.929   1.456   0.042  0.00  0.00    +0.044 C 
ATOM     17  C   UNL     1      -0.710  -0.035   0.023  0.00  0.00    -0.049 A 
ATOM     18  C   UNL     1      -1.216  -0.793  -1.017  0.00  0.00    +0.005 A 
ATOM     19  C   UNL     1      -1.016  -2.160  -1.038  0.00  0.00    +0.025 A 
ATOM     20  C   UNL     1      -0.307  -2.773  -0.013  0.00  0.00    +0.049 A 
ATOM     21  C   UNL     1       0.200  -2.008   1.030  0.00  0.00    +0.039 A 
ATOM     22  C   UNL     1       0.001  -0.641   1.042  0.00  0.00    +0.020 A 
ATOM     23 BR   UNL     1       1.166  -2.837   2.428  0.00  0.00    -0.048 Br
ENDBRANCH   1  20
TORSDOF 2
