REMARK  Name = ZINC64622966
REMARK  6 active torsions:
REMARK  status: ('A' for Active; 'I' for Inactive)
REMARK    1  A    between atoms: C_1  and  O_2
REMARK    2  A    between atoms: O_2  and  C_3
REMARK    3  A    between atoms: C_6  and  N_11
REMARK    4  A    between atoms: C_7  and  O_9
REMARK    5  A    between atoms: O_9  and  C_10
REMARK    6  A    between atoms: C_27  and  C_29
REMARK                            x       y       z     vdW  Elec       q    Type
REMARK                         _______ _______ _______ _____ _____    ______ ____
ROOT
ATOM      1  N   UNL     1       4.287  -2.422  -3.949  0.00  0.00    -0.266 N 
ATOM      2  C   UNL     1       4.106  -1.695  -5.069  0.00  0.00    +0.307 C 
ATOM      3  O   UNL     1       3.941  -0.493  -4.994  0.00  0.00    -0.252 OA
ATOM      4  N   UNL     1       4.108  -2.301  -6.273  0.00  0.00    -0.276 N 
ATOM      5  C   UNL     1       4.184  -3.764  -6.349  0.00  0.00    +0.114 C 
ATOM      6  C   UNL     1       2.964  -4.301  -7.120  0.00  0.00    +0.052 C 
ATOM      7  C   UNL     1       2.809  -3.432  -8.344  0.00  0.00    -0.035 C 
ATOM      8  C   UNL     1       2.698  -3.740  -9.631  0.00  0.00    -0.001 A 
ATOM      9  C   UNL     1       2.575  -5.034 -10.321  0.00  0.00    +0.010 A 
ATOM     10  C   UNL     1       2.499  -4.984 -11.678  0.00  0.00    +0.001 A 
ATOM     11  C   UNL     1       2.533  -3.792 -12.407  0.00  0.00    +0.002 A 
ATOM     12  C   UNL     1       2.636  -2.557 -11.854  0.00  0.00    +0.026 A 
ATOM     13  C   UNL     1       2.714  -2.479 -10.433  0.00  0.00    +0.043 A 
ATOM     14  N   UNL     1       2.794  -1.444  -9.651  0.00  0.00    -0.375 N 
ATOM     15  C   UNL     1       2.776  -1.911  -8.264  0.00  0.00    +0.131 C 
ATOM     16  C   UNL     1       4.027  -1.488  -7.497  0.00  0.00    +0.134 C 
ATOM     17  H   UNL     1       4.490  -3.369  -4.012  0.00  0.00    +0.156 HD
ATOM     18  H   UNL     1       2.856  -0.519  -9.938  0.00  0.00    +0.160 HD
ENDROOT
BRANCH  16  19
ATOM     19  C   UNL     1       3.932  -0.028  -7.135  0.00  0.00    -0.025 A 
ATOM     20  C   UNL     1       2.753   0.482  -6.625  0.00  0.00    +0.008 A 
ATOM     21  C   UNL     1       2.665   1.820  -6.292  0.00  0.00    +0.038 A 
ATOM     22  C   UNL     1       3.759   2.650  -6.469  0.00  0.00    +0.123 A 
ATOM     23  C   UNL     1       4.939   2.139  -6.979  0.00  0.00    +0.038 A 
ATOM     24  C   UNL     1       5.027   0.799  -7.307  0.00  0.00    +0.008 A 
ATOM     25  F   UNL     1       3.674   3.959  -6.144  0.00  0.00    -0.205 F 
ENDBRANCH  16  19
BRANCH   1  29
ATOM     26  C   UNL     1       3.976  -0.599  -0.205  0.00  0.00    +0.124 A 
ATOM     27  C   UNL     1       4.380   0.140  -1.308  0.00  0.00    +0.047 A 
ATOM     28  C   UNL     1       4.483  -0.464  -2.546  0.00  0.00    +0.030 A 
ATOM     29  C   UNL     1       4.183  -1.810  -2.690  0.00  0.00    +0.077 A 
ATOM     30  C   UNL     1       3.778  -2.553  -1.584  0.00  0.00    +0.145 A 
ATOM     31  C   UNL     1       3.681  -1.947  -0.343  0.00  0.00    +0.093 A 
BRANCH  26  33
ATOM     32  C   UNL     1       4.194   1.389   1.082  0.00  0.00    +0.277 C 
ATOM     33  O   UNL     1       3.875  -0.003   1.012  0.00  0.00    -0.495 OA
ENDBRANCH  26  33
BRANCH  30  34
ATOM     34  O   UNL     1       3.484  -3.874  -1.722  0.00  0.00    -0.493 OA
ATOM     35  C   UNL     1       3.075  -4.574  -0.546  0.00  0.00    +0.277 C 
ENDBRANCH  30  34
ENDBRANCH   1  29
TORSDOF 4
