REMARK  Name = ZINC44076301
REMARK  6 active torsions:
REMARK  status: ('A' for Active; 'I' for Inactive)
REMARK    1  A    between atoms: C_1  and  C_2
REMARK    2  A    between atoms: N_4  and  C_5
REMARK    3  A    between atoms: C_9  and  N_11
REMARK    4  A    between atoms: N_14  and  C_15
REMARK    5  A    between atoms: C_15  and  C_16
REMARK    6  A    between atoms: C_16  and  N_21
REMARK                            x       y       z     vdW  Elec       q    Type
REMARK                         _______ _______ _______ _____ _____    ______ ____
ROOT
ATOM      1  N   UNL     1       0.080  -4.648  -3.863  0.00  0.00    -0.267 N 
ATOM      2  C   UNL     1       0.247  -3.876  -4.955  0.00  0.00    +0.304 C 
ATOM      3  O   UNL     1       0.248  -2.665  -4.849  0.00  0.00    -0.253 OA
ATOM      4  N   UNL     1       0.413  -4.447  -6.165  0.00  0.00    -0.300 N 
ATOM      5  H   UNL     1       0.007  -5.611  -3.956  0.00  0.00    +0.156 HD
ATOM      6  H   UNL     1       0.411  -5.413  -6.249  0.00  0.00    +0.150 HD
ENDROOT
BRANCH   1  11
ATOM      7  C   UNL     1      -0.629  -2.227  -1.179  0.00  0.00    +0.035 A 
ATOM      8  C   UNL     1      -0.118  -2.901  -0.078  0.00  0.00    +0.026 A 
ATOM      9  C   UNL     1       0.455  -4.149  -0.234  0.00  0.00    +0.042 A 
ATOM     10  C   UNL     1       0.522  -4.730  -1.487  0.00  0.00    +0.145 A 
ATOM     11  C   UNL     1       0.012  -4.060  -2.593  0.00  0.00    +0.072 A 
ATOM     12  C   UNL     1      -0.569  -2.810  -2.437  0.00  0.00    +0.049 A 
ATOM     13  F   UNL     1       1.083  -5.950  -1.637  0.00  0.00    -0.204 F 
BRANCH   7  17
ATOM     14  C   UNL     1      -1.259   1.298  -0.019  0.00  0.00    +0.109 C 
ATOM     15  C   UNL     1      -0.708  -0.101  -0.113  0.00  0.00    +0.214 C 
ATOM     16  O   UNL     1       0.186  -0.452   0.628  0.00  0.00    -0.276 OA
ATOM     17  N   UNL     1      -1.209  -0.963  -1.020  0.00  0.00    -0.286 N 
ATOM     18  H   UNL     1      -1.972  -0.707  -1.562  0.00  0.00    +0.155 HD
ENDBRANCH   7  17
ENDBRANCH   1  11
BRANCH   4  19
ATOM     19  C   UNL     1       0.594  -3.608  -7.352  0.00  0.00    +0.094 C 
BRANCH  19  20
ATOM     20  C   UNL     1       0.634  -4.492  -8.600  0.00  0.00    -0.050 C 
ATOM     21  C   UNL     1       1.834  -5.458  -8.524  0.00  0.00    -0.010 C 
ATOM     22  C   UNL     1       2.344  -5.546  -9.985  0.00  0.00    -0.001 C 
ATOM     23  C   UNL     1       2.167  -4.095 -10.496  0.00  0.00    -0.001 C 
ATOM     24  C   UNL     1       0.846  -3.625  -9.853  0.00  0.00    -0.010 C 
BRANCH  20  25
ATOM     25  N   UNL     1      -0.618  -5.252  -8.719  0.00  0.00    +0.386 N 
ATOM     26  C   UNL     1      -0.487  -6.225  -9.805  0.00  0.00    -0.067 C 
ATOM     27  C   UNL     1      -1.611  -7.264  -9.710  0.00  0.00    +0.050 C 
ATOM     28  S   UNL     1      -3.202  -6.404  -9.909  0.00  0.00    -0.164 S 
ATOM     29  C   UNL     1      -3.061  -5.026  -8.728  0.00  0.00    +0.050 C 
ATOM     30  C   UNL     1      -1.721  -4.322  -8.969  0.00  0.00    -0.067 C 
ATOM     31  H   UNL     1      -0.789  -5.743  -7.854  0.00  0.00    -0.081 HD
ENDBRANCH  20  25
ENDBRANCH  19  20
ENDBRANCH   4  19
TORSDOF 5
