REMARK  Name = ZINC02060424
REMARK  4 active torsions:
REMARK  status: ('A' for Active; 'I' for Inactive)
REMARK    1  A    between atoms: C_4  and  N_7
REMARK    2  A    between atoms: C_13  and  C_15
REMARK    3  A    between atoms: C_20  and  C_33
REMARK    4  A    between atoms: C_23  and  C_26
REMARK                            x       y       z     vdW  Elec       q    Type
REMARK                         _______ _______ _______ _____ _____    ______ ____
ROOT
ATOM      1  C   UNL     1       7.025  -3.900   1.097  0.00  0.00    +0.149 A 
ATOM      2  C   UNL     1       8.178  -4.713   1.187  0.00  0.00    +0.078 A 
ATOM      3  C   UNL     1       7.774  -5.998   1.138  0.00  0.00    +0.119 A 
ATOM      4  N   UNL     1       6.413  -6.012   1.024  0.00  0.00    -0.238 N 
ATOM      5  N   UNL     1       5.970  -4.691   1.006  0.00  0.00    -0.164 NA
ATOM      6  C   UNL     1       5.617  -7.240   0.948  0.00  0.00    +0.215 C 
ATOM      7  C   UNL     1       6.450  -8.407   1.490  0.00  0.00    +0.063 C 
ATOM      8  C   UNL     1       7.831  -8.415   0.824  0.00  0.00    +0.104 C 
ATOM      9  N   UNL     1       8.535  -7.170   1.187  0.00  0.00    -0.322 N 
ATOM     10  H   UNL     1       9.470  -7.165   1.444  0.00  0.00    +0.148 HD
ENDROOT
BRANCH   1  17
ATOM     11  N   UNL     1       3.571  -0.674   0.074  0.00  0.00    -0.327 N 
ATOM     12  C   UNL     1       4.831   0.062  -0.107  0.00  0.00    +0.124 C 
ATOM     13  C   UNL     1       5.781  -0.303   1.040  0.00  0.00    +0.127 C 
ATOM     14  N   UNL     1       5.827  -1.767   1.164  0.00  0.00    -0.293 N 
ATOM     15  C   UNL     1       4.568  -2.503   1.345  0.00  0.00    +0.127 C 
ATOM     16  C   UNL     1       3.618  -2.137   0.204  0.00  0.00    +0.124 C 
ATOM     17  C   UNL     1       7.003  -2.423   1.111  0.00  0.00    +0.267 C 
ATOM     18  O   UNL     1       8.046  -1.799   1.075  0.00  0.00    -0.268 OA
BRANCH  11  22
ATOM     19  C   UNL     1      -0.062   1.353   0.238  0.00  0.00    +0.000 A 
ATOM     20  C   UNL     1      -0.043  -0.030   0.243  0.00  0.00    +0.002 A 
ATOM     21  C   UNL     1       1.161  -0.705   0.189  0.00  0.00    +0.023 A 
ATOM     22  C   UNL     1       2.352   0.006   0.129  0.00  0.00    +0.030 A 
ATOM     23  C   UNL     1       2.329   1.395   0.123  0.00  0.00    +0.023 A 
ATOM     24  C   UNL     1       1.122   2.064   0.177  0.00  0.00    +0.002 A 
ENDBRANCH  11  22
ENDBRANCH   1  17
BRANCH   8  25
ATOM     25  C   UNL     1       7.670  -8.493  -0.673  0.00  0.00    -0.027 A 
ATOM     26  C   UNL     1       7.374  -7.353  -1.396  0.00  0.00    +0.007 A 
ATOM     27  C   UNL     1       7.227  -7.423  -2.768  0.00  0.00    +0.020 A 
ATOM     28  C   UNL     1       7.375  -8.635  -3.418  0.00  0.00    +0.041 A 
ATOM     29  C   UNL     1       7.671  -9.776  -2.694  0.00  0.00    +0.020 A 
ATOM     30  C   UNL     1       7.824  -9.703  -1.322  0.00  0.00    +0.007 A 
ATOM     31 CL   UNL     1       7.190  -8.725  -5.142  0.00  0.00    -0.084 Cl
ENDBRANCH   8  25
BRANCH   6  32
ATOM     32  C   UNL     1       4.348  -7.081   1.788  0.00  0.00    +0.412 C 
ATOM     33  F   UNL     1       3.596  -6.008   1.298  0.00  0.00    -0.168 F 
ATOM     34  F   UNL     1       3.589  -8.254   1.714  0.00  0.00    -0.168 F 
ATOM     35  F   UNL     1       4.698  -6.835   3.120  0.00  0.00    -0.168 F 
ENDBRANCH   6  32
TORSDOF 4
