REMARK  Name = ZINC64006760
REMARK  6 active torsions:
REMARK  status: ('A' for Active; 'I' for Inactive)
REMARK    1  A    between atoms: C_1  and  C_2
REMARK    2  A    between atoms: C_3  and  C_26
REMARK    3  A    between atoms: C_12  and  C_14
REMARK    4  A    between atoms: C_16  and  C_25
REMARK    5  A    between atoms: C_26  and  N_27
REMARK    6  A    between atoms: C_28  and  C_30
REMARK                            x       y       z     vdW  Elec       q    Type
REMARK                         _______ _______ _______ _____ _____    ______ ____
ROOT
ATOM      1  C   UNL     1      -0.018   1.503   0.010  0.00  0.00    +0.066 C 
ATOM      2  C   UNL     1       0.002  -0.004   0.002  0.00  0.00    +0.043 A 
ATOM      3  C   UNL     1       0.006  -0.681  -1.201  0.00  0.00    -0.006 A 
ATOM      4  C   UNL     1       0.028  -2.072  -1.201  0.00  0.00    -0.033 A 
ATOM      5  C   UNL     1       0.052  -2.726   0.012  0.00  0.00    -0.008 A 
ATOM      6  C   UNL     1       0.040  -1.980   1.181  0.00  0.00    +0.116 A 
ATOM      7  N   UNL     1       0.022  -0.663   1.144  0.00  0.00    -0.260 NA
ATOM      8  C   UNL     1       0.104  -4.228   0.117  0.00  0.00    +0.144 C 
ATOM      9  N   UNL     1      -0.159  -4.820  -1.200  0.00  0.00    -0.295 N 
ATOM     10  C   UNL     1       0.522  -4.225  -2.361  0.00  0.00    +0.113 C 
ATOM     11  C   UNL     1       0.018  -2.791  -2.521  0.00  0.00    +0.055 C 
ATOM     12  C   UNL     1      -0.993  -5.870  -1.341  0.00  0.00    +0.242 C 
ATOM     13  O   UNL     1      -1.194  -6.341  -2.440  0.00  0.00    -0.273 OA
ENDROOT
BRANCH  12  14
ATOM     14  C   UNL     1      -1.675  -6.457  -0.132  0.00  0.00    +0.193 C 
ATOM     15  C   UNL     1      -0.734  -7.391   0.595  0.00  0.00    -0.033 C 
ATOM     16  C   UNL     1      -1.322  -8.609   0.573  0.00  0.00    +0.001 A 
ATOM     17  C   UNL     1      -0.919  -9.917   1.102  0.00  0.00    +0.030 A 
ATOM     18  C   UNL     1      -1.737 -10.979   0.918  0.00  0.00    +0.042 A 
ATOM     19  C   UNL     1      -2.957 -10.861   0.237  0.00  0.00    +0.022 A 
ATOM     20  C   UNL     1      -3.394  -9.692  -0.277  0.00  0.00    +0.027 A 
ATOM     21  C   UNL     1      -2.614  -8.511  -0.143  0.00  0.00    +0.043 A 
ATOM     22  N   UNL     1      -2.818  -7.279  -0.546  0.00  0.00    -0.370 N 
ATOM     23 CL   UNL     1      -1.264 -12.529   1.542  0.00  0.00    -0.084 Cl
ATOM     24  C   UNL     1       0.591  -7.036   1.219  0.00  0.00    +0.042 C 
ATOM     25  H   UNL     1      -3.594  -6.963  -1.036  0.00  0.00    +0.161 HD
ENDBRANCH  12  14
BRANCH   3  26
ATOM     26  C   UNL     1      -0.015   0.080  -2.502  0.00  0.00    +0.141 C 
BRANCH  26  27
ATOM     27  N   UNL     1       1.359   0.349  -2.933  0.00  0.00    -0.309 N 
ATOM     28  C   UNL     1       1.587   1.022  -4.078  0.00  0.00    +0.242 C 
ATOM     29  O   UNL     1       0.654   1.404  -4.752  0.00  0.00    -0.273 OA
ATOM     30  H   UNL     1       2.105   0.043  -2.393  0.00  0.00    +0.149 HD
BRANCH  28  31
ATOM     31  C   UNL     1       3.000   1.299  -4.521  0.00  0.00    +0.204 C 
ATOM     32  C   UNL     1       3.721  -0.025  -4.878  0.00  0.00    +0.043 C 
ATOM     33  C   UNL     1       4.807   0.487  -5.864  0.00  0.00    +0.031 C 
ATOM     34  C   UNL     1       4.080   1.646  -6.578  0.00  0.00    +0.161 C 
ATOM     35  O   UNL     1       3.001   2.068  -5.734  0.00  0.00    -0.367 OA
ENDBRANCH  28  31
ENDBRANCH  26  27
ENDBRANCH   3  26
TORSDOF 4
