REMARK  Name = ZINC09970242
REMARK  16 active torsions:
REMARK  status: ('A' for Active; 'I' for Inactive)
REMARK    1  A    between atoms: C_1  and  C_2
REMARK    2  A    between atoms: N_4  and  C_5
REMARK    3  A    between atoms: C_5  and  C_26
REMARK    4  A    between atoms: C_6  and  C_18
REMARK    5  A    between atoms: C_6  and  C_19
REMARK    6  A    between atoms: C_8  and  C_15
REMARK    7  A    between atoms: C_8  and  O_17
REMARK    8  A    between atoms: C_9  and  C_13
REMARK    9  A    between atoms: C_9  and  C_14
REMARK   10  A    between atoms: C_10  and  C_11
REMARK   11  A    between atoms: C_10  and  O_12
REMARK   12  A    between atoms: C_19  and  C_21
REMARK   13  A    between atoms: C_19  and  O_25
REMARK   14  A    between atoms: C_21  and  C_23
REMARK   15  A    between atoms: C_21  and  O_24
REMARK   16  A    between atoms: C_23  and  N_55
REMARK                            x       y       z     vdW  Elec       q    Type
REMARK                         _______ _______ _______ _____ _____    ______ ____
ROOT
ATOM      1  C   UNL     1       1.769   3.476  -1.488  0.00  0.00    +0.092 C 
ATOM      2  C   UNL     1       1.822   2.416  -2.583  0.00  0.00    +0.122 C 
ATOM      3  O   UNL     1       2.636   1.317  -2.210  0.00  0.00    -0.328 OA
ATOM      4  C   UNL     1       2.365   0.664  -0.983  0.00  0.00    +0.281 C 
ATOM      5  C   UNL     1       2.397   1.645   0.183  0.00  0.00    +0.061 C 
ATOM      6  C   UNL     1       1.602   2.913  -0.086  0.00  0.00    +0.097 C 
ATOM      7  C   UNL     1       0.118   2.678   0.226  0.00  0.00    +0.044 C 
ATOM      8  C   UNL     1       3.855   1.998   0.507  0.00  0.00    +0.020 C 
ATOM      9  C   UNL     1       1.798   0.946   1.419  0.00  0.00    +0.020 C 
ATOM     10  C   UNL     1       0.417   1.969  -2.985  0.00  0.00    +0.047 C 
ATOM     11  C   UNL     1       0.577   4.409  -1.782  0.00  0.00    +0.037 C 
ENDROOT
BRANCH   1  15
ATOM     12  C   UNL     1       4.317   6.288  -0.940  0.00  0.00    +0.109 C 
ATOM     13  C   UNL     1       3.080   5.433  -0.842  0.00  0.00    +0.210 C 
ATOM     14  O   UNL     1       2.164   5.771  -0.123  0.00  0.00    -0.276 OA
ATOM     15  N   UNL     1       2.992   4.292  -1.554  0.00  0.00    -0.305 N 
ATOM     16  H   UNL     1       3.735   4.009  -2.110  0.00  0.00    +0.149 HD
ENDBRANCH   1  15
BRANCH   4  17
ATOM     17  C   UNL     1       3.448  -0.377  -0.752  0.00  0.00    +0.415 C 
ATOM     18  O   UNL     1       3.144  -1.524  -0.525  0.00  0.00    -0.240 OA
ATOM     19  O   UNL     1       4.741  -0.022  -0.799  0.00  0.00    -0.240 OA
ENDBRANCH   4  17
BRANCH   6  20
ATOM     20  O   UNL     1       2.067   3.921   0.844  0.00  0.00    -0.386 OA
ATOM     21  H   UNL     1       2.002   3.660   1.772  0.00  0.00    +0.210 HD
ENDBRANCH   6  20
BRANCH   4  22
ATOM     22  O   UNL     1       1.111  -0.019  -1.019  0.00  0.00    -0.356 OA
ATOM     23  H   UNL     1       1.053  -0.700  -1.702  0.00  0.00    +0.213 HD
ENDBRANCH   4  22
BRANCH   2  24
ATOM     24  C   UNL     1       2.468   3.069  -3.828  0.00  0.00    +0.175 C 
BRANCH  24  25
ATOM     25  O   UNL     1       1.640   4.140  -4.287  0.00  0.00    -0.386 OA
ATOM     26  H   UNL     1       0.748   3.867  -4.539  0.00  0.00    +0.210 HD
ENDBRANCH  24  25
BRANCH  24  27
ATOM     27  C   UNL     1       2.611   2.024  -4.936  0.00  0.00    +0.128 C 
BRANCH  27  28
ATOM     28  O   UNL     1       1.317   1.545  -5.309  0.00  0.00    -0.391 OA
ATOM     29  H   UNL     1       0.724   2.233  -5.641  0.00  0.00    +0.210 HD
ENDBRANCH  27  28
BRANCH  27  30
ATOM     30  C   UNL     1       3.290   2.659  -6.151  0.00  0.00    -0.052 C 
BRANCH  30  33
ATOM     31  H   UNL     1       2.532   1.254  -7.452  0.00  0.00    -0.090 HD
ATOM     32  H   UNL     1       3.873   2.050  -8.030  0.00  0.00    -0.090 HD
ATOM     33  N   UNL     1       3.442   1.638  -7.204  0.00  0.00    +0.380 N 
ATOM     34  H   UNL     1       4.041   0.881  -6.855  0.00  0.00    -0.090 HD
ENDBRANCH  30  33
ENDBRANCH  27  30
ENDBRANCH  24  27
ENDBRANCH   2  24
TORSDOF 10
