REMARK  Name = ZINC67312951
REMARK  21 active torsions:
REMARK  status: ('A' for Active; 'I' for Inactive)
REMARK    1  A    between atoms: C_1  and  C_2
REMARK    2  A    between atoms: C_2  and  N_3
REMARK    3  A    between atoms: N_3  and  C_4
REMARK    4  A    between atoms: N_3  and  C_6
REMARK    5  A    between atoms: C_4  and  C_5
REMARK    6  A    between atoms: C_6  and  C_7
REMARK    7  A    between atoms: C_7  and  C_8
REMARK    8  A    between atoms: C_8  and  N_9
REMARK    9  A    between atoms: N_9  and  C_10
REMARK   10  A    between atoms: C_11  and  C_13
REMARK   11  A    between atoms: C_13  and  C_14
REMARK   12  A    between atoms: C_14  and  C_15
REMARK   13  A    between atoms: C_15  and  C_16
REMARK   14  A    between atoms: C_16  and  C_17
REMARK   15  A    between atoms: C_17  and  C_18
REMARK   16  A    between atoms: C_18  and  N_19
REMARK   17  A    between atoms: C_20  and  O_22
REMARK   18  A    between atoms: O_22  and  C_23
REMARK   19  A    between atoms: C_23  and  C_24
REMARK   20  A    between atoms: C_23  and  C_25
REMARK   21  A    between atoms: C_23  and  C_26
REMARK                            x       y       z     vdW  Elec       q    Type
REMARK                         _______ _______ _______ _____ _____    ______ ____
ROOT
ATOM      1  C   UNL     1       3.402  -4.322  -3.966  0.00  0.00    +0.096 C 
ENDROOT
BRANCH   1   4
ATOM      2  N   UNL     1       3.163  -3.820  -1.556  0.00  0.00    -0.305 N 
ATOM      3  C   UNL     1       4.623  -3.737  -1.477  0.00  0.00    +0.132 C 
ATOM      4  C   UNL     1       2.567  -4.098  -2.733  0.00  0.00    +0.215 C 
ATOM      5  O   UNL     1       1.357  -4.166  -2.798  0.00  0.00    -0.276 OA
BRANCH   2   6
ATOM      6  C   UNL     1       2.351  -3.601  -0.357  0.00  0.00    +0.105 C 
BRANCH   6   7
ATOM      7  C   UNL     1       2.004  -2.115  -0.240  0.00  0.00    +0.000 C 
BRANCH   7   8
ATOM      8  C   UNL     1       1.156  -1.887   1.013  0.00  0.00    -0.077 C 
BRANCH   8   9
ATOM      9  N   UNL     1       0.823  -0.461   1.126  0.00  0.00    +0.379 N 
ATOM     10  H   UNL     1       1.671   0.085   1.109  0.00  0.00    -0.082 HD
BRANCH   9  12
ATOM     11  C   UNL     1      -0.264   1.445   0.037  0.00  0.00    -0.017 C 
ATOM     12  C   UNL     1      -0.034  -0.067  -0.001  0.00  0.00    -0.082 C 
ENDBRANCH   9  12
BRANCH   9  13
ATOM     13  C   UNL     1       0.111  -0.222   2.389  0.00  0.00    -0.082 C 
ATOM     14  C   UNL     1       1.053  -0.495   3.563  0.00  0.00    -0.017 C 
ENDBRANCH   9  13
ENDBRANCH   8   9
ENDBRANCH   7   8
ENDBRANCH   6   7
ENDBRANCH   2   6
ENDBRANCH   1   4
BRANCH   1  15
ATOM     15  C   UNL     1       2.486  -4.617  -5.156  0.00  0.00    +0.009 C 
BRANCH  15  16
ATOM     16  C   UNL     1       3.334  -4.846  -6.409  0.00  0.00    +0.001 C 
BRANCH  16  17
ATOM     17  C   UNL     1       2.418  -5.141  -7.598  0.00  0.00    +0.002 C 
BRANCH  17  18
ATOM     18  C   UNL     1       3.267  -5.369  -8.851  0.00  0.00    +0.019 C 
BRANCH  18  19
ATOM     19  C   UNL     1       2.351  -5.664 -10.040  0.00  0.00    +0.107 C 
BRANCH  19  20
ATOM     20  N   UNL     1       3.163  -5.883 -11.239  0.00  0.00    -0.281 N 
ATOM     21  C   UNL     1       2.567  -6.160 -12.416  0.00  0.00    +0.401 C 
ATOM     22  O   UNL     1       1.355  -6.229 -12.482  0.00  0.00    -0.226 OA
ATOM     23  H   UNL     1       4.130  -5.828 -11.187  0.00  0.00    +0.152 HD
BRANCH  21  24
ATOM     24  O   UNL     1       3.313  -6.362 -13.518  0.00  0.00    -0.445 OA
BRANCH  24  25
ATOM     25  C   UNL     1       2.615  -6.652 -14.731  0.00  0.00    +0.107 C 
ATOM     26  C   UNL     1       1.682  -5.488 -15.072  0.00  0.00    +0.055 C 
ATOM     27  C   UNL     1       3.622  -6.848 -15.865  0.00  0.00    +0.055 C 
ATOM     28  C   UNL     1       1.792  -7.929 -14.552  0.00  0.00    +0.055 C 
ENDBRANCH  24  25
ENDBRANCH  21  24
ENDBRANCH  19  20
ENDBRANCH  18  19
ENDBRANCH  17  18
ENDBRANCH  16  17
ENDBRANCH  15  16
ENDBRANCH   1  15
TORSDOF 15
