REMARK  Name = ZINC27720145
REMARK  6 active torsions:
REMARK  status: ('A' for Active; 'I' for Inactive)
REMARK    1  A    between atoms: C_1  and  C_2
REMARK    2  A    between atoms: N_11  and  C_15
REMARK    3  A    between atoms: C_15  and  C_16
REMARK    4  A    between atoms: N_18  and  C_19
REMARK    5  A    between atoms: C_21  and  N_26
REMARK    6  A    between atoms: C_27  and  C_29
REMARK                            x       y       z     vdW  Elec       q    Type
REMARK                         _______ _______ _______ _____ _____    ______ ____
ROOT
ATOM      1  C   UNL     1      -6.146  -4.226   2.358  0.00  0.00    +0.071 A 
ATOM      2  C   UNL     1      -6.650  -3.796   1.139  0.00  0.00    +0.049 A 
ATOM      3  C   UNL     1      -7.909  -4.209   0.727  0.00  0.00    +0.036 A 
ATOM      4  C   UNL     1      -8.666  -5.042   1.540  0.00  0.00    +0.026 A 
ATOM      5  C   UNL     1      -8.165  -5.465   2.757  0.00  0.00    +0.042 A 
ATOM      6  C   UNL     1      -6.909  -5.060   3.168  0.00  0.00    +0.145 A 
ATOM      7  F   UNL     1      -6.422  -5.474   4.358  0.00  0.00    -0.204 F 
ENDROOT
BRANCH   1  10
ATOM      8  C   UNL     1      -4.428  -2.582   2.464  0.00  0.00    +0.235 C 
ATOM      9  O   UNL     1      -5.094  -1.857   1.755  0.00  0.00    -0.274 OA
ATOM     10  N   UNL     1      -4.873  -3.815   2.775  0.00  0.00    -0.282 N 
ATOM     11  H   UNL     1      -4.238  -4.500   3.355  0.00  0.00    +0.155 HD
BRANCH   8  12
ATOM     12  C   UNL     1      -3.103  -2.103   2.998  0.00  0.00    +0.214 C 
BRANCH  12  22
ATOM     13  C   UNL     1      -0.006   1.036   2.526  0.00  0.00    +0.010 C 
ATOM     14  C   UNL     1      -0.738   1.569   1.293  0.00  0.00    +0.018 C 
ATOM     15  C   UNL     1      -0.026   1.082   0.028  0.00  0.00    +0.006 C 
ATOM     16  C   UNL     1      -0.771   1.597  -1.205  0.00  0.00    +0.000 C 
ATOM     17  C   UNL     1      -2.204   1.059  -1.199  0.00  0.00    +0.003 C 
ATOM     18  C   UNL     1      -2.925   1.546   0.061  0.00  0.00    +0.035 C 
ATOM     19  C   UNL     1      -2.176   1.061   1.298  0.00  0.00    +0.115 C 
ATOM     20  C   UNL     1      -2.203  -0.449   1.373  0.00  0.00    +0.247 C 
ATOM     21  O   UNL     1      -1.742  -1.232   0.570  0.00  0.00    -0.273 OA
ATOM     22  N   UNL     1      -2.847  -0.741   2.521  0.00  0.00    -0.215 N 
ATOM     23  C   UNL     1      -3.225   0.367   3.171  0.00  0.00    +0.310 C 
ATOM     24  O   UNL     1      -3.822   0.359   4.229  0.00  0.00    -0.252 OA
ATOM     25  N   UNL     1      -2.869   1.490   2.519  0.00  0.00    -0.285 N 
ATOM     26  H   UNL     1      -2.999   2.562   2.729  0.00  0.00    +0.151 HD
ENDBRANCH  12  22
ENDBRANCH   8  12
ENDBRANCH   1  10
BRANCH   3  27
ATOM     27  N   UNL     1      -8.417  -3.781  -0.505  0.00  0.00    -0.281 N 
ATOM     28  C   UNL     1      -9.735  -3.532  -0.640  0.00  0.00    +0.248 C 
ATOM     29  O   UNL     1     -10.494  -3.756   0.283  0.00  0.00    -0.270 OA
ATOM     30  H   UNL     1      -7.742  -3.650  -1.363  0.00  0.00    +0.155 HD
BRANCH  28  31
ATOM     31  C   UNL     1     -10.256  -2.985  -1.908  0.00  0.00    +0.041 A 
ATOM     32  C   UNL     1      -9.385  -2.721  -2.967  0.00  0.00    +0.017 A 
ATOM     33  C   UNL     1      -9.874  -2.217  -4.152  0.00  0.00    +0.050 A 
ATOM     34  C   UNL     1     -11.231  -1.958  -4.294  0.00  0.00    +0.166 A 
ATOM     35  C   UNL     1     -12.106  -2.214  -3.238  0.00  0.00    +0.167 A 
ATOM     36  C   UNL     1     -11.622  -2.725  -2.049  0.00  0.00    +0.062 A 
ATOM     37  O   UNL     1     -13.370  -1.878  -3.628  0.00  0.00    -0.453 OA
ATOM     38  C   UNL     1     -13.204  -1.034  -4.783  0.00  0.00    +0.466 C 
ATOM     39  O   UNL     1     -11.949  -1.464  -5.343  0.00  0.00    -0.453 OA
ENDBRANCH  28  31
ENDBRANCH   3  27
TORSDOF 5
