REMARK  Name = ZINC12476978
REMARK  13 active torsions:
REMARK  status: ('A' for Active; 'I' for Inactive)
REMARK    1  A    between atoms: C_1  and  C_2
REMARK    2  A    between atoms: C_5  and  C_8
REMARK    3  A    between atoms: C_8  and  C_10
REMARK    4  A    between atoms: C_8  and  N_17
REMARK    5  A    between atoms: N_12  and  C_13
REMARK    6  A    between atoms: C_13  and  C_14
REMARK    7  A    between atoms: C_13  and  C_15
REMARK    8  A    between atoms: C_13  and  C_16
REMARK    9  A    between atoms: N_17  and  C_18
REMARK   10  A    between atoms: C_18  and  C_19
REMARK   11  A    between atoms: C_24  and  C_26
REMARK   12  A    between atoms: C_27  and  N_34
REMARK   13  A    between atoms: C_28  and  C_31
REMARK                            x       y       z     vdW  Elec       q    Type
REMARK                         _______ _______ _______ _____ _____    ______ ____
ROOT
ATOM      1  N   UNL     1       4.556   1.101  -0.341  0.00  0.00    -0.277 N 
ATOM      2  C   UNL     1       3.715   0.801  -1.351  0.00  0.00    +0.258 C 
ATOM      3  O   UNL     1       4.006  -0.073  -2.146  0.00  0.00    -0.269 OA
ENDROOT
BRANCH   2   4
ATOM      4  C   UNL     1       2.452   1.528  -1.493  0.00  0.00    +0.115 A 
ATOM      5  C   UNL     1       1.494   1.449  -2.505  0.00  0.00    +0.076 A 
ATOM      6  C   UNL     1       0.414   2.305  -2.287  0.00  0.00    +0.155 A 
ATOM      7  N   UNL     1       0.401   3.062  -1.212  0.00  0.00    -0.203 NA
ATOM      8  S   UNL     1       1.726   2.749  -0.419  0.00  0.00    +0.019 S 
BRANCH   6   9
ATOM      9  C   UNL     1      -0.699   2.361  -3.252  0.00  0.00    +0.262 C 
ATOM     10  O   UNL     1      -0.679   1.658  -4.244  0.00  0.00    -0.269 OA
ATOM     11  N   UNL     1      -1.738   3.191  -3.034  0.00  0.00    -0.324 N 
ATOM     12  H   UNL     1      -1.754   3.751  -2.243  0.00  0.00    +0.145 HD
ATOM     13  H   UNL     1      -2.471   3.227  -3.669  0.00  0.00    +0.145 HD
ENDBRANCH   6   9
BRANCH   5  14
ATOM     14  N   UNL     1       1.603   0.611  -3.607  0.00  0.00    -0.355 N 
ATOM     15  H   UNL     1       0.904   0.599  -4.279  0.00  0.00    +0.142 HD
ATOM     16  H   UNL     1       2.379   0.037  -3.704  0.00  0.00    +0.142 HD
ENDBRANCH   5  14
ENDBRANCH   2   4
BRANCH   1  17
ATOM     17  C   UNL     1       5.883   0.484  -0.286  0.00  0.00    +0.193 C 
BRANCH  17  22
ATOM     18  C   UNL     1       9.342   3.008  -4.167  0.00  0.00    +0.044 C 
ATOM     19  C   UNL     1       8.440   2.350  -3.155  0.00  0.00    -0.050 A 
ATOM     20  C   UNL     1       8.419   0.972  -3.040  0.00  0.00    +0.004 A 
ATOM     21  C   UNL     1       7.592   0.369  -2.111  0.00  0.00    +0.006 A 
ATOM     22  C   UNL     1       6.785   1.143  -1.298  0.00  0.00    -0.018 A 
ATOM     23  C   UNL     1       6.802   2.520  -1.417  0.00  0.00    +0.006 A 
ATOM     24  C   UNL     1       7.633   3.123  -2.342  0.00  0.00    +0.004 A 
ENDBRANCH  17  22
BRANCH  17  25
ATOM     25  C   UNL     1       6.463   0.662   1.094  0.00  0.00    +0.239 C 
ATOM     26  O   UNL     1       5.765   1.075   1.996  0.00  0.00    -0.273 OA
ATOM     27  N   UNL     1       7.756   0.363   1.326  0.00  0.00    -0.309 N 
ATOM     28  H   UNL     1       8.332   0.098   0.591  0.00  0.00    +0.149 HD
BRANCH  27  29
ATOM     29  C   UNL     1       8.293   0.438   2.687  0.00  0.00    +0.026 C 
ATOM     30  C   UNL     1       7.582  -0.588   3.572  0.00  0.00    +0.031 C 
ATOM     31  C   UNL     1       9.793   0.137   2.661  0.00  0.00    +0.031 C 
ATOM     32  C   UNL     1       8.064   1.842   3.248  0.00  0.00    +0.031 C 
ENDBRANCH  27  29
ENDBRANCH  17  25
ENDBRANCH   1  17
BRANCH   1  33
ATOM     33  C   UNL     1       4.141   2.043   0.701  0.00  0.00    +0.151 C 
BRANCH  33  34
ATOM     34  C   UNL     1       3.263   1.334   1.699  0.00  0.00    +0.007 A 
ATOM     35  C   UNL     1       3.582   0.850   2.925  0.00  0.00    +0.013 A 
ATOM     36  C   UNL     1       2.601   0.229   3.676  0.00  0.00    +0.008 A 
ATOM     37  C   UNL     1       1.351   0.121   3.164  0.00  0.00    +0.045 A 
ATOM     38  S   UNL     1       1.531   0.919   1.577  0.00  0.00    -0.100 S 
ENDBRANCH  33  34
ENDBRANCH   1  33
TORSDOF 9
