REMARK  Name = ZINC36648071
REMARK  9 active torsions:
REMARK  status: ('A' for Active; 'I' for Inactive)
REMARK    1  A    between atoms: C_1  and  N_2
REMARK    2  A    between atoms: N_2  and  C_3
REMARK    3  A    between atoms: N_2  and  C_4
REMARK    4  A    between atoms: C_4  and  C_5
REMARK    5  A    between atoms: C_5  and  C_6
REMARK    6  A    between atoms: C_6  and  N_7
REMARK    7  A    between atoms: C_18  and  C_20
REMARK    8  A    between atoms: N_26  and  S_27
REMARK    9  A    between atoms: S_27  and  C_30
REMARK                            x       y       z     vdW  Elec       q    Type
REMARK                         _______ _______ _______ _____ _____    ______ ____
ROOT
ATOM      1  N   UNL     1      -3.841  -0.219  -2.385  0.00  0.00    -0.249 N 
ATOM      2  C   UNL     1      -3.605  -1.027  -3.485  0.00  0.00    +0.168 A 
ATOM      3  N   UNL     1      -2.818  -2.073  -3.585  0.00  0.00    -0.223 NA
ATOM      4  C   UNL     1      -2.685  -2.774  -4.732  0.00  0.00    +0.099 A 
ATOM      5  C   UNL     1      -3.449  -2.309  -5.827  0.00  0.00    +0.042 A 
ATOM      6  S   UNL     1      -4.301  -0.915  -5.128  0.00  0.00    -0.052 S 
ATOM      7  C   UNL     1      -3.423  -2.913  -7.059  0.00  0.00    +0.017 A 
ATOM      8  C   UNL     1      -2.622  -4.023  -7.258  0.00  0.00    +0.003 A 
ATOM      9  C   UNL     1      -1.858  -4.508  -6.207  0.00  0.00    +0.022 A 
ATOM     10  C   UNL     1      -1.878  -3.911  -4.972  0.00  0.00    +0.067 A 
ATOM     11 CL   UNL     1      -0.902  -4.558  -3.690  0.00  0.00    -0.081 Cl
ATOM     12  C   UNL     1      -4.698   0.816  -2.480  0.00  0.00    +0.240 C 
ATOM     13  O   UNL     1      -5.329   0.989  -3.502  0.00  0.00    -0.273 OA
ENDROOT
BRANCH  12  14
ATOM     14  C   UNL     1      -4.874   1.759  -1.317  0.00  0.00    +0.166 C 
ATOM     15  C   UNL     1      -6.307   1.656  -0.786  0.00  0.00    +0.030 C 
ATOM     16  C   UNL     1      -6.520   2.712   0.301  0.00  0.00    +0.003 C 
ATOM     17  C   UNL     1      -6.325   4.108  -0.296  0.00  0.00    +0.017 C 
ATOM     18  C   UNL     1      -4.893   4.238  -0.822  0.00  0.00    +0.110 C 
ATOM     19  N   UNL     1      -4.629   3.138  -1.760  0.00  0.00    -0.164 NA
BRANCH  19  20
ATOM     20  S   UNL     1      -4.069   3.447  -3.288  0.00  0.00    +0.068 S 
ATOM     21  O   UNL     1      -3.398   4.698  -3.229  0.00  0.00    -0.152 OA
ATOM     22  O   UNL     1      -3.429   2.259  -3.734  0.00  0.00    -0.152 OA
BRANCH  20  23
ATOM     23  C   UNL     1      -5.477   3.678  -4.321  0.00  0.00    +0.143 A 
ATOM     24  C   UNL     1      -6.143   4.822  -4.613  0.00  0.00    +0.036 A 
ATOM     25  C   UNL     1      -7.234   4.766  -5.460  0.00  0.00    +0.010 A 
ATOM     26  C   UNL     1      -7.606   3.568  -5.973  0.00  0.00    +0.047 A 
ATOM     27  S   UNL     1      -6.393   2.468  -5.262  0.00  0.00    -0.077 S 
ENDBRANCH  20  23
ENDBRANCH  19  20
ENDBRANCH  12  14
BRANCH   1  28
ATOM     28  C   UNL     1      -3.157  -0.490  -1.118  0.00  0.00    +0.114 C 
BRANCH  28  29
ATOM     29  C   UNL     1      -1.801   0.218  -1.109  0.00  0.00    +0.001 C 
BRANCH  29  30
ATOM     30  C   UNL     1      -1.087  -0.065   0.215  0.00  0.00    -0.078 C 
BRANCH  30  32
ATOM     31  C   UNL     1       0.010   2.069   0.196  0.00  0.00    -0.097 C 
ATOM     32  N   UNL     1       0.216   0.614   0.224  0.00  0.00    +0.376 N 
ATOM     33  C   UNL     1       0.951   0.247   1.441  0.00  0.00    -0.097 C 
ATOM     34  H   UNL     1       0.746   0.334  -0.588  0.00  0.00    -0.083 HD
ENDBRANCH  30  32
ENDBRANCH  29  30
ENDBRANCH  28  29
ENDBRANCH   1  28
TORSDOF 7
