REMARK  Name = ZINC32608432
REMARK  3 active torsions:
REMARK  status: ('A' for Active; 'I' for Inactive)
REMARK    1  A    between atoms: C_3  and  C_6
REMARK    2  A    between atoms: C_9  and  C_17
REMARK    3  A    between atoms: C_12  and  C_14
REMARK                            x       y       z     vdW  Elec       q    Type
REMARK                         _______ _______ _______ _____ _____    ______ ____
ROOT
ATOM      1  C   UNL     1      -2.895   3.023  -1.217  0.00  0.00    +0.302 C 
ATOM      2  O   UNL     1      -2.914   3.035  -2.434  0.00  0.00    -0.265 OA
ATOM      3  N   UNL     1      -1.916   2.365  -0.565  0.00  0.00    -0.179 N 
ATOM      4  C   UNL     1      -0.812   1.623  -1.196  0.00  0.00    +0.140 C 
ATOM      5  C   UNL     1      -0.013   1.086   0.008  0.00  0.00    +0.082 C 
ATOM      6  C   UNL     1      -0.774   1.600   1.209  0.00  0.00    +0.042 C 
ATOM      7  N   UNL     1      -1.781   2.275   0.819  0.00  0.00    -0.185 NA
ENDROOT
BRANCH   4   8
ATOM      8  C   UNL     1      -1.345   0.487  -2.031  0.00  0.00    +0.013 A 
ATOM      9  C   UNL     1      -2.646   0.092  -1.898  0.00  0.00    +0.018 A 
ATOM     10  C   UNL     1      -3.102  -0.973  -2.696  0.00  0.00    +0.004 A 
ATOM     11  C   UNL     1      -4.426  -1.433  -2.612  0.00  0.00    +0.059 A 
ATOM     12  C   UNL     1      -4.837  -2.471  -3.399  0.00  0.00    +0.163 A 
ATOM     13  C   UNL     1      -3.948  -3.082  -4.297  0.00  0.00    +0.164 A 
ATOM     14  C   UNL     1      -2.654  -2.653  -4.398  0.00  0.00    +0.077 A 
ATOM     15  C   UNL     1      -2.201  -1.590  -3.600  0.00  0.00    +0.076 A 
ATOM     16  N   UNL     1      -0.939  -1.155  -3.682  0.00  0.00    -0.235 NA
ATOM     17  C   UNL     1      -0.511  -0.159  -2.943  0.00  0.00    +0.135 A 
ATOM     18 CL   UNL     1       1.136   0.365  -3.100  0.00  0.00    -0.062 Cl
ATOM     19  O   UNL     1      -4.361  -4.111  -5.088  0.00  0.00    -0.485 OA
ATOM     20  C   UNL     1      -5.567  -4.776  -4.700  0.00  0.00    +0.270 C 
ATOM     21  C   UNL     1      -6.620  -3.710  -4.369  0.00  0.00    +0.270 C 
ATOM     22  O   UNL     1      -6.123  -2.906  -3.294  0.00  0.00    -0.485 OA
ENDBRANCH   4   8
BRANCH   1  25
ATOM     23  C   UNL     1      -5.724   4.925   0.088  0.00  0.00    +0.042 A 
ATOM     24  C   UNL     1      -4.981   4.425  -0.993  0.00  0.00    +0.054 A 
ATOM     25  C   UNL     1      -3.937   3.724  -0.460  0.00  0.00    +0.191 A 
ATOM     26  O   UNL     1      -4.036   3.784   0.884  0.00  0.00    -0.458 OA
ATOM     27  C   UNL     1      -5.109   4.513   1.218  0.00  0.00    +0.196 A 
ENDBRANCH   1  25
BRANCH   6  28
ATOM     28  C   UNL     1      -0.397   1.349   2.647  0.00  0.00    +0.035 C 
ATOM     29  C   UNL     1      -1.375   0.542   3.503  0.00  0.00    +0.010 C 
ATOM     30  C   UNL     1      -1.226   2.049   3.726  0.00  0.00    +0.010 C 
ENDBRANCH   6  28
TORSDOF 3
