REMARK  Name = ZINC06300268
REMARK  6 active torsions:
REMARK  status: ('A' for Active; 'I' for Inactive)
REMARK    1  A    between atoms: C_1  and  C_2
REMARK    2  A    between atoms: C_4  and  C_8
REMARK    3  A    between atoms: C_5  and  C_7
REMARK    4  A    between atoms: C_15  and  N_29
REMARK    5  A    between atoms: C_16  and  C_27
REMARK    6  A    between atoms: C_17  and  C_19
REMARK                            x       y       z     vdW  Elec       q    Type
REMARK                         _______ _______ _______ _____ _____    ______ ____
ROOT
ATOM      1  C   UNL     1      -2.242  -3.537  -0.207  0.00  0.00    +0.101 A 
ATOM      2  C   UNL     1      -3.515  -3.008   0.027  0.00  0.00    +0.054 A 
ATOM      3  C   UNL     1      -4.404  -4.044   0.056  0.00  0.00    +0.223 A 
ATOM      4  N   UNL     1      -3.713  -5.183  -0.154  0.00  0.00    -0.246 N 
ATOM      5  H   UNL     1      -4.086  -6.078  -0.187  0.00  0.00    +0.192 HD
ATOM      6  N   UNL     1      -2.361  -4.846  -0.321  0.00  0.00    -0.171 NA
ATOM      7  O   UNL     1      -5.731  -3.863   0.267  0.00  0.00    -0.423 OA
ATOM      8  C   UNL     1      -6.134  -2.660   0.723  0.00  0.00    +0.200 C 
ATOM      9  C   UNL     1      -5.350  -1.559   0.732  0.00  0.00    +0.098 C 
ATOM     10  C   UNL     1      -3.930  -1.573   0.222  0.00  0.00    +0.103 C 
ENDROOT
BRANCH  10  11
ATOM     11  C   UNL     1      -3.855  -0.838  -1.091  0.00  0.00    -0.015 A 
ATOM     12  C   UNL     1      -4.519  -1.332  -2.199  0.00  0.00    +0.006 A 
ATOM     13  C   UNL     1      -4.450  -0.659  -3.404  0.00  0.00    +0.002 A 
ATOM     14  C   UNL     1      -3.718   0.509  -3.504  0.00  0.00    +0.021 A 
ATOM     15  C   UNL     1      -3.053   1.004  -2.397  0.00  0.00    +0.060 A 
ATOM     16  C   UNL     1      -3.126   0.333  -1.188  0.00  0.00    +0.063 A 
ATOM     17 CL   UNL     1      -2.299   0.958   0.204  0.00  0.00    -0.082 Cl
ATOM     18 CL   UNL     1      -2.132   2.471  -2.521  0.00  0.00    -0.082 Cl
ENDBRANCH  10  11
BRANCH   1  22
ATOM     19  C   UNL     1       1.092  -0.066   1.417  0.00  0.00    +0.051 C 
ATOM     20  C   UNL     1       0.514  -1.129   0.518  0.00  0.00    -0.012 A 
ATOM     21  C   UNL     1      -0.644  -1.815   0.649  0.00  0.00    +0.021 A 
ATOM     22  C   UNL     1      -0.980  -2.762  -0.313  0.00  0.00    +0.013 A 
ATOM     23  C   UNL     1      -0.124  -2.962  -1.359  0.00  0.00    -0.004 A 
ATOM     24  S   UNL     1       1.180  -1.799  -0.997  0.00  0.00    -0.098 S 
ATOM     25  C   UNL     1      -0.250  -3.915  -2.520  0.00  0.00    +0.052 C 
ENDBRANCH   1  22
BRANCH   8  26
ATOM     26  N   UNL     1      -7.414  -2.546   1.205  0.00  0.00    -0.328 N 
ATOM     27  H   UNL     1      -8.000  -3.318   1.211  0.00  0.00    +0.145 HD
ATOM     28  H   UNL     1      -7.732  -1.693   1.540  0.00  0.00    +0.145 HD
ENDBRANCH   8  26
BRANCH   9  29
ATOM     29  C   UNL     1      -5.886  -0.334   1.246  0.00  0.00    +0.101 C 
ATOM     30  N   UNL     1      -6.312   0.637   1.653  0.00  0.00    -0.191 NA
ENDBRANCH   9  29
TORSDOF 4
