REMARK  Name = ZINC12482727
REMARK  11 active torsions:
REMARK  status: ('A' for Active; 'I' for Inactive)
REMARK    1  A    between atoms: C_1  and  C_2
REMARK    2  A    between atoms: C_2  and  O_3
REMARK    3  A    between atoms: O_3  and  C_4
REMARK    4  A    between atoms: C_6  and  C_11
REMARK    5  A    between atoms: C_9  and  O_10
REMARK    6  A    between atoms: N_12  and  N_13
REMARK    7  A    between atoms: N_13  and  C_14
REMARK    8  A    between atoms: C_17  and  S_23
REMARK    9  A    between atoms: C_19  and  N_20
REMARK   10  A    between atoms: S_23  and  N_26
REMARK   11  A    between atoms: N_26  and  C_27
REMARK                            x       y       z     vdW  Elec       q    Type
REMARK                         _______ _______ _______ _____ _____    ______ ____
ROOT
ATOM      1  C   UNL     1      -2.692  -4.036  -0.406  0.00  0.00    +0.079 A 
ATOM      2  C   UNL     1      -1.454  -4.635  -0.199  0.00  0.00    +0.029 A 
ATOM      3  C   UNL     1      -1.381  -5.981   0.099  0.00  0.00    +0.031 A 
ATOM      4  C   UNL     1      -2.538  -6.734   0.191  0.00  0.00    +0.113 A 
ATOM      5  C   UNL     1      -3.771  -6.143  -0.014  0.00  0.00    +0.063 A 
ATOM      6  C   UNL     1      -3.852  -4.795  -0.306  0.00  0.00    +0.150 A 
ENDROOT
BRANCH   6   7
ATOM      7  N   UNL     1      -5.173  -4.162  -0.519  0.00  0.00    +0.058 N 
ATOM      8  O   UNL     1      -5.378  -3.030  -0.117  0.00  0.00    -0.126 OA
ATOM      9  O   UNL     1      -6.055  -4.772  -1.097  0.00  0.00    -0.126 OA
ENDBRANCH   6   7
BRANCH   4  10
ATOM     10  S   UNL     1      -2.439  -8.452   0.571  0.00  0.00    +0.092 S 
ATOM     11  O   UNL     1      -3.572  -9.066  -0.028  0.00  0.00    -0.148 OA
ATOM     12  O   UNL     1      -1.109  -8.857   0.278  0.00  0.00    -0.148 OA
BRANCH  10  13
ATOM     13  N   UNL     1      -2.630  -8.602   2.209  0.00  0.00    -0.098 NA
BRANCH  13  14
ATOM     14  C   UNL     1      -3.809  -8.165   2.819  0.00  0.00    +0.074 A 
ATOM     15  C   UNL     1      -3.819  -6.981   3.544  0.00  0.00    +0.028 A 
ATOM     16  C   UNL     1      -4.988  -6.548   4.140  0.00  0.00    +0.022 A 
ATOM     17  C   UNL     1      -6.144  -7.299   4.025  0.00  0.00    +0.041 A 
ATOM     18  C   UNL     1      -6.135  -8.483   3.308  0.00  0.00    +0.022 A 
ATOM     19  C   UNL     1      -4.971  -8.917   2.705  0.00  0.00    +0.028 A 
ATOM     20 CL   UNL     1      -7.609  -6.756   4.782  0.00  0.00    -0.084 Cl
ENDBRANCH  13  14
ENDBRANCH  10  13
ENDBRANCH   4  10
BRANCH   1  21
ATOM     21  N   UNL     1      -2.770  -2.676  -0.706  0.00  0.00    -0.236 N 
ATOM     22  H   UNL     1      -3.751  -2.198  -0.840  0.00  0.00    +0.174 HD
BRANCH  21  24
ATOM     23  C   UNL     1      -1.671  -0.654  -1.117  0.00  0.00    +0.138 C 
ATOM     24  N   UNL     1      -1.598  -1.919  -0.837  0.00  0.00    -0.190 NA
BRANCH  23  27
ATOM     25  C   UNL     1       0.646   2.247  -1.685  0.00  0.00    +0.162 A 
ATOM     26  C   UNL     1      -0.514   1.505  -1.556  0.00  0.00    +0.059 A 
ATOM     27  C   UNL     1      -0.438   0.143  -1.255  0.00  0.00    -0.002 A 
ATOM     28  C   UNL     1       0.810  -0.463  -1.086  0.00  0.00    +0.013 A 
ATOM     29  C   UNL     1       1.962   0.283  -1.216  0.00  0.00    +0.050 A 
ATOM     30  C   UNL     1       1.886   1.636  -1.514  0.00  0.00    +0.158 A 
BRANCH  30  31
ATOM     31  O   UNL     1       3.025   2.367  -1.642  0.00  0.00    -0.503 OA
ATOM     32  H   UNL     1       4.005   1.886  -1.508  0.00  0.00    +0.292 HD
ENDBRANCH  30  31
BRANCH  25  33
ATOM     33  O   UNL     1       0.576   3.573  -1.978  0.00  0.00    -0.489 OA
BRANCH  33  35
ATOM     34  C   UNL     1      -0.607   5.624  -2.462  0.00  0.00    +0.048 C 
ATOM     35  C   UNL     1      -0.729   4.133  -2.139  0.00  0.00    +0.226 C 
ENDBRANCH  33  35
ENDBRANCH  25  33
ENDBRANCH  23  27
ENDBRANCH  21  24
ENDBRANCH   1  21
TORSDOF 10
