REMARK  Name = ZINC17590551
REMARK  7 active torsions:
REMARK  status: ('A' for Active; 'I' for Inactive)
REMARK    1  A    between atoms: C_1  and  C_2
REMARK    2  A    between atoms: C_3  and  C_28
REMARK    3  A    between atoms: C_7  and  N_11
REMARK    4  A    between atoms: N_15  and  S_18
REMARK    5  A    between atoms: S_18  and  C_21
REMARK    6  A    between atoms: C_22  and  C_27
REMARK    7  A    between atoms: C_25  and  C_26
REMARK                            x       y       z     vdW  Elec       q    Type
REMARK                         _______ _______ _______ _____ _____    ______ ____
ROOT
ATOM      1  N   UNL     1       0.067   3.962   0.009  0.00  0.00    -0.313 N 
ATOM      2  C   UNL     1      -1.182   3.375   0.423  0.00  0.00    +0.108 C 
ATOM      3  C   UNL     1      -1.009   1.856   0.664  0.00  0.00    +0.036 C 
ATOM      4  C   UNL     1      -0.052   1.262  -0.400  0.00  0.00    +0.111 C 
ATOM      5  N   UNL     1      -0.229   1.738  -1.743  0.00  0.00    -0.175 NA
ATOM      6  C   UNL     1       0.533   2.954  -2.188  0.00  0.00    +0.128 C 
ATOM      7  C   UNL     1      -0.012   4.096  -1.444  0.00  0.00    +0.123 C 
ENDROOT
BRANCH   1  14
ATOM      8  C   UNL     1       2.636   3.201   1.042  0.00  0.00    +0.045 C 
ATOM      9  C   UNL     1       2.596   4.603   1.592  0.00  0.00    -0.028 A 
ATOM     10  C   UNL     1       3.619   5.076   2.320  0.00  0.00    -0.008 A 
ATOM     11  S   UNL     1       3.108   6.735   2.728  0.00  0.00    -0.074 S 
ATOM     12  C   UNL     1       1.535   6.748   1.910  0.00  0.00    +0.114 A 
ATOM     13  C   UNL     1       1.450   5.459   1.341  0.00  0.00    +0.051 A 
ATOM     14  C   UNL     1       0.259   5.193   0.611  0.00  0.00    +0.133 A 
ATOM     15  N   UNL     1      -0.660   6.139   0.509  0.00  0.00    -0.220 NA
ATOM     16  C   UNL     1      -0.515   7.324   1.073  0.00  0.00    +0.224 A 
ATOM     17  N   UNL     1       0.566   7.630   1.763  0.00  0.00    -0.228 NA
ATOM     18  C   UNL     1       4.896   4.372   2.702  0.00  0.00    +0.052 C 
ENDBRANCH   1  14
BRANCH   5  19
ATOM     19  S   UNL     1      -1.256   0.961  -2.784  0.00  0.00    +0.066 S 
ATOM     20  O   UNL     1      -0.817   1.274  -4.098  0.00  0.00    -0.153 OA
ATOM     21  O   UNL     1      -1.372  -0.376  -2.317  0.00  0.00    -0.153 OA
BRANCH  19  22
ATOM     22  C   UNL     1      -2.845   1.699  -2.595  0.00  0.00    +0.170 A 
ATOM     23  C   UNL     1      -3.382   2.802  -3.299  0.00  0.00    +0.107 A 
ATOM     24  N   UNL     1      -4.580   2.990  -2.828  0.00  0.00    -0.081 NA
ATOM     25  O   UNL     1      -4.850   2.189  -1.963  0.00  0.00    -0.358 OA
ATOM     26  C   UNL     1      -3.838   1.338  -1.747  0.00  0.00    +0.161 A 
ATOM     27  C   UNL     1      -3.808   0.204  -0.755  0.00  0.00    +0.091 C 
ATOM     28  C   UNL     1      -2.701   3.600  -4.381  0.00  0.00    +0.071 C 
ENDBRANCH  19  22
ENDBRANCH   5  19
TORSDOF 3
