REMARK  Name = ZINC14240152
REMARK  3 active torsions:
REMARK  status: ('A' for Active; 'I' for Inactive)
REMARK    1  A    between atoms: C_6  and  S_7
REMARK    2  A    between atoms: S_7  and  N_10
REMARK    3  A    between atoms: N_10  and  C_11
REMARK                            x       y       z     vdW  Elec       q    Type
REMARK                         _______ _______ _______ _____ _____    ______ ____
ROOT
ATOM      1  N   UNL     1      -1.974   2.468   1.607  0.00  0.00    -0.215 N 
ATOM      2  H   UNL     1      -2.773   2.046   1.961  0.00  0.00    +0.174 HD
ENDROOT
BRANCH   1   3
ATOM      3  C   UNL     1      -1.134   3.199   2.455  0.00  0.00    +0.070 A 
ATOM      4  C   UNL     1      -0.493   4.337   1.986  0.00  0.00    +0.075 A 
ATOM      5  C   UNL     1       0.337   5.062   2.828  0.00  0.00    +0.164 A 
ATOM      6  C   UNL     1       0.532   4.643   4.138  0.00  0.00    +0.164 A 
ATOM      7  C   UNL     1      -0.105   3.502   4.603  0.00  0.00    +0.071 A 
ATOM      8  C   UNL     1      -0.935   2.781   3.765  0.00  0.00    +0.067 A 
ATOM      9 CL   UNL     1      -1.729   1.353   4.350  0.00  0.00    -0.081 Cl
ATOM     10  O   UNL     1       1.344   5.343   4.979  0.00  0.00    -0.485 OA
ATOM     11  C   UNL     1       2.255   6.266   4.374  0.00  0.00    +0.270 C 
ATOM     12  C   UNL     1       1.486   7.083   3.327  0.00  0.00    +0.270 C 
ATOM     13  O   UNL     1       0.957   6.178   2.353  0.00  0.00    -0.485 OA
ENDBRANCH   1   3
BRANCH   1  14
ATOM     14  S   UNL     1      -1.607   2.326  -0.002  0.00  0.00    +0.072 S 
ATOM     15  O   UNL     1      -1.422   3.646  -0.494  0.00  0.00    -0.150 OA
ATOM     16  O   UNL     1      -2.560   1.431  -0.558  0.00  0.00    -0.150 OA
BRANCH  14  22
ATOM     17  C   UNL     1       1.120   2.275  -0.126  0.00  0.00    +0.030 A 
ATOM     18  C   UNL     1       2.348   1.647  -0.216  0.00  0.00    +0.022 A 
ATOM     19  C   UNL     1       2.415   0.267  -0.288  0.00  0.00    +0.041 A 
ATOM     20  C   UNL     1       1.253  -0.484  -0.271  0.00  0.00    +0.022 A 
ATOM     21  C   UNL     1       0.026   0.145  -0.181  0.00  0.00    +0.030 A 
ATOM     22  C   UNL     1      -0.041   1.524  -0.109  0.00  0.00    +0.109 A 
ATOM     23 CL   UNL     1       3.957  -0.522  -0.401  0.00  0.00    -0.084 Cl
ENDBRANCH  14  22
ENDBRANCH   1  14
TORSDOF 3
