REMARK  Name = ZINC34643679
REMARK  6 active torsions:
REMARK  status: ('A' for Active; 'I' for Inactive)
REMARK    1  A    between atoms: C_3  and  O_22
REMARK    2  A    between atoms: C_6  and  N_7
REMARK    3  A    between atoms: N_7  and  S_8
REMARK    4  A    between atoms: S_8  and  C_11
REMARK    5  A    between atoms: C_15  and  C_17
REMARK    6  A    between atoms: O_22  and  C_23
REMARK                            x       y       z     vdW  Elec       q    Type
REMARK                         _______ _______ _______ _____ _____    ______ ____
ROOT
ATOM      1  C   UNL     1      -0.028   1.443  -0.088  0.00  0.00    +0.030 A 
ATOM      2  C   UNL     1       1.171   2.129  -0.085  0.00  0.00    +0.048 A 
ATOM      3  C   UNL     1       2.369   1.433  -0.024  0.00  0.00    +0.129 A 
ATOM      4  C   UNL     1       2.365   0.047   0.035  0.00  0.00    +0.048 A 
ATOM      5  C   UNL     1       1.168  -0.641   0.032  0.00  0.00    +0.030 A 
ATOM      6  C   UNL     1      -0.033   0.055  -0.030  0.00  0.00    +0.075 A 
ENDROOT
BRANCH   6   7
ATOM      7  N   UNL     1      -1.246  -0.641  -0.033  0.00  0.00    -0.098 NA
BRANCH   7   8
ATOM      8  S   UNL     1      -1.252  -2.296   0.037  0.00  0.00    +0.092 S 
ATOM      9  O   UNL     1      -0.669  -2.755  -1.176  0.00  0.00    -0.148 OA
ATOM     10  O   UNL     1      -0.736  -2.651   1.312  0.00  0.00    -0.148 OA
BRANCH   8  11
ATOM     11  C   UNL     1      -2.936  -2.813   0.013  0.00  0.00    +0.111 A 
ATOM     12  C   UNL     1      -3.630  -2.960   1.200  0.00  0.00    +0.030 A 
ATOM     13  C   UNL     1      -4.951  -3.365   1.183  0.00  0.00    +0.022 A 
ATOM     14  C   UNL     1      -5.579  -3.624  -0.023  0.00  0.00    +0.053 A 
ATOM     15  C   UNL     1      -4.884  -3.476  -1.210  0.00  0.00    +0.075 A 
ATOM     16  C   UNL     1      -3.564  -3.065  -1.191  0.00  0.00    +0.042 A 
ATOM     17 CL   UNL     1      -7.238  -4.134  -0.046  0.00  0.00    -0.083 Cl
BRANCH  15  18
ATOM     18  C   UNL     1      -5.568  -3.758  -2.523  0.00  0.00    +0.419 C 
ATOM     19  F   UNL     1      -4.669  -3.540  -3.573  0.00  0.00    -0.166 F 
ATOM     20  F   UNL     1      -6.000  -5.088  -2.548  0.00  0.00    -0.166 F 
ATOM     21  F   UNL     1      -6.669  -2.907  -2.668  0.00  0.00    -0.166 F 
ENDBRANCH  15  18
ENDBRANCH   8  11
ENDBRANCH   7   8
ENDBRANCH   6   7
BRANCH   3  22
ATOM     22  O   UNL     1       3.549   2.110  -0.021  0.00  0.00    -0.454 OA
BRANCH  22  23
ATOM     23  C   UNL     1       3.847   2.866   1.067  0.00  0.00    +0.157 A 
ATOM     24  C   UNL     1       3.035   2.846   2.198  0.00  0.00    +0.068 A 
ATOM     25  C   UNL     1       3.372   3.628   3.284  0.00  0.00    +0.117 A 
ATOM     26  N   UNL     1       4.447   4.393   3.270  0.00  0.00    -0.236 NA
ATOM     27  C   UNL     1       5.250   4.447   2.218  0.00  0.00    +0.162 A 
ATOM     28  C   UNL     1       4.978   3.679   1.085  0.00  0.00    +0.129 A 
ATOM     29  N   UNL     1       5.990   3.940   0.164  0.00  0.00    -0.302 N 
ATOM     30  H   UNL     1       6.067   3.553  -0.722  0.00  0.00    +0.171 HD
ATOM     31  C   UNL     1       6.843   4.824   0.717  0.00  0.00    +0.326 A 
ATOM     32  O   UNL     1       7.841   5.266   0.179  0.00  0.00    -0.247 OA
ATOM     33  N   UNL     1       6.416   5.152   1.950  0.00  0.00    -0.291 N 
ATOM     34  H   UNL     1       6.856   5.770   2.556  0.00  0.00    +0.172 HD
ENDBRANCH  22  23
ENDBRANCH   3  22
TORSDOF 6
