REMARK  Name = ZINC06878804
REMARK  4 active torsions:
REMARK  status: ('A' for Active; 'I' for Inactive)
REMARK    1  A    between atoms: C_1  and  N_50
REMARK    2  A    between atoms: C_7  and  C_9
REMARK    3  A    between atoms: C_14  and  C_27
REMARK    4  A    between atoms: C_17  and  C_20
REMARK                            x       y       z     vdW  Elec       q    Type
REMARK                         _______ _______ _______ _____ _____    ______ ____
ROOT
ATOM      1  C   UNL     1      -2.115   2.282   2.860  0.00  0.00    +0.167 A 
ATOM      2  C   UNL     1      -1.057   3.203   3.021  0.00  0.00    +0.112 A 
ATOM      3  C   UNL     1      -0.213   3.048   1.973  0.00  0.00    +0.137 A 
ATOM      4  N   UNL     1      -0.716   2.063   1.177  0.00  0.00    -0.237 N 
ATOM      5  N   UNL     1      -1.902   1.601   1.749  0.00  0.00    -0.163 NA
ATOM      6  C   UNL     1      -0.081   1.601  -0.064  0.00  0.00    +0.215 C 
ATOM      7  C   UNL     1       1.364   2.121  -0.072  0.00  0.00    +0.063 C 
ATOM      8  C   UNL     1       1.362   3.604   0.312  0.00  0.00    +0.104 C 
ATOM      9  N   UNL     1       0.965   3.749   1.721  0.00  0.00    -0.321 N 
ATOM     10 CL   UNL     1      -0.873   4.332   4.326  0.00  0.00    -0.078 Cl
ATOM     11  H   UNL     1       1.705   3.448   2.337  0.00  0.00    +0.148 HD
ENDROOT
BRANCH   1  18
ATOM     12  C   UNL     1      -7.542  -0.519   1.724  0.00  0.00    -0.096 C 
ATOM     13  C   UNL     1      -5.179   0.009   1.659  0.00  0.00    -0.060 C 
ATOM     14  C   UNL     1      -3.916   0.107   2.521  0.00  0.00    +0.089 C 
ATOM     15  N   UNL     1      -4.144   1.112   3.571  0.00  0.00    -0.300 N 
ATOM     16  C   UNL     1      -5.357   0.997   4.394  0.00  0.00    +0.089 C 
ATOM     17  C   UNL     1      -6.567   0.866   3.454  0.00  0.00    -0.060 C 
ATOM     18  C   UNL     1      -3.261   2.110   3.776  0.00  0.00    +0.268 C 
ATOM     19  O   UNL     1      -3.409   2.868   4.715  0.00  0.00    -0.268 OA
ATOM     20  N   UNL     1      -6.334  -0.273   2.540  0.00  0.00    +0.380 N 
ATOM     21  H   UNL     1      -6.132  -1.111   3.097  0.00  0.00    -0.082 HD
ENDBRANCH   1  18
BRANCH   8  22
ATOM     22  C   UNL     1       0.385   4.347  -0.563  0.00  0.00    -0.027 A 
ATOM     23  C   UNL     1       0.613   4.449  -1.922  0.00  0.00    +0.006 A 
ATOM     24  C   UNL     1      -0.285   5.126  -2.725  0.00  0.00    +0.015 A 
ATOM     25  C   UNL     1      -1.408   5.710  -2.167  0.00  0.00    +0.018 A 
ATOM     26  C   UNL     1      -1.634   5.612  -0.806  0.00  0.00    +0.015 A 
ATOM     27  C   UNL     1      -0.738   4.930  -0.004  0.00  0.00    +0.006 A 
ATOM     28 BR   UNL     1      -2.634   6.642  -3.264  0.00  0.00    -0.050 Br
ENDBRANCH   8  22
BRANCH   6  29
ATOM     29  C   UNL     1      -0.082   0.072  -0.109  0.00  0.00    +0.412 C 
ATOM     30  F   UNL     1       0.596  -0.428   1.008  0.00  0.00    -0.168 F 
ATOM     31  F   UNL     1      -1.401  -0.394  -0.101  0.00  0.00    -0.168 F 
ATOM     32  F   UNL     1       0.558  -0.360  -1.275  0.00  0.00    -0.168 F 
ENDBRANCH   6  29
TORSDOF 3
