REMARK  Name = ZINC59890715
REMARK  9 active torsions:
REMARK  status: ('A' for Active; 'I' for Inactive)
REMARK    1  A    between atoms: C_1  and  C_2
REMARK    2  A    between atoms: C_7  and  C_9
REMARK    3  A    between atoms: C_7  and  N_30
REMARK    4  A    between atoms: C_9  and  N_10
REMARK    5  A    between atoms: C_11  and  C_13
REMARK    6  A    between atoms: N_16  and  S_19
REMARK    7  A    between atoms: S_19  and  C_22
REMARK    8  A    between atoms: N_30  and  C_31
REMARK    9  A    between atoms: N_30  and  C_32
REMARK                            x       y       z     vdW  Elec       q    Type
REMARK                         _______ _______ _______ _____ _____    ______ ____
ROOT
ATOM      1  C   UNL     1       1.378  -5.841   2.936  0.00  0.00    +0.077 C 
ATOM      2  C   UNL     1      -0.046  -6.274   2.582  0.00  0.00    +0.030 C 
ATOM      3  C   UNL     1      -0.116  -7.804   2.544  0.00  0.00    +0.110 C 
ATOM      4  N   UNL     1       0.375  -8.332   3.824  0.00  0.00    -0.176 NA
ATOM      5  C   UNL     1       1.698  -7.908   4.302  0.00  0.00    +0.110 C 
ATOM      6  C   UNL     1       1.747  -6.377   4.321  0.00  0.00    +0.030 C 
ENDROOT
BRANCH   1   8
ATOM      7  N   UNL     1       1.175  -3.643   1.821  0.00  0.00    -0.316 N 
ATOM      8  C   UNL     1       1.459  -4.337   2.941  0.00  0.00    +0.216 C 
ATOM      9  O   UNL     1       1.780  -3.750   3.953  0.00  0.00    -0.276 OA
ATOM     10  H   UNL     1       0.918  -4.112   1.012  0.00  0.00    +0.149 HD
BRANCH   7  11
ATOM     11  C   UNL     1       1.253  -2.180   1.827  0.00  0.00    +0.092 C 
BRANCH  11  17
ATOM     12  C   UNL     1       0.737   1.932  -0.966  0.00  0.00    +0.007 C 
ATOM     13  C   UNL     1       0.791   0.403  -0.992  0.00  0.00    -0.015 C 
ATOM     14  C   UNL     1      -0.522  -0.144  -1.555  0.00  0.00    +0.003 C 
ATOM     15  C   UNL     1      -0.468  -1.673  -1.580  0.00  0.00    -0.001 C 
ATOM     16  C   UNL     1      -0.264  -2.200  -0.158  0.00  0.00    -0.010 C 
ATOM     17  C   UNL     1       1.049  -1.653   0.405  0.00  0.00    -0.050 C 
ATOM     18  C   UNL     1       0.995  -0.124   0.430  0.00  0.00    -0.007 C 
BRANCH  17  19
ATOM     19  N   UNL     1       2.166  -2.089  -0.444  0.00  0.00    +0.381 N 
ATOM     20  C   UNL     1       3.437  -1.689   0.174  0.00  0.00    -0.096 C 
ATOM     21  C   UNL     1       2.130  -3.551  -0.588  0.00  0.00    -0.096 C 
ATOM     22  H   UNL     1       2.084  -1.660  -1.354  0.00  0.00    -0.082 HD
ENDBRANCH  17  19
ENDBRANCH  11  17
ENDBRANCH   7  11
ENDBRANCH   1   8
BRANCH   4  23
ATOM     23  S   UNL     1      -0.545  -9.386   4.710  0.00  0.00    +0.064 S 
ATOM     24  O   UNL     1      -0.109  -9.271   6.058  0.00  0.00    -0.153 OA
ATOM     25  O   UNL     1      -1.896  -9.168   4.326  0.00  0.00    -0.153 OA
BRANCH  23  26
ATOM     26  C   UNL     1      -0.127 -11.014   4.183  0.00  0.00    +0.143 A 
ATOM     27  C   UNL     1       0.479 -11.891   5.062  0.00  0.00    +0.069 A 
ATOM     28  C   UNL     1       0.807 -13.171   4.648  0.00  0.00    +0.125 A 
ATOM     29  C   UNL     1       0.528 -13.572   3.352  0.00  0.00    +0.041 A 
ATOM     30  C   UNL     1      -0.077 -12.695   2.473  0.00  0.00    +0.043 A 
ATOM     31  C   UNL     1      -0.410 -11.417   2.889  0.00  0.00    +0.150 A 
ATOM     32  F   UNL     1      -1.007 -10.561   2.031  0.00  0.00    -0.203 F 
ATOM     33  F   UNL     1       1.399 -14.028   5.508  0.00  0.00    -0.205 F 
ENDBRANCH  23  26
ENDBRANCH   4  23
TORSDOF 6
