REMARK  Name = ZINC10043137
REMARK  7 active torsions:
REMARK  status: ('A' for Active; 'I' for Inactive)
REMARK    1  A    between atoms: C_1  and  S_2
REMARK    2  A    between atoms: S_2  and  N_5
REMARK    3  A    between atoms: N_5  and  C_6
REMARK    4  A    between atoms: C_11  and  C_12
REMARK    5  A    between atoms: C_11  and  N_53
REMARK    6  A    between atoms: N_14  and  C_15
REMARK    7  A    between atoms: C_16  and  C_24
REMARK                            x       y       z     vdW  Elec       q    Type
REMARK                         _______ _______ _______ _____ _____    ______ ____
ROOT
ATOM      1  C   UNL     1       5.840   2.217  -4.315  0.00  0.00    +0.201 C 
ATOM      2  O   UNL     1       4.825   2.878  -4.380  0.00  0.00    -0.278 OA
ATOM      3  N   UNL     1       6.992   2.702  -4.817  0.00  0.00    -0.281 N 
ATOM      4  H   UNL     1       7.804   2.173  -4.765  0.00  0.00    +0.155 HD
ENDROOT
BRANCH   3   5
ATOM      5  C   UNL     1       7.019   3.957  -5.407  0.00  0.00    +0.084 A 
ATOM      6  C   UNL     1       8.098   4.623  -5.970  0.00  0.00    +0.068 A 
ATOM      7  C   UNL     1       7.856   5.941  -6.530  0.00  0.00    -0.023 A 
ATOM      8  C   UNL     1       6.584   6.383  -6.431  0.00  0.00    -0.004 A 
ATOM      9  S   UNL     1       5.713   5.076  -5.615  0.00  0.00    -0.077 S 
ATOM     10  C   UNL     1       6.043   7.695  -6.910  0.00  0.00    +0.043 C 
ATOM     11  C   UNL     1       7.228   8.629  -7.201  0.00  0.00    +0.005 C 
ATOM     12  C   UNL     1       8.260   7.870  -8.040  0.00  0.00    +0.005 C 
ATOM     13  C   UNL     1       8.935   6.795  -7.186  0.00  0.00    +0.037 C 
BRANCH   6  14
ATOM     14  C   UNL     1       9.433   4.017  -6.000  0.00  0.00    +0.244 C 
ATOM     15  O   UNL     1       9.769   3.331  -6.948  0.00  0.00    -0.270 OA
ATOM     16  N   UNL     1      10.289   4.220  -4.979  0.00  0.00    -0.325 N 
ATOM     17  H   UNL     1      10.021   4.766  -4.223  0.00  0.00    +0.145 HD
ATOM     18  H   UNL     1      11.172   3.819  -4.999  0.00  0.00    +0.145 HD
ENDBRANCH   6  14
ENDBRANCH   3   5
BRANCH   1  19
ATOM     19  C   UNL     1       5.811   0.854  -3.674  0.00  0.00    +0.019 C 
BRANCH  19  25
ATOM     20  C   UNL     1       2.054  -1.153  -3.297  0.00  0.00    +0.073 C 
ATOM     21  C   UNL     1       2.934  -0.961  -2.058  0.00  0.00    +0.002 C 
ATOM     22  C   UNL     1       4.377  -0.703  -2.499  0.00  0.00    -0.077 C 
ATOM     23  C   UNL     1       3.625   0.318  -4.564  0.00  0.00    -0.077 C 
ATOM     24  C   UNL     1       2.160   0.090  -4.185  0.00  0.00    +0.002 C 
ATOM     25  N   UNL     1       4.414   0.519  -3.330  0.00  0.00    +0.385 N 
ATOM     26  H   UNL     1       4.006   1.296  -2.797  0.00  0.00    -0.081 HD
BRANCH  20  27
ATOM     27  N   UNL     1       0.662  -1.342  -2.883  0.00  0.00    -0.192 NA
ATOM     28  H   UNL     1       0.098  -0.572  -2.711  0.00  0.00    +0.148 HD
BRANCH  27  30
ATOM     29  C   UNL     1       0.987  -3.595  -1.334  0.00  0.00    +0.214 C 
ATOM     30  S   UNL     1       0.051  -2.872  -2.709  0.00  0.00    +0.027 S 
ATOM     31  O   UNL     1       0.376  -3.533  -3.924  0.00  0.00    -0.158 OA
ATOM     32  O   UNL     1      -1.305  -2.679  -2.330  0.00  0.00    -0.158 OA
ENDBRANCH  27  30
ENDBRANCH  20  27
ENDBRANCH  19  25
ENDBRANCH   1  19
TORSDOF 6
