REMARK  Name = ZINC12582798
REMARK  10 active torsions:
REMARK  status: ('A' for Active; 'I' for Inactive)
REMARK    1  A    between atoms: C_1  and  C_2
REMARK    2  A    between atoms: C_2  and  C_3
REMARK    3  A    between atoms: C_2  and  C_4
REMARK    4  A    between atoms: C_2  and  O_32
REMARK    5  A    between atoms: C_5  and  C_6
REMARK    6  A    between atoms: C_9  and  C_11
REMARK    7  A    between atoms: C_11  and  N_60
REMARK    8  A    between atoms: C_16  and  C_18
REMARK    9  A    between atoms: N_20  and  C_21
REMARK   10  A    between atoms: C_24  and  N_27
REMARK                            x       y       z     vdW  Elec       q    Type
REMARK                         _______ _______ _______ _____ _____    ______ ____
ROOT
ATOM      1  C   UNL     1       2.684   2.472  -1.992  0.00  0.00    -0.077 C 
ATOM      2  C   UNL     1       3.591   2.388  -3.221  0.00  0.00    -0.019 C 
ATOM      3  C   UNL     1       3.107   1.256  -4.131  0.00  0.00    -0.003 C 
ATOM      4  C   UNL     1       3.103  -0.056  -3.343  0.00  0.00    -0.006 C 
ATOM      5  C   UNL     1       2.210   0.098  -2.110  0.00  0.00    +0.020 C 
ATOM      6  N   UNL     1       2.744   1.186  -1.263  0.00  0.00    +0.390 N 
ATOM      7  H   UNL     1       3.723   0.979  -1.033  0.00  0.00    -0.080 HD
ENDROOT
BRANCH   5   8
ATOM      8  C   UNL     1       2.219  -1.185  -1.320  0.00  0.00    +0.204 C 
ATOM      9  O   UNL     1       3.031  -1.346  -0.434  0.00  0.00    -0.277 OA
ATOM     10  N   UNL     1       1.324  -2.154  -1.597  0.00  0.00    -0.287 N 
ATOM     11  H   UNL     1       0.717  -2.053  -2.348  0.00  0.00    +0.155 HD
BRANCH  10  12
ATOM     12  C   UNL     1       1.269  -3.305  -0.803  0.00  0.00    +0.033 A 
ATOM     13  C   UNL     1       2.437  -3.840  -0.274  0.00  0.00    +0.025 A 
ATOM     14  C   UNL     1       2.382  -4.972   0.514  0.00  0.00    +0.029 A 
ATOM     15  C   UNL     1       1.161  -5.582   0.769  0.00  0.00    +0.065 A 
ATOM     16  C   UNL     1      -0.005  -5.052   0.235  0.00  0.00    +0.029 A 
ATOM     17  C   UNL     1       0.048  -3.916  -0.549  0.00  0.00    +0.025 A 
BRANCH  15  18
ATOM     18  N   UNL     1       1.107  -6.736   1.565  0.00  0.00    -0.240 N 
ATOM     19  C   UNL     1       2.161  -7.357   2.139  0.00  0.00    +0.114 A 
ATOM     20  C   UNL     1       1.688  -8.425   2.823  0.00  0.00    +0.041 A 
ATOM     21  C   UNL     1       0.299  -8.464   2.654  0.00  0.00    +0.135 A 
ATOM     22  N   UNL     1      -0.050  -7.452   1.900  0.00  0.00    -0.175 NA
ENDBRANCH  15  18
ENDBRANCH  10  12
ENDBRANCH   5   8
BRANCH   6  23
ATOM     23  C   UNL     1       1.965   1.280  -0.011  0.00  0.00    -0.035 C 
BRANCH  23  27
ATOM     24  C   UNL     1      -2.030   2.233  -0.838  0.00  0.00    +0.062 A 
ATOM     25  C   UNL     1      -1.748   0.893  -0.756  0.00  0.00    +0.025 A 
ATOM     26  C   UNL     1      -0.457   0.504  -0.482  0.00  0.00    +0.010 A 
ATOM     27  C   UNL     1       0.499   1.454  -0.310  0.00  0.00    -0.026 A 
ATOM     28  S   UNL     1      -0.429   2.963  -0.532  0.00  0.00    -0.087 S 
BRANCH  24  30
ATOM     29  C   UNL     1      -4.305   3.408  -1.323  0.00  0.00    -0.062 C 
ATOM     30  C   UNL     1      -3.280   2.878  -1.105  0.00  0.00    -0.056 C 
BRANCH  29  32
ATOM     31  C   UNL     1      -5.960   4.972  -0.418  0.00  0.00    +0.055 C 
ATOM     32  C   UNL     1      -5.590   4.071  -1.598  0.00  0.00    +0.121 C 
ATOM     33  C   UNL     1      -5.466   4.917  -2.867  0.00  0.00    +0.055 C 
BRANCH  32  34
ATOM     34  O   UNL     1      -6.606   3.083  -1.780  0.00  0.00    -0.377 OA
ATOM     35  H   UNL     1      -6.437   2.475  -2.513  0.00  0.00    +0.211 HD
ENDBRANCH  32  34
ENDBRANCH  29  32
ENDBRANCH  24  30
ENDBRANCH  23  27
ENDBRANCH   6  23
TORSDOF 8
