REMARK  Name = ZINC42027487
REMARK  3 active torsions:
REMARK  status: ('A' for Active; 'I' for Inactive)
REMARK    1  A    between atoms: C_3  and  N_9
REMARK    2  A    between atoms: C_10  and  C_14
REMARK    3  A    between atoms: C_18  and  N_20
REMARK                            x       y       z     vdW  Elec       q    Type
REMARK                         _______ _______ _______ _____ _____    ______ ____
ROOT
ATOM      1  N   UNL     1       3.606   2.121  -0.201  0.00  0.00    -0.191 N 
ATOM      2  C   UNL     1       4.851   1.626   0.053  0.00  0.00    +0.187 A 
ATOM      3  N   UNL     1       5.654   2.661   0.186  0.00  0.00    -0.108 NA
ATOM      4  N   UNL     1       5.004   3.758   0.034  0.00  0.00    -0.022 NA
ATOM      5  N   UNL     1       3.762   3.518  -0.209  0.00  0.00    -0.039 NA
ENDROOT
BRANCH   1   8
ATOM      6  C   UNL     1       1.203  -0.267  -1.639  0.00  0.00    +0.004 A 
ATOM      7  C   UNL     1       2.366   0.450  -1.431  0.00  0.00    +0.029 A 
ATOM      8  C   UNL     1       2.427   1.393  -0.414  0.00  0.00    +0.089 A 
ATOM      9  C   UNL     1       1.316   1.615   0.391  0.00  0.00    +0.085 A 
ATOM     10  C   UNL     1       0.155   0.895   0.178  0.00  0.00    +0.061 A 
ATOM     11  C   UNL     1       0.099  -0.045  -0.837  0.00  0.00    +0.021 A 
ATOM     12 CL   UNL     1      -1.234   1.171   1.183  0.00  0.00    -0.082 Cl
ATOM     13 CL   UNL     1       1.387   2.794   1.663  0.00  0.00    -0.080 Cl
ENDBRANCH   1   8
BRANCH   2  14
ATOM     14  C   UNL     1       5.228   0.199   0.159  0.00  0.00    +0.023 A 
ATOM     15  C   UNL     1       4.249  -0.767   0.396  0.00  0.00    +0.013 A 
ATOM     16  C   UNL     1       4.602  -2.098   0.494  0.00  0.00    +0.022 A 
ATOM     17  C   UNL     1       5.925  -2.479   0.359  0.00  0.00    +0.062 A 
ATOM     18  C   UNL     1       6.907  -1.523   0.123  0.00  0.00    +0.044 A 
ATOM     19  C   UNL     1       6.561  -0.185   0.017  0.00  0.00    +0.035 A 
ATOM     20 CL   UNL     1       6.360  -4.155   0.484  0.00  0.00    -0.082 Cl
BRANCH  18  21
ATOM     21  N   UNL     1       8.243  -1.912  -0.012  0.00  0.00    -0.357 N 
ATOM     22  H   UNL     1       8.485  -2.849   0.058  0.00  0.00    +0.142 HD
ATOM     23  H   UNL     1       8.928  -1.245  -0.177  0.00  0.00    +0.142 HD
ENDBRANCH  18  21
ENDBRANCH   2  14
TORSDOF 3
