REMARK  Name = ZINC64014819
REMARK  2 active torsions:
REMARK  status: ('A' for Active; 'I' for Inactive)
REMARK    1  A    between atoms: C_8  and  C_26
REMARK    2  A    between atoms: C_16  and  C_18
REMARK                            x       y       z     vdW  Elec       q    Type
REMARK                         _______ _______ _______ _____ _____    ______ ____
ROOT
ATOM      1  C   UNL     1      -0.987   0.219   0.216  0.00  0.00    +0.001 A 
ATOM      2  C   UNL     1      -0.013   1.220   0.332  0.00  0.00    +0.002 A 
ATOM      3  C   UNL     1       1.310   0.952   0.327  0.00  0.00    +0.026 A 
ATOM      4  C   UNL     1       1.774  -0.386   0.200  0.00  0.00    +0.043 A 
ATOM      5  N   UNL     1       2.986  -0.888   0.148  0.00  0.00    -0.376 N 
ATOM      6  C   UNL     1       2.884  -2.344   0.088  0.00  0.00    +0.127 C 
ATOM      7  C   UNL     1       3.588  -2.916  -1.147  0.00  0.00    +0.106 C 
ATOM      8  N   UNL     1       3.103  -4.291  -1.347  0.00  0.00    -0.290 N 
ATOM      9  C   UNL     1       1.677  -4.555  -1.570  0.00  0.00    +0.113 C 
ATOM     10  C   UNL     1       0.867  -4.014  -0.378  0.00  0.00    +0.052 C 
ATOM     11  C   UNL     1       1.399  -2.638  -0.050  0.00  0.00    -0.035 C 
ATOM     12  C   UNL     1       0.763  -1.464   0.068  0.00  0.00    -0.001 A 
ATOM     13  C   UNL     1      -0.656  -1.085   0.087  0.00  0.00    +0.010 A 
ATOM     14  C   UNL     1       3.977  -5.317  -1.325  0.00  0.00    +0.267 C 
ATOM     15  O   UNL     1       5.137  -5.121  -1.019  0.00  0.00    -0.268 OA
ATOM     16  H   UNL     1       3.812  -0.378   0.149  0.00  0.00    +0.160 HD
ENDROOT
BRANCH  14  17
ATOM     17  C   UNL     1       3.526  -6.676  -1.671  0.00  0.00    +0.145 A 
ATOM     18  C   UNL     1       4.256  -7.818  -1.550  0.00  0.00    +0.126 A 
ATOM     19  N   UNL     1       3.467  -8.869  -1.980  0.00  0.00    -0.300 N 
ATOM     20  C   UNL     1       3.573 -10.236  -2.121  0.00  0.00    +0.100 A 
ATOM     21  C   UNL     1       2.555 -10.955  -2.592  0.00  0.00    +0.067 A 
ATOM     22  S   UNL     1       1.319  -9.700  -2.884  0.00  0.00    -0.058 S 
ATOM     23  C   UNL     1       2.273  -8.299  -2.347  0.00  0.00    +0.178 A 
ATOM     24  N   UNL     1       2.305  -7.013  -2.161  0.00  0.00    -0.217 NA
ENDBRANCH  14  17
BRANCH   7  25
ATOM     25  C   UNL     1       3.254  -2.065  -2.374  0.00  0.00    +0.012 C 
ATOM     26  C   UNL     1       3.748  -2.774  -3.637  0.00  0.00    +0.005 C 
ATOM     27  C   UNL     1       3.414  -1.923  -4.863  0.00  0.00    +0.000 C 
ATOM     28  C   UNL     1       4.100  -0.561  -4.741  0.00  0.00    +0.000 C 
ATOM     29  C   UNL     1       3.606   0.148  -3.479  0.00  0.00    +0.000 C 
ATOM     30  C   UNL     1       3.940  -0.703  -2.252  0.00  0.00    +0.005 C 
ENDBRANCH   7  25
TORSDOF 2
