REMARK  Name = ZINC22627335
REMARK  8 active torsions:
REMARK  status: ('A' for Active; 'I' for Inactive)
REMARK    1  A    between atoms: C_1  and  C_2
REMARK    2  A    between atoms: C_7  and  O_34
REMARK    3  A    between atoms: C_8  and  C_10
REMARK    4  A    between atoms: C_10  and  C_12
REMARK    5  A    between atoms: C_10  and  N_20
REMARK    6  A    between atoms: N_23  and  C_26
REMARK    7  A    between atoms: C_29  and  O_32
REMARK    8  A    between atoms: O_32  and  C_33
REMARK                            x       y       z     vdW  Elec       q    Type
REMARK                         _______ _______ _______ _____ _____    ______ ____
ROOT
ATOM      1  C   UNL     1       1.868  -6.128   1.013  0.00  0.00    +0.129 C 
ENDROOT
BRANCH   1   9
ATOM      2  C   UNL     1       8.617  -9.268   0.549  0.00  0.00    +0.090 C 
ATOM      3  C   UNL     1       7.316  -8.538   0.759  0.00  0.00    +0.150 A 
ATOM      4  N   UNL     1       7.114  -7.559   1.639  0.00  0.00    -0.205 NA
ATOM      5  C   UNL     1       5.876  -7.154   1.557  0.00  0.00    +0.199 A 
ATOM      6  N   UNL     1       5.223  -7.872   0.602  0.00  0.00    -0.173 N 
ATOM      7  N   UNL     1       6.207  -8.766   0.107  0.00  0.00    -0.147 NA
ATOM      8  C   UNL     1       3.898  -7.575   0.388  0.00  0.00    +0.228 A 
ATOM      9  C   UNL     1       3.293  -6.610   1.091  0.00  0.00    +0.076 A 
ATOM     10  S   UNL     1       4.618  -6.049   2.151  0.00  0.00    -0.047 S 
BRANCH   8  11
ATOM     11  O   UNL     1       3.196  -8.266  -0.550  0.00  0.00    -0.492 OA
ATOM     12  H   UNL     1       2.136  -8.033  -0.726  0.00  0.00    +0.294 HD
ENDBRANCH   8  11
ENDBRANCH   1   9
BRANCH   1  13
ATOM     13  C   UNL     1       1.096  -6.647   2.199  0.00  0.00    -0.022 A 
ATOM     14  C   UNL     1       1.211  -6.020   3.425  0.00  0.00    +0.008 A 
ATOM     15  C   UNL     1       0.501  -6.492   4.513  0.00  0.00    +0.041 A 
ATOM     16  C   UNL     1      -0.319  -7.599   4.377  0.00  0.00    +0.158 A 
ATOM     17  C   UNL     1      -0.430  -8.231   3.148  0.00  0.00    +0.159 A 
ATOM     18  C   UNL     1       0.279  -7.753   2.059  0.00  0.00    +0.046 A 
ATOM     19  F   UNL     1      -1.228  -9.312   3.013  0.00  0.00    -0.202 F 
ATOM     20  F   UNL     1      -1.009  -8.065   5.441  0.00  0.00    -0.202 F 
ENDBRANCH   1  13
BRANCH   1  21
ATOM     21  N   UNL     1       1.847  -4.659   1.020  0.00  0.00    -0.288 NA
ATOM     22  C   UNL     1       2.591  -4.116  -0.124  0.00  0.00    +0.104 C 
ATOM     23  C   UNL     1       2.613  -2.588  -0.036  0.00  0.00    +0.120 C 
ATOM     24  N   UNL     1       1.234  -2.081  -0.021  0.00  0.00    -0.327 N 
ATOM     25  C   UNL     1       0.490  -2.624   1.124  0.00  0.00    +0.120 C 
ATOM     26  C   UNL     1       0.468  -4.152   1.036  0.00  0.00    +0.104 C 
BRANCH  24  27
ATOM     27  C   UNL     1       1.214  -0.681  -0.013  0.00  0.00    +0.030 A 
ATOM     28  C   UNL     1       0.002  -0.004   0.002  0.00  0.00    +0.027 A 
ATOM     29  C   UNL     1      -0.017   1.377   0.010  0.00  0.00    +0.047 A 
ATOM     30  C   UNL     1       1.175   2.087   0.002  0.00  0.00    +0.120 A 
ATOM     31  C   UNL     1       2.386   1.411  -0.013  0.00  0.00    +0.047 A 
ATOM     32  C   UNL     1       2.406   0.030  -0.021  0.00  0.00    +0.027 A 
BRANCH  30  33
ATOM     33  O   UNL     1       1.155   3.447   0.009  0.00  0.00    -0.495 OA
ATOM     34  C   UNL     1       2.419   4.114   0.001  0.00  0.00    +0.277 C 
ENDBRANCH  30  33
ENDBRANCH  24  27
ENDBRANCH   1  21
TORSDOF 6
