REMARK  Name = ZINC14993842
REMARK  3 active torsions:
REMARK  status: ('A' for Active; 'I' for Inactive)
REMARK    1  A    between atoms: N_8  and  C_20
REMARK    2  A    between atoms: C_10  and  C_13
REMARK    3  A    between atoms: C_20  and  C_21
REMARK                            x       y       z     vdW  Elec       q    Type
REMARK                         _______ _______ _______ _____ _____    ______ ____
ROOT
ATOM      1  C   UNL     1      -0.001   1.385  -0.046  0.00  0.00    +0.001 A 
ATOM      2  C   UNL     1       1.190   2.089  -0.041  0.00  0.00    +0.004 A 
ATOM      3  C   UNL     1       2.396   1.415  -0.037  0.00  0.00    +0.046 A 
ATOM      4  C   UNL     1       2.408   0.027  -0.032  0.00  0.00    +0.126 A 
ATOM      5  C   UNL     1       1.216  -0.672  -0.020  0.00  0.00    +0.008 A 
ATOM      6  C   UNL     1       0.011   0.001  -0.037  0.00  0.00    +0.008 A 
ATOM      7  C   UNL     1       1.242  -2.187   0.042  0.00  0.00    +0.124 C 
ATOM      8  N   UNL     1       1.776  -2.702  -1.224  0.00  0.00    -0.286 NA
ATOM      9  C   UNL     1       3.236  -2.730  -1.246  0.00  0.00    +0.134 C 
ATOM     10  C   UNL     1       3.868  -1.355  -1.269  0.00  0.00    +0.220 C 
ATOM     11  O   UNL     1       3.590  -0.647  -0.055  0.00  0.00    -0.483 OA
ENDROOT
BRANCH  10  12
ATOM     12  C   UNL     1       5.360  -1.498  -1.428  0.00  0.00    +0.029 A 
ATOM     13  C   UNL     1       6.177  -1.502  -0.313  0.00  0.00    +0.010 A 
ATOM     14  C   UNL     1       7.545  -1.633  -0.459  0.00  0.00    +0.001 A 
ATOM     15  C   UNL     1       8.098  -1.761  -1.719  0.00  0.00    +0.003 A 
ATOM     16  C   UNL     1       7.284  -1.757  -2.835  0.00  0.00    +0.039 A 
ATOM     17  C   UNL     1       5.912  -1.631  -2.691  0.00  0.00    +0.130 A 
ATOM     18  F   UNL     1       5.115  -1.632  -3.781  0.00  0.00    -0.205 F 
ENDBRANCH  10  12
BRANCH   8  19
ATOM     19  C   UNL     1       1.219  -4.027  -1.529  0.00  0.00    +0.181 C 
BRANCH  19  20
ATOM     20  C   UNL     1      -0.260  -3.902  -1.788  0.00  0.00    +0.230 C 
ATOM     21  O   UNL     1      -0.798  -2.817  -1.725  0.00  0.00    -0.274 OA
ATOM     22  N   UNL     1      -0.986  -4.997  -2.091  0.00  0.00    -0.297 N 
ATOM     23  C   UNL     1      -0.349  -6.319  -2.165  0.00  0.00    +0.126 C 
ATOM     24  C   UNL     1      -1.090  -7.274  -1.221  0.00  0.00    +0.125 C 
ATOM     25  N   UNL     1      -2.532  -7.167  -1.481  0.00  0.00    -0.314 N 
ATOM     26  C   UNL     1      -3.169  -5.845  -1.407  0.00  0.00    +0.125 C 
ATOM     27  C   UNL     1      -2.429  -4.891  -2.346  0.00  0.00    +0.126 C 
ATOM     28  C   UNL     1      -3.280  -8.296  -1.793  0.00  0.00    +0.099 A 
ATOM     29  C   UNL     1      -2.640  -9.517  -1.982  0.00  0.00    +0.042 A 
ATOM     30  C   UNL     1      -3.397 -10.633  -2.292  0.00  0.00    +0.005 A 
ATOM     31  C   UNL     1      -4.774 -10.489  -2.403  0.00  0.00    +0.018 A 
ATOM     32  C   UNL     1      -5.343  -9.248  -2.202  0.00  0.00    +0.084 A 
ATOM     33  N   UNL     1      -4.596  -8.202  -1.902  0.00  0.00    -0.350 N 
ATOM     34  H   UNL     1      -5.022  -7.341  -1.762  0.00  0.00    +0.166 HD
ENDBRANCH  19  20
ENDBRANCH   8  19
TORSDOF 3
