REMARK  Name = ZINC20558707
REMARK  7 active torsions:
REMARK  status: ('A' for Active; 'I' for Inactive)
REMARK    1  A    between atoms: C_1  and  C_2
REMARK    2  A    between atoms: C_6  and  C_8
REMARK    3  A    between atoms: C_10  and  C_34
REMARK    4  A    between atoms: C_11  and  N_33
REMARK    5  A    between atoms: N_18  and  C_25
REMARK    6  A    between atoms: C_25  and  C_26
REMARK    7  A    between atoms: C_31  and  C_32
REMARK                            x       y       z     vdW  Elec       q    Type
REMARK                         _______ _______ _______ _____ _____    ______ ____
ROOT
ATOM      1  C   UNL     1       0.045   5.373  -0.214  0.00  0.00    +0.118 C 
ATOM      2  C   UNL     1      -0.775   5.902  -1.359  0.00  0.00    +0.099 C 
ATOM      3  C   UNL     1      -2.052   6.311  -1.151  0.00  0.00    +0.199 C 
ATOM      4  O   UNL     1      -2.613   6.252   0.068  0.00  0.00    -0.439 OA
ATOM      5  C   UNL     1      -1.833   6.186   1.180  0.00  0.00    +0.162 C 
ATOM      6  C   UNL     1      -0.571   5.778   1.096  0.00  0.00    +0.141 C 
ATOM      7  S   UNL     1       0.406   5.713   2.570  0.00  0.00    +0.076 S 
ATOM      8  O   UNL     1       0.192   4.436   3.155  0.00  0.00    -0.150 OA
ATOM      9  O   UNL     1       1.698   6.199   2.234  0.00  0.00    -0.150 OA
ATOM     10  N   UNL     1      -0.289   6.835   3.585  0.00  0.00    -0.198 N 
ATOM     11  C   UNL     1      -1.688   6.891   3.607  0.00  0.00    +0.062 A 
ATOM     12  C   UNL     1      -2.440   6.579   2.474  0.00  0.00    +0.042 A 
ATOM     13  C   UNL     1      -3.838   6.640   2.549  0.00  0.00    +0.013 A 
ATOM     14  C   UNL     1      -4.455   7.006   3.725  0.00  0.00    +0.001 A 
ATOM     15  C   UNL     1      -3.702   7.319   4.843  0.00  0.00    +0.002 A 
ATOM     16  C   UNL     1      -2.323   7.263   4.786  0.00  0.00    +0.025 A 
ENDROOT
BRANCH   1  22
ATOM     17  C   UNL     1       2.708   1.157  -0.634  0.00  0.00    +0.044 C 
ATOM     18  C   UNL     1       1.379   1.852  -0.496  0.00  0.00    -0.050 A 
ATOM     19  C   UNL     1       0.213   1.111  -0.443  0.00  0.00    +0.003 A 
ATOM     20  C   UNL     1      -1.007   1.749  -0.322  0.00  0.00    +0.001 A 
ATOM     21  C   UNL     1      -1.061   3.128  -0.244  0.00  0.00    +0.004 A 
ATOM     22  C   UNL     1       0.104   3.870  -0.296  0.00  0.00    -0.033 A 
ATOM     23  C   UNL     1       1.325   3.232  -0.422  0.00  0.00    +0.008 A 
ENDBRANCH   1  22
BRANCH   3  24
ATOM     24  N   UNL     1      -2.785   6.795  -2.206  0.00  0.00    -0.328 N 
ATOM     25  H   UNL     1      -3.821   7.129  -2.050  0.00  0.00    +0.145 HD
ATOM     26  H   UNL     1      -2.336   6.848  -3.209  0.00  0.00    +0.145 HD
ENDBRANCH   3  24
BRANCH   2  27
ATOM     27  C   UNL     1      -0.207   5.976  -2.671  0.00  0.00    +0.101 C 
ATOM     28  N   UNL     1       0.244   6.033  -3.712  0.00  0.00    -0.191 NA
ENDBRANCH   2  27
BRANCH  10  29
ATOM     29  C   UNL     1       0.525   7.724   4.418  0.00  0.00    +0.167 C 
BRANCH  29  30
ATOM     30  C   UNL     1       0.729   9.035   3.704  0.00  0.00    -0.025 A 
ATOM     31  C   UNL     1       0.251   9.203   2.417  0.00  0.00    +0.005 A 
ATOM     32  C   UNL     1       0.433  10.408   1.764  0.00  0.00    +0.000 A 
ATOM     33  C   UNL     1       1.102  11.441   2.394  0.00  0.00    +0.000 A 
ATOM     34  C   UNL     1       1.584  11.271   3.679  0.00  0.00    +0.003 A 
ATOM     35  C   UNL     1       1.397  10.068   4.334  0.00  0.00    -0.046 A 
ATOM     36  C   UNL     1       1.923   9.883   5.734  0.00  0.00    +0.044 C 
ENDBRANCH  29  30
ENDBRANCH  10  29
TORSDOF 5
