REMARK  Name = ZINC64945626
REMARK  5 active torsions:
REMARK  status: ('A' for Active; 'I' for Inactive)
REMARK    1  A    between atoms: C_1  and  O_2
REMARK    2  A    between atoms: O_2  and  C_3
REMARK    3  A    between atoms: C_6  and  N_10
REMARK    4  A    between atoms: C_11  and  C_13
REMARK    5  A    between atoms: C_13  and  N_14
REMARK                            x       y       z     vdW  Elec       q    Type
REMARK                         _______ _______ _______ _____ _____    ______ ____
ROOT
ATOM      1  N   UNL     1      -6.074  -6.063  -0.271  0.00  0.00    -0.203 N 
ATOM      2  C   UNL     1      -6.008  -6.933   0.759  0.00  0.00    +0.353 A 
ATOM      3  O   UNL     1      -6.111  -6.655   1.941  0.00  0.00    -0.244 OA
ATOM      4  N   UNL     1      -5.810  -8.165   0.247  0.00  0.00    -0.233 N 
ATOM      5  C   UNL     1      -5.673  -9.393   0.840  0.00  0.00    +0.211 A 
ATOM      6  N   UNL     1      -5.485 -10.472   0.139  0.00  0.00    -0.229 NA
ATOM      7  C   UNL     1      -5.413 -10.457  -1.191  0.00  0.00    +0.114 A 
ATOM      8  C   UNL     1      -5.536  -9.277  -1.936  0.00  0.00    +0.056 A 
ATOM      9  C   UNL     1      -5.751  -8.049  -1.129  0.00  0.00    +0.173 A 
ATOM     10  N   UNL     1      -5.913  -6.797  -1.456  0.00  0.00    -0.148 NA
ATOM     11  C   UNL     1      -5.439  -9.396  -3.344  0.00  0.00    -0.024 A 
ATOM     12  C   UNL     1      -5.237 -10.633  -3.857  0.00  0.00    -0.004 A 
ATOM     13  S   UNL     1      -5.170 -11.697  -2.440  0.00  0.00    -0.073 S 
ATOM     14  C   UNL     1      -5.102 -11.011  -5.299  0.00  0.00    +0.043 C 
ATOM     15  C   UNL     1      -5.591  -9.834  -6.155  0.00  0.00    +0.005 C 
ATOM     16  C   UNL     1      -4.954  -8.545  -5.628  0.00  0.00    +0.005 C 
ATOM     17  C   UNL     1      -5.553  -8.186  -4.268  0.00  0.00    +0.037 C 
ENDROOT
BRANCH   1  18
ATOM     18  C   UNL     1      -6.282  -4.616  -0.171  0.00  0.00    +0.244 C 
BRANCH  18  20
ATOM     19  N   UNL     1      -4.891  -2.581   0.036  0.00  0.00    -0.284 N 
ATOM     20  C   UNL     1      -4.947  -3.923  -0.067  0.00  0.00    +0.239 C 
ATOM     21  O   UNL     1      -3.924  -4.574  -0.076  0.00  0.00    -0.273 OA
ATOM     22  H   UNL     1      -5.709  -2.066   0.120  0.00  0.00    +0.155 HD
BRANCH  19  26
ATOM     23  C   UNL     1      -1.201  -0.638  -0.011  0.00  0.00    +0.138 A 
ATOM     24  C   UNL     1      -1.386  -1.794  -0.754  0.00  0.00    +0.049 A 
ATOM     25  C   UNL     1      -2.607  -2.438  -0.739  0.00  0.00    +0.027 A 
ATOM     26  C   UNL     1      -3.652  -1.928   0.021  0.00  0.00    +0.035 A 
ATOM     27  C   UNL     1      -3.467  -0.771   0.765  0.00  0.00    +0.047 A 
ATOM     28  C   UNL     1      -2.243  -0.130   0.753  0.00  0.00    +0.084 A 
ATOM     29 CL   UNL     1      -2.010   1.314   1.688  0.00  0.00    -0.080 Cl
BRANCH  23  31
ATOM     30  C   UNL     1       1.029  -0.582  -0.835  0.00  0.00    +0.277 C 
ATOM     31  O   UNL     1       0.002  -0.004  -0.027  0.00  0.00    -0.494 OA
ENDBRANCH  23  31
ENDBRANCH  19  26
ENDBRANCH  18  20
ENDBRANCH   1  18
TORSDOF 4
