REMARK  Name = ZINC39898369
REMARK  8 active torsions:
REMARK  status: ('A' for Active; 'I' for Inactive)
REMARK    1  A    between atoms: C_1  and  C_2
REMARK    2  A    between atoms: C_2  and  C_3
REMARK    3  A    between atoms: C_3  and  N_4
REMARK    4  A    between atoms: C_5  and  C_23
REMARK    5  A    between atoms: C_8  and  C_15
REMARK    6  A    between atoms: C_25  and  O_31
REMARK    7  A    between atoms: C_26  and  O_30
REMARK    8  A    between atoms: O_31  and  C_32
REMARK                            x       y       z     vdW  Elec       q    Type
REMARK                         _______ _______ _______ _____ _____    ______ ____
ROOT
ATOM      1  N   UNL     1      -1.413  -1.998   0.005  0.00  0.00    -0.285 N 
ATOM      2  C   UNL     1      -1.407  -2.844  -1.194  0.00  0.00    +0.141 C 
ATOM      3  C   UNL     1      -1.386  -4.268  -0.708  0.00  0.00    +0.035 A 
ATOM      4  C   UNL     1      -1.369  -5.588  -1.025  0.00  0.00    +0.075 A 
ATOM      5  N   UNL     1      -1.354  -6.274   0.156  0.00  0.00    -0.276 N 
ATOM      6  N   UNL     1      -1.361  -5.449   1.142  0.00  0.00    -0.168 NA
ATOM      7  H   UNL     1      -1.340  -7.240   0.239  0.00  0.00    +0.189 HD
ATOM      8  C   UNL     1      -1.380  -4.206   0.704  0.00  0.00    +0.153 A 
ATOM      9  C   UNL     1      -1.392  -2.785   1.095  0.00  0.00    +0.268 C 
ATOM     10  O   UNL     1      -1.386  -2.381   2.241  0.00  0.00    -0.268 OA
ENDROOT
BRANCH   4  11
ATOM     11  C   UNL     1      -1.368  -6.171  -2.385  0.00  0.00    +0.048 A 
ATOM     12  C   UNL     1      -2.455  -6.926  -2.825  0.00  0.00    +0.033 A 
ATOM     13  C   UNL     1      -2.448  -7.467  -4.095  0.00  0.00    +0.042 A 
ATOM     14  C   UNL     1      -1.365  -7.263  -4.934  0.00  0.00    +0.024 A 
ATOM     15  C   UNL     1      -0.282  -6.518  -4.507  0.00  0.00    +0.053 A 
ATOM     16  C   UNL     1      -0.278  -5.963  -3.238  0.00  0.00    +0.188 A 
ATOM     17  O   UNL     1       0.783  -5.224  -2.820  0.00  0.00    -0.287 OA
ATOM     18 CL   UNL     1      -3.801  -8.406  -4.642  0.00  0.00    -0.084 Cl
ENDBRANCH   4  11
BRANCH   2  19
ATOM     19  C   UNL     1      -2.649  -2.594  -2.011  0.00  0.00    -0.018 A 
ATOM     20  C   UNL     1      -2.571  -2.550  -3.390  0.00  0.00    +0.055 A 
ATOM     21  C   UNL     1      -3.711  -2.320  -4.143  0.00  0.00    +0.163 A 
ATOM     22  C   UNL     1      -4.935  -2.133  -3.507  0.00  0.00    +0.173 A 
ATOM     23  C   UNL     1      -5.007  -2.179  -2.123  0.00  0.00    +0.063 A 
ATOM     24  C   UNL     1      -3.865  -2.414  -1.378  0.00  0.00    +0.025 A 
ATOM     25 BR   UNL     1      -6.668  -1.927  -1.254  0.00  0.00    -0.046 Br
BRANCH  22  26
ATOM     26  O   UNL     1      -6.057  -1.907  -4.241  0.00  0.00    -0.503 OA
ATOM     27  H   UNL     1      -6.533  -2.710  -4.490  0.00  0.00    +0.292 HD
ENDBRANCH  22  26
BRANCH  21  28
ATOM     28  O   UNL     1      -3.635  -2.275  -5.500  0.00  0.00    -0.491 OA
ATOM     29  C   UNL     1      -2.346  -2.474  -6.084  0.00  0.00    +0.277 C 
ENDBRANCH  21  28
ENDBRANCH   2  19
BRANCH   1  30
ATOM     30  C   UNL     1      -1.433  -0.534   0.013  0.00  0.00    +0.109 C 
BRANCH  30  32
ATOM     31  C   UNL     1      -0.019   1.526   0.010  0.00  0.00    +0.005 C 
ATOM     32  C   UNL     1       0.002  -0.004   0.002  0.00  0.00    +0.016 C 
ENDBRANCH  30  32
ENDBRANCH   1  30
TORSDOF 6
