REMARK  Name = ZINC05163980
REMARK  6 active torsions:
REMARK  status: ('A' for Active; 'I' for Inactive)
REMARK    1  A    between atoms: C_1  and  O_2
REMARK    2  A    between atoms: O_2  and  C_3
REMARK    3  A    between atoms: C_7  and  C_9
REMARK    4  A    between atoms: C_16  and  N_30
REMARK    5  A    between atoms: C_17  and  C_28
REMARK    6  A    between atoms: C_18  and  C_20
REMARK                            x       y       z     vdW  Elec       q    Type
REMARK                         _______ _______ _______ _____ _____    ______ ____
ROOT
ATOM      1  C   UNL     1       1.321  -4.579   2.418  0.00  0.00    +0.100 A 
ATOM      2  C   UNL     1       2.569  -5.113   2.753  0.00  0.00    +0.054 A 
ATOM      3  C   UNL     1       2.474  -6.474   2.703  0.00  0.00    +0.223 A 
ATOM      4  N   UNL     1       1.209  -6.784   2.350  0.00  0.00    -0.246 N 
ATOM      5  H   UNL     1       0.852  -7.679   2.236  0.00  0.00    +0.192 HD
ATOM      6  N   UNL     1       0.500  -5.585   2.180  0.00  0.00    -0.171 NA
ATOM      7  O   UNL     1       3.522  -7.291   2.975  0.00  0.00    -0.423 OA
ATOM      8  C   UNL     1       4.749  -6.736   3.034  0.00  0.00    +0.200 C 
ATOM      9  C   UNL     1       4.969  -5.404   3.100  0.00  0.00    +0.098 C 
ATOM     10  C   UNL     1       3.844  -4.399   3.119  0.00  0.00    +0.103 C 
ENDROOT
BRANCH  10  11
ATOM     11  C   UNL     1       3.717  -3.805   4.498  0.00  0.00    -0.015 A 
ATOM     12  C   UNL     1       3.348  -4.605   5.564  0.00  0.00    +0.006 A 
ATOM     13  C   UNL     1       3.231  -4.061   6.829  0.00  0.00    +0.002 A 
ATOM     14  C   UNL     1       3.482  -2.716   7.030  0.00  0.00    +0.021 A 
ATOM     15  C   UNL     1       3.851  -1.915   5.965  0.00  0.00    +0.060 A 
ATOM     16  C   UNL     1       3.975  -2.461   4.699  0.00  0.00    +0.063 A 
ATOM     17 CL   UNL     1       4.445  -1.458   3.362  0.00  0.00    -0.082 Cl
ATOM     18 CL   UNL     1       4.167  -0.226   6.218  0.00  0.00    -0.082 Cl
ENDBRANCH  10  11
BRANCH   1  23
ATOM     19  C   UNL     1      -0.542  -1.332   2.805  0.00  0.00    +0.121 A 
ATOM     20  C   UNL     1       0.344  -0.442   2.213  0.00  0.00    +0.045 A 
ATOM     21  C   UNL     1       1.541  -0.895   1.692  0.00  0.00    +0.004 A 
ATOM     22  C   UNL     1       1.862  -2.237   1.756  0.00  0.00    +0.010 A 
ATOM     23  C   UNL     1       0.978  -3.137   2.348  0.00  0.00    +0.006 A 
ATOM     24  C   UNL     1      -0.225  -2.678   2.878  0.00  0.00    +0.055 A 
BRANCH  19  26
ATOM     25  C   UNL     1      -1.979   0.519   3.206  0.00  0.00    +0.277 C 
ATOM     26  O   UNL     1      -1.717  -0.882   3.317  0.00  0.00    -0.495 OA
ENDBRANCH  19  26
ENDBRANCH   1  23
BRANCH   8  27
ATOM     27  N   UNL     1       5.838  -7.571   3.026  0.00  0.00    -0.328 N 
ATOM     28  H   UNL     1       5.712  -8.532   2.979  0.00  0.00    +0.145 HD
ATOM     29  H   UNL     1       6.734  -7.201   3.067  0.00  0.00    +0.145 HD
ENDBRANCH   8  27
BRANCH   9  30
ATOM     30  C   UNL     1       6.319  -4.930   3.154  0.00  0.00    +0.101 C 
ATOM     31  N   UNL     1       7.390  -4.553   3.197  0.00  0.00    -0.191 NA
ENDBRANCH   9  30
TORSDOF 5
