REMARK  Name = ZINC64218966
REMARK  8 active torsions:
REMARK  status: ('A' for Active; 'I' for Inactive)
REMARK    1  A    between atoms: C_1  and  C_2
REMARK    2  A    between atoms: N_4  and  C_5
REMARK    3  A    between atoms: C_5  and  C_7
REMARK    4  A    between atoms: C_5  and  C_17
REMARK    5  A    between atoms: C_7  and  C_8
REMARK    6  A    between atoms: N_19  and  C_20
REMARK    7  A    between atoms: C_23  and  S_26
REMARK    8  A    between atoms: S_26  and  N_29
REMARK                            x       y       z     vdW  Elec       q    Type
REMARK                         _______ _______ _______ _____ _____    ______ ____
ROOT
ATOM      1  C   UNL     1      -1.141  -2.157   0.005  0.00  0.00    +0.163 C 
ENDROOT
BRANCH   1   5
ATOM      2  C   UNL     1      -0.012   1.501   0.007  0.00  0.00    +0.109 C 
ATOM      3  C   UNL     1       0.004  -0.006  -0.002  0.00  0.00    +0.211 C 
ATOM      4  O   UNL     1       1.060  -0.601  -0.022  0.00  0.00    -0.276 OA
ATOM      5  N   UNL     1      -1.156  -0.692   0.013  0.00  0.00    -0.304 N 
ATOM      6  H   UNL     1      -2.001  -0.215   0.030  0.00  0.00    +0.149 HD
ENDBRANCH   1   5
BRANCH   1   7
ATOM      7  C   UNL     1      -0.406  -2.658   1.221  0.00  0.00    +0.238 C 
ATOM      8  O   UNL     1       0.358  -1.925   1.813  0.00  0.00    -0.273 OA
ATOM      9  N   UNL     1      -0.597  -3.922   1.651  0.00  0.00    -0.284 N 
ATOM     10  H   UNL     1      -1.256  -4.486   1.218  0.00  0.00    +0.155 HD
BRANCH   9  11
ATOM     11  C   UNL     1       0.157  -4.418   2.720  0.00  0.00    +0.034 A 
ATOM     12  C   UNL     1       0.551  -5.750   2.734  0.00  0.00    +0.025 A 
ATOM     13  C   UNL     1       1.295  -6.237   3.791  0.00  0.00    +0.030 A 
ATOM     14  C   UNL     1       1.647  -5.401   4.834  0.00  0.00    +0.105 A 
ATOM     15  C   UNL     1       1.256  -4.075   4.823  0.00  0.00    +0.030 A 
ATOM     16  C   UNL     1       0.517  -3.580   3.766  0.00  0.00    +0.025 A 
BRANCH  14  17
ATOM     17  S   UNL     1       2.596  -6.027   6.180  0.00  0.00    +0.056 S 
ATOM     18  O   UNL     1       2.331  -5.182   7.291  0.00  0.00    -0.153 OA
ATOM     19  O   UNL     1       2.371  -7.429   6.219  0.00  0.00    -0.153 OA
BRANCH  17  20
ATOM     20  N   UNL     1       4.192  -5.814   5.795  0.00  0.00    -0.204 NA
ATOM     21  H   UNL     1       4.437  -5.407   4.949  0.00  0.00    +0.144 HD
ATOM     22  H   UNL     1       4.883  -6.098   6.414  0.00  0.00    +0.144 HD
ENDBRANCH  17  20
ENDBRANCH  14  17
ENDBRANCH   9  11
ENDBRANCH   1   7
BRANCH   1  23
ATOM     23  C   UNL     1      -0.435  -2.652  -1.258  0.00  0.00    +0.065 C 
BRANCH  23  24
ATOM     24  C   UNL     1      -1.237  -2.255  -2.471  0.00  0.00    -0.039 C 
ATOM     25  C   UNL     1      -1.056  -1.158  -3.242  0.00  0.00    -0.001 A 
ATOM     26  C   UNL     1      -0.097  -0.050  -3.184  0.00  0.00    +0.010 A 
ATOM     27  C   UNL     1      -0.166   0.927  -4.117  0.00  0.00    +0.001 A 
ATOM     28  C   UNL     1      -1.129   0.907  -5.135  0.00  0.00    +0.002 A 
ATOM     29  C   UNL     1      -2.044  -0.078  -5.254  0.00  0.00    +0.026 A 
ATOM     30  C   UNL     1      -2.063  -1.157  -4.327  0.00  0.00    +0.043 A 
ATOM     31  N   UNL     1      -2.837  -2.211  -4.231  0.00  0.00    -0.380 N 
ATOM     32  C   UNL     1      -2.403  -3.005  -3.075  0.00  0.00    +0.144 C 
ATOM     33  H   UNL     1      -3.570  -2.431  -4.826  0.00  0.00    +0.160 HD
ENDBRANCH  23  24
ENDBRANCH   1  23
TORSDOF 7
