REMARK  Name = ZINC41183968
REMARK  3 active torsions:
REMARK  status: ('A' for Active; 'I' for Inactive)
REMARK    1  A    between atoms: C_3  and  C_8
REMARK    2  A    between atoms: C_8  and  C_10
REMARK    3  A    between atoms: C_8  and  N_19
REMARK                            x       y       z     vdW  Elec       q    Type
REMARK                         _______ _______ _______ _____ _____    ______ ____
ROOT
ATOM      1  C   UNL     1       3.672   2.183  -0.022  0.00  0.00    +0.138 C 
ENDROOT
BRANCH   1   2
ATOM      2  C   UNL     1       4.244   2.221   1.372  0.00  0.00    +0.100 A 
ATOM      3  N   UNL     1       4.849   1.265   2.029  0.00  0.00    -0.247 NA
ATOM      4  C   UNL     1       5.308   1.436   3.263  0.00  0.00    +0.052 A 
ATOM      5  C   UNL     1       5.097   2.675   3.783  0.00  0.00    +0.013 A 
ATOM      6  S   UNL     1       4.265   3.508   2.460  0.00  0.00    -0.075 S 
ATOM      7  C   UNL     1       5.487   3.175   5.131  0.00  0.00    +0.044 C 
ATOM      8  C   UNL     1       5.849   1.964   6.006  0.00  0.00    +0.006 C 
ATOM      9  C   UNL     1       6.786   1.046   5.216  0.00  0.00    +0.006 C 
ATOM     10  C   UNL     1       6.021   0.366   4.078  0.00  0.00    +0.056 C 
ENDBRANCH   1   2
BRANCH   1  13
ATOM     11  C   UNL     1      -0.017   1.378   0.010  0.00  0.00    +0.001 A 
ATOM     12  C   UNL     1       1.171   2.086   0.002  0.00  0.00    +0.005 A 
ATOM     13  C   UNL     1       2.378   1.411  -0.013  0.00  0.00    -0.023 A 
ATOM     14  C   UNL     1       2.397   0.029  -0.022  0.00  0.00    +0.020 A 
ATOM     15  C   UNL     1       1.210  -0.679  -0.014  0.00  0.00    +0.018 A 
ATOM     16  C   UNL     1       0.002  -0.004   0.002  0.00  0.00    +0.015 A 
ATOM     17 BR   UNL     1       1.236  -2.570  -0.025  0.00  0.00    -0.050 Br
ENDBRANCH   1  13
BRANCH   1  18
ATOM     18  N   UNL     1       4.627   1.528  -0.926  0.00  0.00    -0.318 NA
ATOM     19  H   UNL     1       5.480   2.062  -0.999  0.00  0.00    +0.119 HD
ATOM     20  H   UNL     1       4.816   0.583  -0.628  0.00  0.00    +0.119 HD
ENDBRANCH   1  18
TORSDOF 3
