REMARK  Name = ZINC66061858
REMARK  15 active torsions:
REMARK  status: ('A' for Active; 'I' for Inactive)
REMARK    1  A    between atoms: C_1  and  C_2
REMARK    2  A    between atoms: C_2  and  C_3
REMARK    3  A    between atoms: C_3  and  C_5
REMARK    4  A    between atoms: C_3  and  N_6
REMARK    5  A    between atoms: C_7  and  C_9
REMARK    6  A    between atoms: C_13  and  N_15
REMARK    7  A    between atoms: C_16  and  C_18
REMARK    8  A    between atoms: C_18  and  N_19
REMARK    9  A    between atoms: N_19  and  C_20
REMARK   10  A    between atoms: C_24  and  O_26
REMARK   11  A    between atoms: O_26  and  C_27
REMARK   12  A    between atoms: C_27  and  C_28
REMARK   13  A    between atoms: C_28  and  C_29
REMARK   14  A    between atoms: C_29  and  C_30
REMARK   15  A    between atoms: C_29  and  C_31
REMARK                            x       y       z     vdW  Elec       q    Type
REMARK                         _______ _______ _______ _____ _____    ______ ____
ROOT
ATOM      1  N   UNL     1       7.123   1.085   4.497  0.00  0.00    -0.284 N 
ATOM      2  C   UNL     1       8.440   1.361   4.420  0.00  0.00    +0.234 C 
ATOM      3  O   UNL     1       8.951   1.585   3.343  0.00  0.00    -0.274 OA
ATOM      4  H   UNL     1       6.699   0.982   5.363  0.00  0.00    +0.155 HD
ENDROOT
BRANCH   1   9
ATOM      5  C   UNL     1       6.191   0.281   1.022  0.00  0.00    +0.038 A 
ATOM      6  C   UNL     1       4.854   0.682   1.014  0.00  0.00    +0.013 A 
ATOM      7  C   UNL     1       4.285   1.210   2.156  0.00  0.00    +0.003 A 
ATOM      8  C   UNL     1       5.036   1.344   3.309  0.00  0.00    +0.023 A 
ATOM      9  C   UNL     1       6.368   0.947   3.327  0.00  0.00    +0.034 A 
ATOM     10  C   UNL     1       6.946   0.410   2.187  0.00  0.00    +0.036 A 
BRANCH   5  12
ATOM     11  N   UNL     1       6.070  -0.410  -1.324  0.00  0.00    -0.309 N 
ATOM     12  C   UNL     1       6.802  -0.285  -0.199  0.00  0.00    +0.244 C 
ATOM     13  O   UNL     1       7.965  -0.639  -0.189  0.00  0.00    -0.270 OA
ATOM     14  H   UNL     1       5.142  -0.128  -1.332  0.00  0.00    +0.149 HD
BRANCH  11  15
ATOM     15  C   UNL     1       6.676  -0.971  -2.534  0.00  0.00    +0.070 C 
ATOM     16  C   UNL     1       7.400   0.137  -3.303  0.00  0.00    +0.028 C 
BRANCH  15  18
ATOM     17  C   UNL     1       4.944  -2.764  -2.698  0.00  0.00    +0.005 C 
ATOM     18  C   UNL     1       5.584  -1.575  -3.418  0.00  0.00    +0.018 C 
ENDBRANCH  15  18
ENDBRANCH  11  15
ENDBRANCH   5  12
ENDBRANCH   1   9
BRANCH   2  19
ATOM     19  C   UNL     1       9.278   1.392   5.673  0.00  0.00    +0.198 C 
BRANCH  19  20
ATOM     20  N   UNL     1      10.664   1.712   5.325  0.00  0.00    -0.335 N 
ATOM     21  H   UNL     1      10.909   1.865   4.399  0.00  0.00    +0.147 HD
BRANCH  20  22
ATOM     22  C   UNL     1      11.633   1.798   6.327  0.00  0.00    +0.031 A 
ATOM     23  C   UNL     1      11.285   1.573   7.653  0.00  0.00    +0.023 A 
ATOM     24  C   UNL     1      12.243   1.658   8.644  0.00  0.00    +0.005 A 
ATOM     25  C   UNL     1      13.551   1.965   8.319  0.00  0.00    +0.046 A 
ATOM     26  C   UNL     1      13.906   2.190   6.996  0.00  0.00    +0.122 A 
ATOM     27  C   UNL     1      12.947   2.101   5.998  0.00  0.00    +0.068 A 
BRANCH  26  28
ATOM     28  O   UNL     1      15.192   2.492   6.679  0.00  0.00    -0.492 OA
BRANCH  28  29
ATOM     29  C   UNL     1      16.127   2.561   7.757  0.00  0.00    +0.229 C 
BRANCH  29  30
ATOM     30  C   UNL     1      17.512   2.910   7.209  0.00  0.00    +0.044 C 
BRANCH  30  31
ATOM     31  C   UNL     1      18.514   2.985   8.364  0.00  0.00    -0.014 C 
ATOM     32  C   UNL     1      18.666   1.600   8.997  0.00  0.00    +0.007 C 
ATOM     33  C   UNL     1      19.870   3.454   7.833  0.00  0.00    +0.007 C 
ENDBRANCH  30  31
ENDBRANCH  29  30
ENDBRANCH  28  29
ENDBRANCH  26  28
ENDBRANCH  20  22
ENDBRANCH  19  20
ENDBRANCH   2  19
TORSDOF 11
