REMARK  Name = ZINC47519839
REMARK  8 active torsions:
REMARK  status: ('A' for Active; 'I' for Inactive)
REMARK    1  A    between atoms: C_1  and  C_2
REMARK    2  A    between atoms: C_6  and  N_15
REMARK    3  A    between atoms: C_7  and  C_8
REMARK    4  A    between atoms: N_18  and  C_19
REMARK    5  A    between atoms: N_18  and  C_20
REMARK    6  A    between atoms: C_20  and  C_22
REMARK    7  A    between atoms: C_20  and  C_23
REMARK    8  A    between atoms: C_26  and  C_28
REMARK                            x       y       z     vdW  Elec       q    Type
REMARK                         _______ _______ _______ _____ _____    ______ ____
ROOT
ATOM      1  C   UNL     1      -0.575   1.906   0.911  0.00  0.00    +0.044 C 
ATOM      2  C   UNL     1      -0.423   0.423   0.689  0.00  0.00    -0.037 A 
ATOM      3  C   UNL     1      -0.359  -0.079  -0.592  0.00  0.00    +0.004 A 
ATOM      4  C   UNL     1      -0.220  -1.441  -0.803  0.00  0.00    +0.002 A 
ATOM      5  C   UNL     1      -0.144  -2.310   0.267  0.00  0.00    +0.024 A 
ATOM      6  C   UNL     1      -0.206  -1.822   1.565  0.00  0.00    +0.047 A 
ATOM      7  C   UNL     1      -0.342  -0.442   1.782  0.00  0.00    +0.061 A 
ENDROOT
BRANCH   7   8
ATOM      8  C   UNL     1      -0.403   0.090   3.157  0.00  0.00    +0.249 C 
ATOM      9  O   UNL     1      -1.476   0.203   3.717  0.00  0.00    -0.270 OA
ATOM     10  N   UNL     1       0.730   0.451   3.791  0.00  0.00    -0.297 N 
ATOM     11  C   UNL     1       2.087   0.373   3.232  0.00  0.00    +0.108 C 
ATOM     12  C   UNL     1       3.061   0.866   4.322  0.00  0.00    +0.020 C 
ATOM     13  C   UNL     1       2.252   0.659   5.630  0.00  0.00    +0.020 C 
ATOM     14  C   UNL     1       0.813   0.995   5.159  0.00  0.00    +0.108 C 
ENDBRANCH   7   8
BRANCH   6  15
ATOM     15  N   UNL     1      -0.130  -2.696   2.646  0.00  0.00    -0.269 N 
ATOM     16  C   UNL     1       0.476  -3.892   2.505  0.00  0.00    +0.307 C 
ATOM     17  O   UNL     1       1.045  -4.165   1.466  0.00  0.00    -0.252 OA
ATOM     18  N   UNL     1       0.452  -4.783   3.515  0.00  0.00    -0.281 N 
ATOM     19  C   UNL     1      -0.233  -4.453   4.767  0.00  0.00    +0.134 C 
ATOM     20  H   UNL     1      -0.513  -2.445   3.501  0.00  0.00    +0.156 HD
BRANCH  18  21
ATOM     21  C   UNL     1       1.111  -6.082   3.361  0.00  0.00    +0.111 C 
ATOM     22  C   UNL     1       0.118  -7.200   3.688  0.00  0.00    +0.034 C 
BRANCH  21  23
ATOM     23  C   UNL     1       2.286  -6.164   4.302  0.00  0.00    +0.010 A 
ATOM     24  C   UNL     1       3.547  -6.598   4.057  0.00  0.00    +0.013 A 
ATOM     25  C   UNL     1       4.472  -6.583   5.083  0.00  0.00    +0.011 A 
ATOM     26  C   UNL     1       4.092  -6.134   6.304  0.00  0.00    -0.013 A 
ATOM     27  S   UNL     1       2.381  -5.707   6.024  0.00  0.00    -0.097 S 
ATOM     28  C   UNL     1       4.904  -6.019   7.569  0.00  0.00    +0.051 C 
ENDBRANCH  21  23
ENDBRANCH  18  21
ENDBRANCH   6  15
TORSDOF 4
