REMARK  Name = ZINC13319745
REMARK  8 active torsions:
REMARK  status: ('A' for Active; 'I' for Inactive)
REMARK    1  A    between atoms: C_2  and  C_3
REMARK    2  A    between atoms: C_3  and  N_4
REMARK    3  A    between atoms: C_10  and  C_28
REMARK    4  A    between atoms: C_14  and  S_15
REMARK    5  A    between atoms: S_15  and  C_16
REMARK    6  A    between atoms: C_16  and  C_17
REMARK    7  A    between atoms: N_19  and  C_20
REMARK    8  A    between atoms: C_23  and  C_26
REMARK                            x       y       z     vdW  Elec       q    Type
REMARK                         _______ _______ _______ _____ _____    ______ ____
ROOT
ATOM      1  N   UNL     1      -1.731   1.070  -1.250  0.00  0.00    -0.283 N 
ATOM      2  C   UNL     1      -2.589   0.040  -1.069  0.00  0.00    +0.263 A 
ATOM      3  O   UNL     1      -2.574  -0.622  -0.048  0.00  0.00    -0.267 OA
ATOM      4  C   UNL     1      -3.541  -0.252  -2.153  0.00  0.00    +0.065 A 
ATOM      5  C   UNL     1      -4.463  -1.294  -2.058  0.00  0.00    +0.016 A 
ATOM      6  C   UNL     1      -5.329  -1.533  -3.086  0.00  0.00    +0.016 A 
ATOM      7  C   UNL     1      -5.302  -0.738  -4.239  0.00  0.00    +0.065 A 
ATOM      8  C   UNL     1      -4.393   0.305  -4.356  0.00  0.00    +0.043 A 
ATOM      9  C   UNL     1      -3.501   0.559  -3.310  0.00  0.00    +0.080 A 
ATOM     10  N   UNL     1      -2.597   1.564  -3.380  0.00  0.00    -0.223 NA
ATOM     11  C   UNL     1      -1.763   1.807  -2.399  0.00  0.00    +0.173 A 
ENDROOT
BRANCH   7  12
ATOM     12  C   UNL     1      -6.250  -1.013  -5.342  0.00  0.00    +0.387 C 
ATOM     13  O   UNL     1      -6.231  -0.328  -6.344  0.00  0.00    -0.241 OA
ATOM     14  O   UNL     1      -7.134  -2.024  -5.234  0.00  0.00    -0.241 OA
ENDBRANCH   7  12
BRANCH   1  15
ATOM     15  C   UNL     1      -0.763   1.402  -0.201  0.00  0.00    +0.154 C 
BRANCH  15  17
ATOM     16  C   UNL     1       1.652   1.262  -0.527  0.00  0.00    +0.005 C 
ATOM     17  C   UNL     1       0.510   0.629  -0.429  0.00  0.00    -0.013 C 
ENDBRANCH  15  17
ENDBRANCH   1  15
BRANCH  11  18
ATOM     18  S   UNL     1      -0.626   3.141  -2.573  0.00  0.00    -0.078 S 
BRANCH  18  19
ATOM     19  C   UNL     1      -1.095   3.741  -4.215  0.00  0.00    +0.173 C 
BRANCH  19  20
ATOM     20  C   UNL     1      -0.229   4.918  -4.587  0.00  0.00    +0.227 C 
ATOM     21  O   UNL     1       0.621   5.311  -3.817  0.00  0.00    -0.275 OA
ATOM     22  N   UNL     1      -0.400   5.532  -5.774  0.00  0.00    -0.285 N 
ATOM     23  H   UNL     1      -1.026   5.171  -6.421  0.00  0.00    +0.155 HD
BRANCH  22  24
ATOM     24  C   UNL     1       0.324   6.685  -6.072  0.00  0.00    +0.033 A 
ATOM     25  C   UNL     1       0.643   7.586  -5.060  0.00  0.00    +0.024 A 
ATOM     26  C   UNL     1       1.361   8.723  -5.351  0.00  0.00    +0.017 A 
ATOM     27  C   UNL     1       1.761   8.979  -6.665  0.00  0.00    +0.063 A 
ATOM     28  C   UNL     1       1.434   8.075  -7.681  0.00  0.00    +0.017 A 
ATOM     29  C   UNL     1       0.720   6.937  -7.382  0.00  0.00    +0.024 A 
BRANCH  27  30
ATOM     30  C   UNL     1       2.526  10.200  -6.981  0.00  0.00    +0.387 C 
ATOM     31  O   UNL     1       2.873  10.420  -8.124  0.00  0.00    -0.241 OA
ATOM     32  O   UNL     1       2.841  11.070  -6.002  0.00  0.00    -0.241 OA
ENDBRANCH  27  30
ENDBRANCH  22  24
ENDBRANCH  19  20
ENDBRANCH  18  19
ENDBRANCH  11  18
TORSDOF 8
