REMARK  Name = ZINC59159644
REMARK  3 active torsions:
REMARK  status: ('A' for Active; 'I' for Inactive)
REMARK    1  A    between atoms: C_6  and  C_7
REMARK    2  A    between atoms: C_7  and  N_8
REMARK    3  A    between atoms: N_16  and  N_17
REMARK                            x       y       z     vdW  Elec       q    Type
REMARK                         _______ _______ _______ _____ _____    ______ ____
ROOT
ATOM      1  N   UNL     1      -1.534  -0.886  -1.469  0.00  0.00    -0.261 N 
ATOM      2  C   UNL     1      -2.535  -0.153  -2.098  0.00  0.00    +0.046 A 
ATOM      3  C   UNL     1      -3.210   1.002  -1.719  0.00  0.00    +0.025 A 
ATOM      4  C   UNL     1      -4.181   1.538  -2.540  0.00  0.00    +0.017 A 
ATOM      5  C   UNL     1      -4.496   0.936  -3.747  0.00  0.00    +0.019 A 
ATOM      6  C   UNL     1      -3.835  -0.212  -4.140  0.00  0.00    +0.027 A 
ATOM      7  C   UNL     1      -2.856  -0.759  -3.319  0.00  0.00    +0.030 A 
ATOM      8  C   UNL     1      -1.981  -1.949  -3.439  0.00  0.00    +0.156 C 
ATOM      9  N   UNL     1      -1.939  -2.812  -4.423  0.00  0.00    -0.153 NA
ATOM     10  C   UNL     1      -1.163  -1.946  -2.207  0.00  0.00    +0.272 C 
ATOM     11  O   UNL     1      -0.308  -2.761  -1.913  0.00  0.00    -0.268 OA
ATOM     12 BR   UNL     1      -5.830   1.686  -4.857  0.00  0.00    -0.050 Br
ENDROOT
BRANCH   9  13
ATOM     13  N   UNL     1      -2.688  -2.587  -5.585  0.00  0.00    -0.126 N 
ATOM     14  C   UNL     1      -2.465  -1.606  -6.479  0.00  0.00    +0.366 A 
ATOM     15  O   UNL     1      -1.584  -0.772  -6.414  0.00  0.00    -0.243 OA
ATOM     16  N   UNL     1      -3.385  -1.708  -7.460  0.00  0.00    -0.246 N 
ATOM     17  H   UNL     1      -3.465  -1.133  -8.237  0.00  0.00    +0.192 HD
ATOM     18  N   UNL     1      -4.204  -2.802  -7.143  0.00  0.00    -0.246 N 
ATOM     19  H   UNL     1      -4.958  -3.127  -7.660  0.00  0.00    +0.192 HD
ATOM     20  C   UNL     1      -3.743  -3.321  -5.987  0.00  0.00    +0.366 A 
ATOM     21  O   UNL     1      -4.202  -4.284  -5.406  0.00  0.00    -0.243 OA
ENDBRANCH   9  13
BRANCH   1  22
ATOM     22  C   UNL     1      -0.952  -0.542  -0.169  0.00  0.00    +0.149 C 
BRANCH  22  28
ATOM     23  C   UNL     1       0.048   1.741  -0.395  0.00  0.00    +0.008 A 
ATOM     24  C   UNL     1       1.131   2.579  -0.582  0.00  0.00    +0.038 A 
ATOM     25  C   UNL     1       2.398   2.046  -0.748  0.00  0.00    +0.123 A 
ATOM     26  C   UNL     1       2.579   0.673  -0.726  0.00  0.00    +0.038 A 
ATOM     27  C   UNL     1       1.494  -0.163  -0.538  0.00  0.00    +0.008 A 
ATOM     28  C   UNL     1       0.230   0.371  -0.373  0.00  0.00    -0.030 A 
ATOM     29  F   UNL     1       3.457   2.864  -0.931  0.00  0.00    -0.205 F 
ENDBRANCH  22  28
ENDBRANCH   1  22
TORSDOF 3
