REMARK  Name = ZINC40649310
REMARK  3 active torsions:
REMARK  status: ('A' for Active; 'I' for Inactive)
REMARK    1  A    between atoms: C_14  and  N_27
REMARK    2  A    between atoms: C_15  and  N_19
REMARK    3  A    between atoms: N_19  and  C_20
REMARK                            x       y       z     vdW  Elec       q    Type
REMARK                         _______ _______ _______ _____ _____    ______ ____
ROOT
ATOM      1  C   UNL     1       2.547   1.405  -0.048  0.00  0.00    +0.005 A 
ATOM      2  C   UNL     1       1.319   2.054  -0.053  0.00  0.00    +0.018 A 
ATOM      3  C   UNL     1       0.159   1.306  -0.058  0.00  0.00    +0.084 A 
ATOM      4  N   UNL     1       0.204  -0.013  -0.058  0.00  0.00    -0.350 N 
ATOM      5  C   UNL     1       1.355  -0.668  -0.052  0.00  0.00    +0.099 A 
ATOM      6  C   UNL     1       2.563   0.022  -0.048  0.00  0.00    +0.042 A 
ATOM      7  N   UNL     1       1.356  -2.058  -0.052  0.00  0.00    -0.314 N 
ATOM      8  C   UNL     1       2.614  -2.805  -0.189  0.00  0.00    +0.125 C 
ATOM      9  C   UNL     1       2.744  -3.767   0.998  0.00  0.00    +0.125 C 
ATOM     10  N   UNL     1       1.488  -4.516   1.137  0.00  0.00    -0.310 N 
ATOM     11  C   UNL     1       0.229  -3.769   1.274  0.00  0.00    +0.125 C 
ATOM     12  C   UNL     1       0.099  -2.807   0.092  0.00  0.00    +0.125 C 
ATOM     13  C   UNL     1       1.488  -5.902   1.137  0.00  0.00    +0.157 A 
ATOM     14  C   UNL     1       1.518  -6.608   2.337  0.00  0.00    +0.206 A 
ATOM     15  C   UNL     1       1.517  -7.998   2.283  0.00  0.00    +0.159 A 
ATOM     16  N   UNL     1       1.488  -8.599   1.095  0.00  0.00    -0.218 NA
ATOM     17  C   UNL     1       1.462  -7.896  -0.018  0.00  0.00    +0.225 A 
ATOM     18  N   UNL     1       1.456  -6.578  -0.009  0.00  0.00    -0.218 NA
ATOM     19  H   UNL     1      -0.626  -0.514  -0.061  0.00  0.00    +0.166 HD
ENDROOT
BRANCH  14  20
ATOM     20  N   UNL     1       1.549  -5.897   3.635  0.00  0.00    +0.063 N 
ATOM     21  O   UNL     1       0.520  -5.686   4.234  0.00  0.00    -0.126 OA
ATOM     22  O   UNL     1       2.603  -5.528   4.097  0.00  0.00    -0.126 OA
ENDBRANCH  14  20
BRANCH  15  23
ATOM     23  N   UNL     1       1.545  -8.747   3.451  0.00  0.00    -0.297 N 
ATOM     24  H   UNL     1       1.615  -8.303   4.310  0.00  0.00    +0.154 HD
BRANCH  23  25
ATOM     25  C   UNL     1       1.474 -10.142   3.388  0.00  0.00    +0.032 A 
ATOM     26  C   UNL     1       0.796 -10.849   4.373  0.00  0.00    +0.024 A 
ATOM     27  C   UNL     1       0.727 -12.227   4.308  0.00  0.00    +0.016 A 
ATOM     28  C   UNL     1       1.332 -12.903   3.264  0.00  0.00    +0.013 A 
ATOM     29  C   UNL     1       2.009 -12.201   2.282  0.00  0.00    +0.016 A 
ATOM     30  C   UNL     1       2.076 -10.823   2.338  0.00  0.00    +0.024 A 
ATOM     31  I   UNL     1       1.224 -14.993   3.170  0.00  0.00    -0.044 I 
ENDBRANCH  23  25
ENDBRANCH  15  23
TORSDOF 3
