REMARK  Name = ZINC23373996
REMARK  9 active torsions:
REMARK  status: ('A' for Active; 'I' for Inactive)
REMARK    1  A    between atoms: C_1  and  C_2
REMARK    2  A    between atoms: C_2  and  C_3
REMARK    3  A    between atoms: C_2  and  N_4
REMARK    4  A    between atoms: N_4  and  C_5
REMARK    5  A    between atoms: C_8  and  C_20
REMARK    6  A    between atoms: N_10  and  C_12
REMARK    7  A    between atoms: C_12  and  C_13
REMARK    8  A    between atoms: N_25  and  C_28
REMARK    9  A    between atoms: C_32  and  C_34
REMARK                            x       y       z     vdW  Elec       q    Type
REMARK                         _______ _______ _______ _____ _____    ______ ____
ROOT
ATOM      1  C   UNL     1      -2.033  -1.510  -0.482  0.00  0.00    +0.036 C 
ATOM      2  C   UNL     1      -2.187  -1.403  -2.022  0.00  0.00    +0.010 C 
ATOM      3  C   UNL     1      -2.662  -2.816  -2.422  0.00  0.00    +0.021 C 
ATOM      4  N   UNL     1      -3.264  -3.430  -1.224  0.00  0.00    +0.391 N 
ATOM      5  C   UNL     1      -3.203  -2.455  -0.114  0.00  0.00    -0.059 C 
ATOM      6  H   UNL     1      -2.750  -4.261  -0.974  0.00  0.00    -0.080 HD
ENDROOT
BRANCH   3   7
ATOM      7  C   UNL     1      -1.489  -3.638  -2.889  0.00  0.00    +0.202 C 
ATOM      8  O   UNL     1      -1.183  -4.650  -2.295  0.00  0.00    -0.277 OA
ATOM      9  N   UNL     1      -0.779  -3.249  -3.967  0.00  0.00    -0.300 N 
ATOM     10  C   UNL     1      -1.135  -2.021  -4.693  0.00  0.00    +0.126 C 
ATOM     11  C   UNL     1       0.100  -1.114  -4.756  0.00  0.00    +0.124 C 
ATOM     12  N   UNL     1       1.243  -1.909  -5.226  0.00  0.00    -0.327 N 
ATOM     13  C   UNL     1       1.599  -3.136  -4.500  0.00  0.00    +0.124 C 
ATOM     14  C   UNL     1       0.367  -4.040  -4.434  0.00  0.00    +0.126 C 
BRANCH  12  15
ATOM     15  C   UNL     1       1.978  -1.505  -6.343  0.00  0.00    +0.030 A 
ATOM     16  C   UNL     1       1.714  -0.281  -6.945  0.00  0.00    +0.023 A 
ATOM     17  C   UNL     1       2.443   0.115  -8.049  0.00  0.00    +0.002 A 
ATOM     18  C   UNL     1       3.435  -0.705  -8.555  0.00  0.00    +0.012 A 
ATOM     19  C   UNL     1       3.700  -1.924  -7.959  0.00  0.00    +0.057 A 
ATOM     20  C   UNL     1       2.979  -2.324  -6.851  0.00  0.00    +0.035 A 
BRANCH  19  21
ATOM     21  C   UNL     1       4.780  -2.815  -8.515  0.00  0.00    +0.417 C 
ATOM     22  F   UNL     1       5.369  -2.198  -9.625  0.00  0.00    -0.166 F 
ATOM     23  F   UNL     1       5.753  -3.036  -7.535  0.00  0.00    -0.166 F 
ATOM     24  F   UNL     1       4.223  -4.038  -8.903  0.00  0.00    -0.166 F 
ENDBRANCH  19  21
ENDBRANCH  12  15
ENDBRANCH   3   7
BRANCH   1  25
ATOM     25  N   UNL     1      -2.197  -0.196   0.155  0.00  0.00    -0.313 NA
ATOM     26  H   UNL     1      -2.631  -0.286   1.062  0.00  0.00    +0.122 HD
BRANCH  25  28
ATOM     27  C   UNL     1      -1.156   2.014   0.317  0.00  0.00    +0.023 C 
ATOM     28  C   UNL     1      -0.911   0.505   0.255  0.00  0.00    +0.048 C 
ATOM     29  C   UNL     1      -0.181   0.055   1.522  0.00  0.00    +0.023 C 
ENDBRANCH  25  28
ENDBRANCH   1  25
BRANCH   4  30
ATOM     30  C   UNL     1      -4.664  -3.781  -1.499  0.00  0.00    -0.040 C 
BRANCH  30  31
ATOM     31  C   UNL     1      -5.237  -4.523  -0.320  0.00  0.00    -0.046 A 
ATOM     32  C   UNL     1      -6.061  -3.868   0.576  0.00  0.00    +0.003 A 
ATOM     33  C   UNL     1      -6.587  -4.549   1.658  0.00  0.00    +0.000 A 
ATOM     34  C   UNL     1      -6.288  -5.886   1.845  0.00  0.00    +0.001 A 
ATOM     35  C   UNL     1      -5.463  -6.542   0.951  0.00  0.00    +0.020 A 
ATOM     36  C   UNL     1      -4.942  -5.862  -0.136  0.00  0.00    +0.042 A 
ATOM     37 CL   UNL     1      -3.911  -6.687  -1.263  0.00  0.00    -0.083 Cl
ENDBRANCH  30  31
ENDBRANCH   4  30
TORSDOF 7
