REMARK  Name = ZINC39159896
REMARK  8 active torsions:
REMARK  status: ('A' for Active; 'I' for Inactive)
REMARK    1  A    between atoms: C_1  and  C_2
REMARK    2  A    between atoms: C_2  and  N_3
REMARK    3  A    between atoms: C_10  and  O_35
REMARK    4  A    between atoms: C_12  and  C_16
REMARK    5  A    between atoms: N_18  and  N_19
REMARK    6  A    between atoms: C_20  and  C_21
REMARK    7  A    between atoms: C_20  and  C_22
REMARK    8  A    between atoms: C_24  and  O_34
REMARK                            x       y       z     vdW  Elec       q    Type
REMARK                         _______ _______ _______ _____ _____    ______ ____
ROOT
ATOM      1  C   UNL     1       0.839  -2.749   3.467  0.00  0.00    +0.247 C 
ATOM      2  O   UNL     1       1.930  -3.279   3.481  0.00  0.00    -0.273 OA
ATOM      3  N   UNL     1      -0.276  -3.502   3.378  0.00  0.00    -0.206 N 
ATOM      4  H   UNL     1      -1.148  -3.078   3.367  0.00  0.00    +0.177 HD
ENDROOT
BRANCH   1  13
ATOM      5  N   UNL     1       0.711  -0.489   1.189  0.00  0.00    -0.271 N 
ATOM      6  C   UNL     1       2.092  -0.696   1.136  0.00  0.00    +0.042 A 
ATOM      7  C   UNL     1       2.734  -0.822  -0.089  0.00  0.00    +0.024 A 
ATOM      8  C   UNL     1       4.099  -1.027  -0.134  0.00  0.00    +0.002 A 
ATOM      9  C   UNL     1       4.827  -1.107   1.040  0.00  0.00    +0.000 A 
ATOM     10  C   UNL     1       4.191  -0.982   2.261  0.00  0.00    +0.008 A 
ATOM     11  C   UNL     1       2.826  -0.777   2.312  0.00  0.00    +0.003 A 
ATOM     12  C   UNL     1       2.130  -0.641   3.641  0.00  0.00    +0.167 C 
ATOM     13  C   UNL     1       0.730  -1.248   3.549  0.00  0.00    +0.195 C 
ATOM     14  C   UNL     1       0.028  -0.728   2.324  0.00  0.00    +0.235 C 
ATOM     15  O   UNL     1      -1.167  -0.524   2.358  0.00  0.00    -0.274 OA
BRANCH   5  17
ATOM     16  C   UNL     1      -0.019   1.526   0.010  0.00  0.00    +0.025 C 
ATOM     17  C   UNL     1       0.002  -0.004   0.002  0.00  0.00    +0.110 C 
ENDBRANCH   5  17
BRANCH  12  18
ATOM     18  O   UNL     1       2.027   0.742   3.986  0.00  0.00    -0.386 OA
ATOM     19  H   UNL     1       2.880   1.192   4.063  0.00  0.00    +0.210 HD
ENDBRANCH  12  18
ENDBRANCH   1  13
BRANCH   3  20
ATOM     20  N   UNL     1      -0.174  -4.897   3.301  0.00  0.00    -0.188 NA
ATOM     21  C   UNL     1      -1.232  -5.612   3.217  0.00  0.00    +0.053 C 
ATOM     22  C   UNL     1      -2.587  -4.954   3.199  0.00  0.00    +0.063 C 
BRANCH  21  23
ATOM     23  C   UNL     1      -1.123  -7.113   3.134  0.00  0.00    +0.186 C 
ATOM     24  C   UNL     1       0.323  -7.489   3.393  0.00  0.00    +0.120 C 
ATOM     25  C   UNL     1       0.980  -8.212   2.394  0.00  0.00    +0.035 A 
ATOM     26  C   UNL     1       2.325  -8.603   2.554  0.00  0.00    +0.013 A 
ATOM     27  C   UNL     1       2.941  -9.307   1.566  0.00  0.00    +0.001 A 
ATOM     28  C   UNL     1       2.270  -9.651   0.397  0.00  0.00    +0.002 A 
ATOM     29  C   UNL     1       0.970  -9.302   0.186  0.00  0.00    +0.024 A 
ATOM     30  C   UNL     1       0.271  -8.574   1.164  0.00  0.00    +0.044 A 
ATOM     31  N   UNL     1      -1.007  -8.232   0.954  0.00  0.00    -0.284 N 
ATOM     32  C   UNL     1      -1.729  -7.551   1.820  0.00  0.00    +0.233 C 
ATOM     33  O   UNL     1      -2.886  -7.275   1.562  0.00  0.00    -0.274 OA
ATOM     34  H   UNL     1      -1.423  -8.500   0.120  0.00  0.00    +0.155 HD
BRANCH  24  35
ATOM     35  O   UNL     1       0.943  -7.144   4.527  0.00  0.00    -0.509 OA
ATOM     36  H   UNL     1       1.862  -7.439   4.579  0.00  0.00    +0.292 HD
ENDBRANCH  24  35
ENDBRANCH  21  23
ENDBRANCH   3  20
TORSDOF 6
