REMARK  Name = ZINC03171757
REMARK  6 active torsions:
REMARK  status: ('A' for Active; 'I' for Inactive)
REMARK    1  A    between atoms: C_1  and  N_48
REMARK    2  A    between atoms: N_4  and  N_7
REMARK    3  A    between atoms: C_8  and  C_10
REMARK    4  A    between atoms: C_14  and  S_16
REMARK    5  A    between atoms: S_16  and  N_19
REMARK    6  A    between atoms: N_19  and  C_20
REMARK                            x       y       z     vdW  Elec       q    Type
REMARK                         _______ _______ _______ _____ _____    ______ ____
ROOT
ATOM      1  C   UNL     1      -1.371   2.481   0.071  0.00  0.00    +0.040 A 
ATOM      2  C   UNL     1      -1.541   3.856   0.245  0.00  0.00    +0.014 A 
ATOM      3  C   UNL     1      -2.811   4.383   0.347  0.00  0.00    +0.023 A 
ATOM      4  C   UNL     1      -3.917   3.551   0.288  0.00  0.00    +0.068 A 
ATOM      5  C   UNL     1      -3.754   2.186   0.121  0.00  0.00    +0.127 A 
ATOM      6  C   UNL     1      -2.489   1.647   0.012  0.00  0.00    +0.043 A 
ATOM      7 CL   UNL     1      -5.512   4.221   0.424  0.00  0.00    -0.082 Cl
ENDROOT
BRANCH   1   9
ATOM      8  N   UNL     1       1.064   2.718   0.007  0.00  0.00    -0.244 N 
ATOM      9  C   UNL     1      -0.013   1.910  -0.044  0.00  0.00    +0.258 C 
ATOM     10  O   UNL     1       0.132   0.712  -0.191  0.00  0.00    -0.269 OA
ATOM     11  H   UNL     1       0.948   3.674   0.124  0.00  0.00    +0.170 HD
BRANCH   8  15
ATOM     12  C   UNL     1       6.514   1.723  -0.288  0.00  0.00    -0.096 C 
ATOM     13  C   UNL     1       4.393   2.082  -1.401  0.00  0.00    -0.062 C 
ATOM     14  C   UNL     1       3.025   2.754  -1.264  0.00  0.00    +0.087 C 
ATOM     15  N   UNL     1       2.320   2.191  -0.105  0.00  0.00    -0.230 NA
ATOM     16  C   UNL     1       3.090   2.399   1.129  0.00  0.00    +0.087 C 
ATOM     17  C   UNL     1       4.458   1.727   0.992  0.00  0.00    -0.062 C 
ATOM     18  N   UNL     1       5.166   2.317  -0.164  0.00  0.00    +0.380 N 
ATOM     19  H   UNL     1       5.260   3.329  -0.016  0.00  0.00    -0.082 HD
ENDBRANCH   8  15
ENDBRANCH   1   9
BRANCH   5  20
ATOM     20  S   UNL     1      -5.167   1.135   0.047  0.00  0.00    +0.074 S 
ATOM     21  O   UNL     1      -6.060   1.721  -0.890  0.00  0.00    -0.150 OA
ATOM     22  O   UNL     1      -4.678  -0.192  -0.093  0.00  0.00    -0.150 OA
BRANCH  20  23
ATOM     23  N   UNL     1      -5.912   1.211   1.523  0.00  0.00    -0.216 N 
ATOM     24  H   UNL     1      -6.820   1.545   1.591  0.00  0.00    +0.174 HD
BRANCH  23  25
ATOM     25  C   UNL     1      -5.233   0.795   2.671  0.00  0.00    +0.048 A 
ATOM     26  C   UNL     1      -4.530  -0.403   2.668  0.00  0.00    +0.026 A 
ATOM     27  C   UNL     1      -3.855  -0.810   3.802  0.00  0.00    +0.022 A 
ATOM     28  C   UNL     1      -3.888  -0.031   4.945  0.00  0.00    +0.041 A 
ATOM     29  C   UNL     1      -4.593   1.160   4.953  0.00  0.00    +0.022 A 
ATOM     30  C   UNL     1      -5.265   1.575   3.820  0.00  0.00    +0.026 A 
ATOM     31 CL   UNL     1      -3.045  -0.548   6.371  0.00  0.00    -0.084 Cl
ENDBRANCH  23  25
ENDBRANCH  20  23
ENDBRANCH   5  20
TORSDOF 5
