REMARK  Name = ZINC05302759
REMARK  4 active torsions:
REMARK  status: ('A' for Active; 'I' for Inactive)
REMARK    1  A    between atoms: C_1  and  C_2
REMARK    2  A    between atoms: C_2  and  C_22
REMARK    3  A    between atoms: N_19  and  C_20
REMARK    4  A    between atoms: N_19  and  C_21
REMARK                            x       y       z     vdW  Elec       q    Type
REMARK                         _______ _______ _______ _____ _____    ______ ____
ROOT
ATOM      1  C   UNL     1       2.749   6.252  -2.154  0.00  0.00    +0.013 C 
ATOM      2  C   UNL     1       2.178   7.036  -0.971  0.00  0.00    -0.010 C 
ATOM      3  C   UNL     1       1.232   8.127  -1.483  0.00  0.00    +0.088 C 
ATOM      4  C   UNL     1       0.074   7.473  -2.185  0.00  0.00    +0.172 C 
ATOM      5  O   UNL     1      -0.503   8.075  -3.070  0.00  0.00    -0.291 OA
ATOM      6  C   UNL     1      -0.355   6.180  -1.840  0.00  0.00    +0.075 C 
ATOM      7  C   UNL     1       0.238   5.483  -0.841  0.00  0.00    +0.040 C 
ATOM      8  C   UNL     1       1.384   6.096  -0.064  0.00  0.00    +0.108 C 
ATOM      9 BR   UNL     1       2.565   4.668   0.593  0.00  0.00    -0.081 Br
ATOM     10  N   UNL     1      -0.158   4.230  -0.485  0.00  0.00    -0.311 N 
ATOM     11  C   UNL     1      -0.827   3.327  -1.306  0.00  0.00    +0.104 A 
ATOM     12  C   UNL     1      -0.761   1.954  -1.057  0.00  0.00    +0.146 A 
ATOM     13  N   UNL     1      -1.418   1.122  -1.864  0.00  0.00    -0.219 NA
ATOM     14  C   UNL     1      -2.131   1.575  -2.874  0.00  0.00    +0.224 A 
ATOM     15  N   UNL     1      -2.220   2.864  -3.144  0.00  0.00    -0.227 NA
ATOM     16  C   UNL     1      -1.587   3.757  -2.391  0.00  0.00    +0.128 A 
ATOM     17  S   UNL     1      -1.695   5.476  -2.751  0.00  0.00    -0.063 S 
ATOM     18  N   UNL     1      -0.018   1.465   0.010  0.00  0.00    -0.320 N 
ATOM     19  C   UNL     1      -0.876   0.753   0.966  0.00  0.00    +0.130 C 
ATOM     20  C   UNL     1       1.074   0.602  -0.461  0.00  0.00    +0.130 C 
ATOM     21  C   UNL     1       3.320   7.675  -0.178  0.00  0.00    +0.013 C 
ATOM     22  H   UNL     1       0.045   3.941   0.418  0.00  0.00    +0.152 HD
ENDROOT
TORSDOF 0
