REMARK  Name = ZINC39686706
REMARK  9 active torsions:
REMARK  status: ('A' for Active; 'I' for Inactive)
REMARK    1  A    between atoms: C_1  and  C_2
REMARK    2  A    between atoms: C_2  and  C_4
REMARK    3  A    between atoms: C_2  and  N_13
REMARK    4  A    between atoms: C_4  and  C_5
REMARK    5  A    between atoms: C_10  and  O_11
REMARK    6  A    between atoms: O_11  and  C_12
REMARK    7  A    between atoms: C_14  and  C_16
REMARK    8  A    between atoms: C_27  and  C_29
REMARK    9  A    between atoms: C_32  and  C_34
REMARK                            x       y       z     vdW  Elec       q    Type
REMARK                         _______ _______ _______ _____ _____    ______ ____
ROOT
ATOM      1  C   UNL     1      -4.132  -0.956  -0.583  0.00  0.00    +0.100 C 
ATOM      2  C   UNL     1      -3.841  -2.288   0.146  0.00  0.00    +0.121 C 
ATOM      3  N   UNL     1      -4.775  -3.261  -0.468  0.00  0.00    -0.294 N 
ATOM      4  C   UNL     1      -4.780  -2.911  -1.908  0.00  0.00    +0.115 C 
ATOM      5  C   UNL     1      -4.747  -1.370  -1.931  0.00  0.00    -0.004 C 
ATOM      6  C   UNL     1      -6.162  -0.814  -2.059  0.00  0.00    -0.010 C 
ATOM      7  C   UNL     1      -6.731  -1.190  -3.429  0.00  0.00    -0.082 C 
ATOM      8  N   UNL     1      -5.871  -0.642  -4.486  0.00  0.00    +0.379 N 
ATOM      9  C   UNL     1      -4.538  -1.252  -4.412  0.00  0.00    -0.082 C 
ATOM     10  C   UNL     1      -3.876  -0.878  -3.083  0.00  0.00    -0.010 C 
ATOM     11  C   UNL     1      -5.464  -4.244   0.146  0.00  0.00    +0.282 C 
ATOM     12  O   UNL     1      -6.125  -5.026  -0.512  0.00  0.00    -0.267 OA
ATOM     13  H   UNL     1      -6.280  -0.839  -5.386  0.00  0.00    -0.086 HD
ATOM     14  H   UNL     1      -5.790   0.356  -4.367  0.00  0.00    -0.086 HD
ENDROOT
BRANCH  11  15
ATOM     15  C   UNL     1      -5.418  -4.370   1.605  0.00  0.00    +0.190 A 
ATOM     16  C   UNL     1      -5.987  -5.382   2.347  0.00  0.00    +0.055 A 
ATOM     17  C   UNL     1      -5.700  -5.108   3.688  0.00  0.00    +0.051 A 
ATOM     18  C   UNL     1      -4.974  -3.952   3.716  0.00  0.00    +0.139 A 
ATOM     19  O   UNL     1      -4.806  -3.519   2.455  0.00  0.00    -0.450 OA
BRANCH  18  20
ATOM     20  C   UNL     1      -4.455  -3.290   4.929  0.00  0.00    +0.052 A 
ATOM     21  C   UNL     1      -5.325  -2.941   5.965  0.00  0.00    +0.014 A 
ATOM     22  C   UNL     1      -4.834  -2.323   7.095  0.00  0.00    +0.001 A 
ATOM     23  C   UNL     1      -3.482  -2.048   7.207  0.00  0.00    +0.003 A 
ATOM     24  C   UNL     1      -2.613  -2.390   6.187  0.00  0.00    +0.039 A 
ATOM     25  C   UNL     1      -3.089  -3.015   5.050  0.00  0.00    +0.134 A 
ATOM     26  F   UNL     1      -2.239  -3.354   4.056  0.00  0.00    -0.205 F 
ENDBRANCH  18  20
ENDBRANCH  11  15
BRANCH   1  28
ATOM     27  N   UNL     1      -2.874   1.158  -0.841  0.00  0.00    -0.312 N 
ATOM     28  C   UNL     1      -2.853  -0.189  -0.803  0.00  0.00    +0.218 C 
ATOM     29  O   UNL     1      -1.806  -0.784  -0.947  0.00  0.00    -0.275 OA
ATOM     30  H   UNL     1      -3.719   1.631  -0.798  0.00  0.00    +0.149 HD
BRANCH  27  32
ATOM     31  C   UNL     1      -1.266   2.104  -2.422  0.00  0.00    +0.028 C 
ATOM     32  C   UNL     1      -1.619   1.907  -0.946  0.00  0.00    +0.074 C 
BRANCH  32  33
ATOM     33  C   UNL     1      -1.782   3.272  -0.274  0.00  0.00    +0.060 C 
BRANCH  33  34
ATOM     34  C   UNL     1      -2.027   3.079   1.200  0.00  0.00    -0.004 A 
ATOM     35  C   UNL     1      -3.320   3.045   1.688  0.00  0.00    +0.007 A 
ATOM     36  C   UNL     1      -3.545   2.869   3.040  0.00  0.00    +0.000 A 
ATOM     37  C   UNL     1      -2.479   2.726   3.909  0.00  0.00    +0.004 A 
ATOM     38  C   UNL     1      -1.185   2.759   3.427  0.00  0.00    +0.046 A 
ATOM     39  C   UNL     1      -0.956   2.930   2.069  0.00  0.00    +0.123 A 
BRANCH  39  40
ATOM     40  O   UNL     1       0.316   2.957   1.591  0.00  0.00    -0.495 OA
ATOM     41  C   UNL     1       1.370   2.797   2.543  0.00  0.00    +0.277 C 
ENDBRANCH  39  40
ENDBRANCH  33  34
ENDBRANCH  32  33
ENDBRANCH  27  32
ENDBRANCH   1  28
TORSDOF 7
