REMARK  Name = ZINC39970797
REMARK  11 active torsions:
REMARK  status: ('A' for Active; 'I' for Inactive)
REMARK    1  A    between atoms: C_1  and  C_2
REMARK    2  A    between atoms: C_2  and  N_3
REMARK    3  A    between atoms: N_3  and  C_4
REMARK    4  A    between atoms: N_3  and  C_11
REMARK    5  A    between atoms: C_4  and  C_5
REMARK    6  A    between atoms: C_11  and  N_13
REMARK    7  A    between atoms: N_13  and  C_14
REMARK    8  A    between atoms: C_17  and  S_20
REMARK    9  A    between atoms: S_20  and  N_23
REMARK   10  A    between atoms: C_24  and  C_32
REMARK   11  A    between atoms: C_29  and  C_31
REMARK                            x       y       z     vdW  Elec       q    Type
REMARK                         _______ _______ _______ _____ _____    ______ ____
ROOT
ATOM      1  C   UNL     1      -2.416  -0.899  -2.986  0.00  0.00    +0.033 A 
ATOM      2  C   UNL     1      -1.837  -1.654  -3.998  0.00  0.00    +0.025 A 
ATOM      3  C   UNL     1      -2.527  -1.874  -5.174  0.00  0.00    +0.030 A 
ATOM      4  C   UNL     1      -3.792  -1.343  -5.345  0.00  0.00    +0.106 A 
ATOM      5  C   UNL     1      -4.372  -0.591  -4.339  0.00  0.00    +0.030 A 
ATOM      6  C   UNL     1      -3.690  -0.373  -3.159  0.00  0.00    +0.025 A 
ENDROOT
BRANCH   4   7
ATOM      7  S   UNL     1      -4.668  -1.624  -6.848  0.00  0.00    +0.061 S 
ATOM      8  O   UNL     1      -5.728  -0.678  -6.884  0.00  0.00    -0.153 OA
ATOM      9  O   UNL     1      -3.692  -1.714  -7.876  0.00  0.00    -0.153 OA
BRANCH   7  10
ATOM     10  N   UNL     1      -5.372  -3.119  -6.731  0.00  0.00    -0.171 NA
ATOM     11  C   UNL     1      -6.665  -3.287  -6.053  0.00  0.00    +0.077 C 
ATOM     12  C   UNL     1      -7.630  -4.005  -7.001  0.00  0.00    +0.020 C 
ATOM     13  C   UNL     1      -6.995  -5.313  -7.475  0.00  0.00    +0.003 C 
ATOM     14  C   UNL     1      -5.704  -5.008  -8.239  0.00  0.00    +0.020 C 
ATOM     15  C   UNL     1      -4.720  -4.301  -7.311  0.00  0.00    +0.077 C 
ATOM     16  C   UNL     1      -4.301  -5.256  -6.191  0.00  0.00    +0.026 C 
ATOM     17  C   UNL     1      -7.231  -1.915  -5.681  0.00  0.00    +0.026 C 
ENDBRANCH   7  10
ENDBRANCH   4   7
BRANCH   1  18
ATOM     18  N   UNL     1      -1.721  -0.675  -1.793  0.00  0.00    -0.297 N 
ATOM     19  H   UNL     1      -1.179  -1.382  -1.407  0.00  0.00    +0.154 HD
BRANCH  18  20
ATOM     20  C   UNL     1      -1.803   0.522  -1.180  0.00  0.00    +0.137 C 
ATOM     21  S   UNL     1      -2.652   1.808  -1.924  0.00  0.00    -0.018 S 
BRANCH  20  22
ATOM     22  N   UNL     1      -1.216   0.706   0.019  0.00  0.00    -0.308 N 
BRANCH  22  24
ATOM     23  C   UNL     1      -1.448  -1.198   1.536  0.00  0.00    +0.024 C 
ATOM     24  C   UNL     1      -0.488  -0.395   0.656  0.00  0.00    +0.104 C 
ENDBRANCH  22  24
BRANCH  22  25
ATOM     25  C   UNL     1      -1.305   2.008   0.686  0.00  0.00    +0.142 C 
BRANCH  25  26
ATOM     26  C   UNL     1      -0.141   2.868   0.266  0.00  0.00    -0.027 A 
ATOM     27  C   UNL     1       1.050   2.846   0.976  0.00  0.00    +0.025 A 
ATOM     28  C   UNL     1       2.096   3.649   0.561  0.00  0.00    +0.111 A 
ATOM     29  N   UNL     1       1.970   4.428  -0.495  0.00  0.00    -0.263 NA
ATOM     30  C   UNL     1       0.853   4.475  -1.194  0.00  0.00    +0.111 A 
ATOM     31  C   UNL     1      -0.233   3.696  -0.842  0.00  0.00    +0.025 A 
ENDBRANCH  25  26
ENDBRANCH  22  25
ENDBRANCH  20  22
ENDBRANCH  18  20
ENDBRANCH   1  18
TORSDOF 8
