REMARK  Name = ZINC45513136
REMARK  8 active torsions:
REMARK  status: ('A' for Active; 'I' for Inactive)
REMARK    1  A    between atoms: C_1  and  C_2
REMARK    2  A    between atoms: C_2  and  C_4
REMARK    3  A    between atoms: C_2  and  N_13
REMARK    4  A    between atoms: N_6  and  C_7
REMARK    5  A    between atoms: C_7  and  C_8
REMARK    6  A    between atoms: N_16  and  C_19
REMARK    7  A    between atoms: C_22  and  C_28
REMARK    8  A    between atoms: C_24  and  N_25
REMARK                            x       y       z     vdW  Elec       q    Type
REMARK                         _______ _______ _______ _____ _____    ______ ____
ROOT
ATOM      1  N   UNL     1       1.008  -0.912   0.568  0.00  0.00    +0.389 N 
ATOM      2  C   UNL     1       1.009  -2.171  -0.188  0.00  0.00    -0.059 C 
ATOM      3  C   UNL     1       1.976  -3.161   0.471  0.00  0.00    +0.086 C 
ATOM      4  N   UNL     1       3.295  -2.520   0.584  0.00  0.00    -0.332 N 
ATOM      5  C   UNL     1       3.365  -1.178   1.183  0.00  0.00    +0.086 C 
ATOM      6  C   UNL     1       2.332  -0.282   0.491  0.00  0.00    -0.059 C 
ATOM      7  H   UNL     1       0.783  -1.102   1.533  0.00  0.00    -0.081 HD
ENDROOT
BRANCH   4   8
ATOM      8  C   UNL     1       4.448  -3.166   0.133  0.00  0.00    +0.060 A 
ATOM      9  C   UNL     1       4.879  -2.990  -1.176  0.00  0.00    +0.026 A 
ATOM     10  C   UNL     1       6.020  -3.630  -1.618  0.00  0.00    +0.014 A 
ATOM     11  C   UNL     1       6.734  -4.446  -0.759  0.00  0.00    +0.057 A 
ATOM     12  C   UNL     1       6.308  -4.623   0.544  0.00  0.00    +0.047 A 
ATOM     13  C   UNL     1       5.170  -3.982   0.995  0.00  0.00    +0.148 A 
BRANCH  11  14
ATOM     14  C   UNL     1       7.978  -5.142  -1.245  0.00  0.00    +0.417 C 
ATOM     15  F   UNL     1       8.205  -4.811  -2.585  0.00  0.00    -0.166 F 
ATOM     16  F   UNL     1       9.072  -4.736  -0.472  0.00  0.00    -0.166 F 
ATOM     17  F   UNL     1       7.814  -6.527  -1.128  0.00  0.00    -0.166 F 
ENDBRANCH  11  14
BRANCH  13  18
ATOM     18  N   UNL     1       4.718  -4.168   2.392  0.00  0.00    +0.058 N 
ATOM     19  O   UNL     1       5.348  -4.878   3.141  0.00  0.00    -0.126 OA
ATOM     20  O   UNL     1       3.720  -3.610   2.783  0.00  0.00    -0.126 OA
ENDBRANCH  13  18
ENDBRANCH   4   8
BRANCH   1  22
ATOM     21  C   UNL     1       0.020   1.319   0.770  0.00  0.00    -0.004 C 
ATOM     22  C   UNL     1       0.002  -0.004   0.002  0.00  0.00    +0.016 C 
BRANCH  22  23
ATOM     23  C   UNL     1      -1.363  -0.633   0.116  0.00  0.00    +0.199 C 
ATOM     24  O   UNL     1      -1.591  -1.430   1.001  0.00  0.00    -0.278 OA
ATOM     25  N   UNL     1      -2.329  -0.309  -0.765  0.00  0.00    -0.312 N 
ATOM     26  H   UNL     1      -2.147   0.328  -1.473  0.00  0.00    +0.149 HD
BRANCH  25  27
ATOM     27  C   UNL     1      -3.656  -0.920  -0.655  0.00  0.00    +0.146 C 
BRANCH  27  28
ATOM     28  C   UNL     1      -4.545  -0.394  -1.752  0.00  0.00    +0.007 A 
ATOM     29  C   UNL     1      -4.743  -0.885  -2.999  0.00  0.00    +0.013 A 
ATOM     30  C   UNL     1      -5.616  -0.230  -3.847  0.00  0.00    +0.008 A 
ATOM     31  C   UNL     1      -6.249   0.885  -3.406  0.00  0.00    +0.045 A 
ATOM     32  S   UNL     1      -5.617   1.034  -1.743  0.00  0.00    -0.100 S 
ENDBRANCH  27  28
ENDBRANCH  25  27
ENDBRANCH  22  23
ENDBRANCH   1  22
TORSDOF 7
