REMARK  Name = ZINC44457982
REMARK  8 active torsions:
REMARK  status: ('A' for Active; 'I' for Inactive)
REMARK    1  A    between atoms: C_1  and  C_2
REMARK    2  A    between atoms: C_4  and  N_9
REMARK    3  A    between atoms: C_6  and  C_8
REMARK    4  A    between atoms: N_9  and  S_10
REMARK    5  A    between atoms: S_10  and  C_13
REMARK    6  A    between atoms: C_16  and  N_19
REMARK    7  A    between atoms: C_20  and  C_22
REMARK    8  A    between atoms: N_30  and  C_31
REMARK                            x       y       z     vdW  Elec       q    Type
REMARK                         _______ _______ _______ _____ _____    ______ ____
ROOT
ATOM      1  C   UNL     1       0.079  -5.061  -3.915  0.00  0.00    +0.111 A 
ATOM      2  C   UNL     1       1.006  -4.582  -4.822  0.00  0.00    +0.031 A 
ATOM      3  C   UNL     1       1.004  -5.045  -6.123  0.00  0.00    +0.025 A 
ATOM      4  C   UNL     1       0.070  -5.993  -6.520  0.00  0.00    +0.034 A 
ATOM      5  C   UNL     1      -0.859  -6.472  -5.607  0.00  0.00    +0.025 A 
ATOM      6  C   UNL     1      -0.849  -6.009  -4.306  0.00  0.00    +0.031 A 
ENDROOT
BRANCH   4   7
ATOM      7  N   UNL     1       0.066  -6.463  -7.838  0.00  0.00    -0.285 N 
ATOM      8  C   UNL     1       1.224  -6.579  -8.516  0.00  0.00    +0.220 C 
ATOM      9  O   UNL     1       2.279  -6.364  -7.957  0.00  0.00    -0.275 OA
ATOM     10  H   UNL     1      -0.772  -6.706  -8.263  0.00  0.00    +0.155 HD
BRANCH   8  11
ATOM     11  C   UNL     1       1.210  -6.975  -9.970  0.00  0.00    +0.078 C 
ATOM     12  C   UNL     1       0.555  -8.351 -10.117  0.00  0.00    +0.032 C 
ATOM     13  C   UNL     1       0.511  -8.735 -11.600  0.00  0.00    +0.110 C 
ATOM     14  N   UNL     1       1.871  -8.652 -12.150  0.00  0.00    -0.286 N 
ATOM     15  C   UNL     1       2.625  -7.403 -11.984  0.00  0.00    +0.110 C 
ATOM     16  C   UNL     1       2.646  -7.033 -10.497  0.00  0.00    +0.032 C 
ATOM     17  C   UNL     1       2.415  -9.703 -12.795  0.00  0.00    +0.302 C 
ATOM     18  O   UNL     1       3.573  -9.657 -13.163  0.00  0.00    -0.253 OA
ATOM     19  N   UNL     1       1.676 -10.804 -13.034  0.00  0.00    -0.296 N 
ATOM     20  H   UNL     1       0.776 -10.870 -12.679  0.00  0.00    +0.151 HD
BRANCH  19  21
ATOM     21  C   UNL     1       2.232 -11.902 -13.828  0.00  0.00    +0.075 C 
ATOM     22  C   UNL     1       1.327 -12.539 -14.884  0.00  0.00    +0.024 C 
ATOM     23  C   UNL     1       1.658 -13.302 -13.599  0.00  0.00    +0.024 C 
ENDBRANCH  19  21
ENDBRANCH   8  11
ENDBRANCH   4   7
BRANCH   1  24
ATOM     24  S   UNL     1       0.085  -4.468  -2.256  0.00  0.00    +0.093 S 
ATOM     25  O   UNL     1      -1.226  -4.674  -1.746  0.00  0.00    -0.148 OA
ATOM     26  O   UNL     1       0.698  -3.186  -2.285  0.00  0.00    -0.148 OA
BRANCH  24  27
ATOM     27  N   UNL     1       1.091  -5.455  -1.387  0.00  0.00    -0.078 NA
BRANCH  27  31
ATOM     28  C   UNL     1       3.204  -6.637   2.899  0.00  0.00    +0.066 C 
ATOM     29  C   UNL     1       2.303  -5.777   2.052  0.00  0.00    +0.044 A 
ATOM     30  C   UNL     1       2.136  -6.049   0.709  0.00  0.00    +0.070 A 
ATOM     31  C   UNL     1       1.290  -5.224  -0.035  0.00  0.00    +0.166 A 
ATOM     32  N   UNL     1       0.679  -4.212   0.575  0.00  0.00    -0.214 NA
ATOM     33  C   UNL     1       0.867  -3.989   1.859  0.00  0.00    +0.128 A 
ATOM     34  N   UNL     1       1.655  -4.752   2.590  0.00  0.00    -0.237 NA
ATOM     35  C   UNL     1       0.156  -2.832   2.514  0.00  0.00    +0.088 C 
ENDBRANCH  27  31
ENDBRANCH  24  27
ENDBRANCH   1  24
TORSDOF 6
