REMARK  Name = ZINC17079070
REMARK  7 active torsions:
REMARK  status: ('A' for Active; 'I' for Inactive)
REMARK    1  A    between atoms: C_1  and  C_2
REMARK    2  A    between atoms: C_2  and  O_3
REMARK    3  A    between atoms: O_3  and  C_4
REMARK    4  A    between atoms: C_13  and  C_15
REMARK    5  A    between atoms: N_17  and  C_18
REMARK    6  A    between atoms: C_21  and  S_24
REMARK    7  A    between atoms: S_24  and  N_27
REMARK                            x       y       z     vdW  Elec       q    Type
REMARK                         _______ _______ _______ _____ _____    ______ ____
ROOT
ATOM      1  C   UNL     1      -6.120   6.301   0.602  0.00  0.00    +0.163 A 
ATOM      2  C   UNL     1      -7.331   5.632   0.609  0.00  0.00    +0.049 A 
ATOM      3  C   UNL     1      -7.375   4.250   0.500  0.00  0.00    +0.004 A 
ATOM      4  C   UNL     1      -6.211   3.525   0.383  0.00  0.00    +0.012 A 
ATOM      5  C   UNL     1      -4.976   4.186   0.375  0.00  0.00    +0.022 A 
ATOM      6  C   UNL     1      -4.929   5.586   0.485  0.00  0.00    +0.179 A 
ATOM      7  O   UNL     1      -3.747   6.241   0.480  0.00  0.00    -0.435 OA
ATOM      8  C   UNL     1      -2.573   5.590   0.375  0.00  0.00    +0.205 A 
ATOM      9  N   UNL     1      -1.456   6.266   0.380  0.00  0.00    -0.369 N 
ATOM     10  C   UNL     1      -2.537   4.123   0.249  0.00  0.00    +0.097 A 
ATOM     11  C   UNL     1      -3.730   3.427   0.252  0.00  0.00    +0.030 A 
ATOM     12  H   UNL     1      -0.494   5.739   0.295  0.00  0.00    +0.159 HD
ATOM     13  H   UNL     1      -1.477   7.362   0.469  0.00  0.00    +0.159 HD
ENDROOT
BRANCH  10  14
ATOM     14  C   UNL     1      -1.255   3.412   0.128  0.00  0.00    +0.253 C 
ATOM     15  O   UNL     1      -0.211   4.037   0.127  0.00  0.00    -0.270 OA
ATOM     16  N   UNL     1      -1.236   2.069   0.019  0.00  0.00    -0.281 N 
ATOM     17  H   UNL     1      -2.181   1.510  -0.057  0.00  0.00    +0.155 HD
BRANCH  16  18
ATOM     18  C   UNL     1      -0.017   1.385   0.002  0.00  0.00    +0.034 A 
ATOM     19  C   UNL     1       1.091   1.953  -0.615  0.00  0.00    +0.025 A 
ATOM     20  C   UNL     1       2.293   1.273  -0.634  0.00  0.00    +0.030 A 
ATOM     21  C   UNL     1       2.394   0.028  -0.041  0.00  0.00    +0.105 A 
ATOM     22  C   UNL     1       1.293  -0.540   0.573  0.00  0.00    +0.030 A 
ATOM     23  C   UNL     1       0.089   0.135   0.597  0.00  0.00    +0.025 A 
BRANCH  21  24
ATOM     24  S   UNL     1       3.929  -0.836  -0.068  0.00  0.00    +0.056 S 
ATOM     25  O   UNL     1       4.945   0.145  -0.226  0.00  0.00    -0.153 OA
ATOM     26  O   UNL     1       3.907  -1.740   1.028  0.00  0.00    -0.153 OA
BRANCH  24  27
ATOM     27  N   UNL     1       3.947  -1.761  -1.442  0.00  0.00    -0.204 NA
ATOM     28  H   UNL     1       4.893  -2.318  -1.497  0.00  0.00    +0.144 HD
ATOM     29  H   UNL     1       3.854  -1.109  -2.324  0.00  0.00    +0.144 HD
ENDBRANCH  24  27
ENDBRANCH  21  24
ENDBRANCH  16  18
ENDBRANCH  10  14
BRANCH   1  30
ATOM     30  O   UNL     1      -6.092   7.656   0.710  0.00  0.00    -0.489 OA
BRANCH  30  32
ATOM     31  C   UNL     1      -7.118   9.832   0.938  0.00  0.00    +0.048 C 
ATOM     32  C   UNL     1      -7.350   8.324   0.827  0.00  0.00    +0.226 C 
ENDBRANCH  30  32
ENDBRANCH   1  30
TORSDOF 6
