REMARK  Name = ZINC39290094
REMARK  8 active torsions:
REMARK  status: ('A' for Active; 'I' for Inactive)
REMARK    1  A    between atoms: C_1  and  S_2
REMARK    2  A    between atoms: S_2  and  C_3
REMARK    3  A    between atoms: C_7  and  C_12
REMARK    4  A    between atoms: C_12  and  C_13
REMARK    5  A    between atoms: C_12  and  C_20
REMARK    6  A    between atoms: C_21  and  N_29
REMARK    7  A    between atoms: C_23  and  S_27
REMARK    8  A    between atoms: S_27  and  C_28
REMARK                            x       y       z     vdW  Elec       q    Type
REMARK                         _______ _______ _______ _____ _____    ______ ____
ROOT
ATOM      1  C   UNL     1       1.057  -1.409  -4.907  0.00  0.00    +0.078 C 
ENDROOT
BRANCH   1   6
ATOM      2  C   UNL     1       2.327  -0.763  -1.585  0.00  0.00    +0.171 C 
ATOM      3  N   UNL     1       2.586   0.223  -2.426  0.00  0.00    -0.157 NA
ATOM      4  C   UNL     1       2.694   0.054  -3.736  0.00  0.00    +0.249 C 
ATOM      5  O   UNL     1       2.966   1.005  -4.442  0.00  0.00    -0.273 OA
ATOM      6  C   UNL     1       2.484  -1.304  -4.364  0.00  0.00    +0.154 C 
ATOM      7  C   UNL     1       2.704  -2.348  -3.284  0.00  0.00    +0.126 C 
ATOM      8  N   UNL     1       2.165  -2.050  -2.039  0.00  0.00    -0.177 NA
ATOM      9  N   UNL     1       3.353  -3.442  -3.507  0.00  0.00    -0.287 NA
ATOM     10  H   UNL     1       3.475  -4.088  -2.793  0.00  0.00    +0.188 HD
BRANCH   2  12
ATOM     11  C   UNL     1       2.482   1.344   0.158  0.00  0.00    +0.092 C 
ATOM     12  S   UNL     1       2.202  -0.444   0.039  0.00  0.00    -0.094 S 
ENDBRANCH   2  12
ENDBRANCH   1   6
BRANCH   1  13
ATOM     13  C   UNL     1       0.835  -0.341  -5.946  0.00  0.00    +0.065 A 
ATOM     14  C   UNL     1      -0.288   0.436  -5.914  0.00  0.00    +0.105 A 
ATOM     15  N   UNL     1      -0.459   1.399  -6.874  0.00  0.00    -0.323 N 
ATOM     16  C   UNL     1       0.481   1.574  -7.844  0.00  0.00    +0.171 A 
ATOM     17  N   UNL     1       1.567   0.830  -7.884  0.00  0.00    -0.185 NA
ATOM     18  C   UNL     1       1.785  -0.122  -6.963  0.00  0.00    +0.279 A 
ATOM     19  O   UNL     1       2.801  -0.801  -7.011  0.00  0.00    -0.265 OA
ATOM     20  H   UNL     1      -1.252   1.957  -6.862  0.00  0.00    +0.169 HD
BRANCH  14  21
ATOM     21  N   UNL     1      -1.234   0.254  -4.932  0.00  0.00    -0.344 N 
ATOM     22  H   UNL     1      -1.071  -0.376  -4.213  0.00  0.00    +0.144 HD
ATOM     23  H   UNL     1      -2.063   0.756  -4.958  0.00  0.00    +0.144 HD
ENDBRANCH  14  21
BRANCH  16  24
ATOM     24  S   UNL     1       0.240   2.818  -9.068  0.00  0.00    -0.091 S 
ATOM     25  C   UNL     1       1.710   2.688 -10.123  0.00  0.00    +0.093 C 
ENDBRANCH  16  24
ENDBRANCH   1  13
BRANCH   1  26
ATOM     26  C   UNL     1       0.856  -2.766  -5.531  0.00  0.00    -0.020 A 
ATOM     27  C   UNL     1       1.748  -3.229  -6.480  0.00  0.00    +0.006 A 
ATOM     28  C   UNL     1       1.563  -4.474  -7.052  0.00  0.00    +0.000 A 
ATOM     29  C   UNL     1       0.487  -5.256  -6.676  0.00  0.00    +0.001 A 
ATOM     30  C   UNL     1      -0.405  -4.794  -5.727  0.00  0.00    +0.020 A 
ATOM     31  C   UNL     1      -0.218  -3.551  -5.149  0.00  0.00    +0.045 A 
ATOM     32 CL   UNL     1      -1.334  -2.972  -3.952  0.00  0.00    -0.083 Cl
ENDBRANCH   1  26
TORSDOF 6
