REMARK  Name = ZINC24864198
REMARK  3 active torsions:
REMARK  status: ('A' for Active; 'I' for Inactive)
REMARK    1  A    between atoms: C_1  and  C_2
REMARK    2  A    between atoms: C_8  and  N_12
REMARK    3  A    between atoms: C_13  and  C_15
REMARK                            x       y       z     vdW  Elec       q    Type
REMARK                         _______ _______ _______ _____ _____    ______ ____
ROOT
ATOM      1  N   UNL     1       2.372   4.209   0.002  0.00  0.00    -0.281 N 
ATOM      2  C   UNL     1       1.457   3.544   0.735  0.00  0.00    +0.251 C 
ATOM      3  O   UNL     1       0.646   4.160   1.401  0.00  0.00    -0.270 OA
ATOM      4  H   UNL     1       3.159   3.654  -0.530  0.00  0.00    +0.155 HD
ENDROOT
BRANCH   1  12
ATOM      5  C   UNL     1       4.542  11.174  -0.550  0.00  0.00    +0.086 C 
ATOM      6  C   UNL     1       3.812   9.861  -0.430  0.00  0.00    +0.105 A 
ATOM      7  N   UNL     1       2.461   9.724  -0.351  0.00  0.00    -0.342 N 
ATOM      8  H   UNL     1       1.816  10.615  -0.374  0.00  0.00    +0.167 HD
ATOM      9  C   UNL     1       2.190   8.373  -0.252  0.00  0.00    +0.066 A 
ATOM     10  C   UNL     1       1.022   7.629  -0.145  0.00  0.00    +0.029 A 
ATOM     11  C   UNL     1       1.087   6.256  -0.066  0.00  0.00    +0.025 A 
ATOM     12  C   UNL     1       2.320   5.606  -0.084  0.00  0.00    +0.036 A 
ATOM     13  C   UNL     1       3.491   6.332  -0.190  0.00  0.00    +0.053 A 
ATOM     14  C   UNL     1       3.436   7.725  -0.275  0.00  0.00    +0.091 A 
ATOM     15  N   UNL     1       4.383   8.692  -0.385  0.00  0.00    -0.233 NA
ENDBRANCH   1  12
BRANCH   2  16
ATOM     16  C   UNL     1       1.440   2.073   0.732  0.00  0.00    +0.068 A 
ATOM     17  C   UNL     1       2.362   1.355  -0.026  0.00  0.00    +0.017 A 
ATOM     18  C   UNL     1       2.315  -0.039  -0.004  0.00  0.00    +0.018 A 
ATOM     19  C   UNL     1       1.381  -0.677   0.746  0.00  0.00    +0.083 A 
ATOM     20  N   UNL     1       0.481   0.015   1.485  0.00  0.00    -0.355 N 
ATOM     21  H   UNL     1      -0.268  -0.523   2.085  0.00  0.00    +0.166 HD
ATOM     22  C   UNL     1       0.483   1.361   1.500  0.00  0.00    +0.096 A 
ATOM     23  S   UNL     1      -0.670   2.211   2.437  0.00  0.00    -0.032 S 
ENDBRANCH   2  16
TORSDOF 2
