REMARK  Name = ZINC33525087
REMARK  7 active torsions:
REMARK  status: ('A' for Active; 'I' for Inactive)
REMARK    1  A    between atoms: C_1  and  C_2
REMARK    2  A    between atoms: C_2  and  N_3
REMARK    3  A    between atoms: C_4  and  C_6
REMARK    4  A    between atoms: C_8  and  O_27
REMARK    5  A    between atoms: C_10  and  O_26
REMARK    6  A    between atoms: C_12  and  N_15
REMARK    7  A    between atoms: C_23  and  N_24
REMARK                            x       y       z     vdW  Elec       q    Type
REMARK                         _______ _______ _______ _____ _____    ______ ____
ROOT
ATOM      1  C   UNL     1      -2.765   8.348   0.494  0.00  0.00    +0.237 C 
ATOM      2  C   UNL     1      -2.830   7.626   1.863  0.00  0.00    +0.185 C 
ATOM      3  C   UNL     1      -3.696   6.389   1.503  0.00  0.00    +0.196 C 
ATOM      4  C   UNL     1      -3.260   6.094   0.052  0.00  0.00    +0.254 C 
ATOM      5  O   UNL     1      -2.692   7.296  -0.482  0.00  0.00    -0.339 OA
ENDROOT
BRANCH   4   6
ATOM      6  N   UNL     1      -2.260   5.024   0.041  0.00  0.00    -0.285 N 
ATOM      7  C   UNL     1      -0.906   5.186   0.050  0.00  0.00    +0.203 A 
ATOM      8  N   UNL     1      -0.319   4.024   0.038  0.00  0.00    -0.231 NA
ATOM      9  C   UNL     1      -1.257   3.046   0.030  0.00  0.00    +0.147 A 
ATOM     10  C   UNL     1      -2.513   3.676   0.034  0.00  0.00    +0.168 A 
ATOM     11  N   UNL     1      -3.611   2.928   0.035  0.00  0.00    -0.203 NA
ATOM     12  C   UNL     1      -3.527   1.613   0.028  0.00  0.00    +0.195 A 
ATOM     13  N   UNL     1      -2.370   0.977   0.019  0.00  0.00    -0.206 NA
ATOM     14  C   UNL     1      -1.219   1.641   0.017  0.00  0.00    +0.148 A 
ATOM     15  I   UNL     1      -5.296   0.490   0.030  0.00  0.00    +0.001 I 
BRANCH  14  16
ATOM     16  N   UNL     1      -0.011   0.966   0.007  0.00  0.00    -0.341 N 
ATOM     17  H   UNL     1       0.004  -0.134  -0.003  0.00  0.00    +0.144 HD
ATOM     18  H   UNL     1       0.934   1.529   0.011  0.00  0.00    +0.144 HD
ENDBRANCH  14  16
ENDBRANCH   4   6
BRANCH   1  20
ATOM     19  N   UNL     1      -1.433  10.309   1.201  0.00  0.00    -0.313 N 
ATOM     20  C   UNL     1      -1.535   9.217   0.418  0.00  0.00    +0.245 C 
ATOM     21  O   UNL     1      -0.638   8.933  -0.347  0.00  0.00    -0.273 OA
ATOM     22  H   UNL     1      -2.247  10.566   1.896  0.00  0.00    +0.149 HD
BRANCH  19  24
ATOM     23  C   UNL     1      -0.375  12.317   2.112  0.00  0.00    +0.024 C 
ATOM     24  C   UNL     1      -0.238  11.153   1.128  0.00  0.00    +0.101 C 
ENDBRANCH  19  24
ENDBRANCH   1  20
BRANCH   3  25
ATOM     25  O   UNL     1      -3.390   5.287   2.360  0.00  0.00    -0.385 OA
ATOM     26  H   UNL     1      -3.919   4.330   2.236  0.00  0.00    +0.210 HD
ENDBRANCH   3  25
BRANCH   2  27
ATOM     27  O   UNL     1      -3.476   8.440   2.844  0.00  0.00    -0.386 OA
ATOM     28  H   UNL     1      -3.601   8.068   3.872  0.00  0.00    +0.210 HD
ENDBRANCH   2  27
TORSDOF 6
