REMARK  Name = ZINC12190585
REMARK  15 active torsions:
REMARK  status: ('A' for Active; 'I' for Inactive)
REMARK    1  A    between atoms: C_1  and  C_2
REMARK    2  A    between atoms: C_2  and  C_3
REMARK    3  A    between atoms: C_3  and  C_4
REMARK    4  A    between atoms: C_3  and  C_6
REMARK    5  A    between atoms: C_4  and  C_5
REMARK    6  A    between atoms: N_8  and  C_9
REMARK    7  A    between atoms: N_8  and  C_32
REMARK    8  A    between atoms: C_9  and  C_10
REMARK    9  A    between atoms: C_13  and  O_30
REMARK   10  A    between atoms: C_16  and  O_28
REMARK   11  A    between atoms: C_18  and  N_19
REMARK   12  A    between atoms: C_25  and  C_27
REMARK   13  A    between atoms: O_28  and  C_29
REMARK   14  A    between atoms: O_30  and  C_31
REMARK   15  A    between atoms: C_32  and  C_33
REMARK                            x       y       z     vdW  Elec       q    Type
REMARK                         _______ _______ _______ _____ _____    ______ ____
ROOT
ATOM      1  C   UNL     1       0.320   1.322  -0.856  0.00  0.00    +0.009 A 
ATOM      2  C   UNL     1       1.257   1.696  -1.773  0.00  0.00    +0.022 A 
ATOM      3  C   UNL     1       2.073   0.698  -2.338  0.00  0.00    +0.044 A 
ATOM      4  C   UNL     1       3.060   1.015  -3.292  0.00  0.00    +0.129 A 
ATOM      5  C   UNL     1       3.838   0.011  -3.822  0.00  0.00    +0.050 A 
ATOM      6  C   UNL     1       3.659  -1.312  -3.425  0.00  0.00    +0.051 A 
ATOM      7  C   UNL     1       2.710  -1.648  -2.503  0.00  0.00    +0.144 A 
ATOM      8  C   UNL     1       1.894  -0.648  -1.938  0.00  0.00    +0.093 A 
ATOM      9  C   UNL     1       0.190  -0.027  -0.501  0.00  0.00    +0.104 A 
ATOM     10  N   UNL     1       0.948  -1.029  -1.012  0.00  0.00    -0.340 N 
ATOM     11  H   UNL     1       0.825  -2.008  -0.727  0.00  0.00    +0.167 HD
ENDROOT
BRANCH   9  12
ATOM     12  N   UNL     1      -0.768  -0.393   0.434  0.00  0.00    -0.313 N 
ATOM     13  C   UNL     1      -0.238  -0.288   1.800  0.00  0.00    +0.125 C 
ATOM     14  C   UNL     1      -1.372  -0.523   2.803  0.00  0.00    +0.126 C 
ATOM     15  N   UNL     1      -2.020  -1.805   2.484  0.00  0.00    -0.299 N 
ATOM     16  C   UNL     1      -2.456  -2.038   1.099  0.00  0.00    +0.126 C 
ATOM     17  C   UNL     1      -1.279  -1.743   0.163  0.00  0.00    +0.125 C 
ATOM     18  C   UNL     1      -2.210  -2.740   3.436  0.00  0.00    +0.213 C 
ATOM     19  O   UNL     1      -1.919  -2.500   4.589  0.00  0.00    -0.276 OA
ATOM     20  C   UNL     1      -2.783  -4.084   3.068  0.00  0.00    +0.109 C 
ENDBRANCH   9  12
BRANCH   7  21
ATOM     21  O   UNL     1       2.553  -2.946  -2.131  0.00  0.00    -0.493 OA
ATOM     22  C   UNL     1       3.415  -3.906  -2.745  0.00  0.00    +0.277 C 
ENDBRANCH   7  21
BRANCH   4  23
ATOM     23  O   UNL     1       3.243   2.303  -3.685  0.00  0.00    -0.494 OA
ATOM     24  C   UNL     1       4.263   2.546  -4.656  0.00  0.00    +0.277 C 
ENDBRANCH   4  23
BRANCH   1  25
ATOM     25  C   UNL     1      -0.580   2.357  -0.230  0.00  0.00    +0.146 C 
BRANCH  25  28
ATOM     26  C   UNL     1      -2.913   1.865  -0.731  0.00  0.00    +0.219 C 
ATOM     27  O   UNL     1      -2.949   1.168   0.261  0.00  0.00    -0.275 OA
ATOM     28  N   UNL     1      -1.781   2.522  -1.053  0.00  0.00    -0.294 N 
BRANCH  26  29
ATOM     29  C   UNL     1      -4.135   1.998  -1.603  0.00  0.00    +0.075 C 
BRANCH  29  31
ATOM     30  C   UNL     1      -3.840  -0.296  -2.548  0.00  0.00    +0.004 C 
ATOM     31  C   UNL     1      -3.933   1.192  -2.888  0.00  0.00    +0.009 C 
ENDBRANCH  29  31
BRANCH  29  32
ATOM     32  C   UNL     1      -5.357   1.464  -0.853  0.00  0.00    +0.009 C 
ATOM     33  C   UNL     1      -6.628   1.837  -1.619  0.00  0.00    +0.004 C 
ENDBRANCH  29  32
ENDBRANCH  26  29
BRANCH  28  34
ATOM     34  C   UNL     1      -1.751   3.400  -2.225  0.00  0.00    +0.139 C 
BRANCH  34  35
ATOM     35  C   UNL     1      -2.159   4.816  -1.812  0.00  0.00    +0.136 C 
ATOM     36  C   UNL     1      -1.977   5.794  -2.994  0.00  0.00    +0.035 C 
ATOM     37  C   UNL     1      -1.475   7.096  -2.329  0.00  0.00    +0.031 C 
ATOM     38  C   UNL     1      -1.413   6.750  -0.825  0.00  0.00    +0.160 C 
ATOM     39  O   UNL     1      -1.277   5.313  -0.782  0.00  0.00    -0.375 OA
ENDBRANCH  34  35
ENDBRANCH  28  34
ENDBRANCH  25  28
ENDBRANCH   1  25
TORSDOF 10
