REMARK  Name = ZINC39361317
REMARK  3 active torsions:
REMARK  status: ('A' for Active; 'I' for Inactive)
REMARK    1  A    between atoms: C_7  and  C_10
REMARK    2  A    between atoms: N_14  and  C_18
REMARK    3  A    between atoms: N_23  and  C_26
REMARK                            x       y       z     vdW  Elec       q    Type
REMARK                         _______ _______ _______ _____ _____    ______ ____
ROOT
ATOM      1  C   UNL     1      -0.115  -3.244  -0.381  0.00  0.00    +0.026 C 
ATOM      2  C   UNL     1       0.537  -4.462  -0.376  0.00  0.00    +0.077 C 
ATOM      3  C   UNL     1      -0.012  -5.829  -0.185  0.00  0.00    +0.259 C 
ATOM      4  O   UNL     1      -1.197  -6.024   0.003  0.00  0.00    -0.269 OA
ATOM      5  N   UNL     1       0.860  -6.823  -0.230  0.00  0.00    -0.243 N 
ATOM      6  C   UNL     1       2.173  -6.602  -0.438  0.00  0.00    +0.121 C 
ATOM      7  S   UNL     1       3.441  -7.749  -0.529  0.00  0.00    -0.027 S 
ATOM      8  S   UNL     1       2.272  -4.827  -0.606  0.00  0.00    -0.061 S 
ENDROOT
BRANCH   1  15
ATOM      9  C   UNL     1      -1.393   1.101  -0.557  0.00  0.00    +0.001 A 
ATOM     10  C   UNL     1      -0.334   1.985  -0.791  0.00  0.00    +0.002 A 
ATOM     11  C   UNL     1       0.939   1.552  -0.945  0.00  0.00    +0.026 A 
ATOM     12  C   UNL     1       1.226   0.161  -0.870  0.00  0.00    +0.043 A 
ATOM     13  N   UNL     1       2.355  -0.501  -0.983  0.00  0.00    -0.380 N 
ATOM     14  C   UNL     1       2.095  -1.935  -0.823  0.00  0.00    +0.149 C 
ATOM     15  C   UNL     1       0.607  -2.067  -0.588  0.00  0.00    -0.018 C 
ATOM     16  C   UNL     1       0.106  -0.766  -0.623  0.00  0.00    +0.003 A 
ATOM     17  C   UNL     1      -1.195  -0.239  -0.473  0.00  0.00    +0.010 A 
ATOM     18  H   UNL     1       3.225  -0.104  -1.148  0.00  0.00    +0.160 HD
ENDBRANCH   1  15
BRANCH   5  19
ATOM     19  C   UNL     1       0.386  -8.197  -0.048  0.00  0.00    +0.178 C 
ATOM     20  C   UNL     1       1.104  -8.866   1.141  0.00  0.00    +0.129 C 
ATOM     21  C   UNL     1       1.829 -10.034   0.507  0.00  0.00    +0.228 C 
ATOM     22  O   UNL     1       2.524 -10.833   1.097  0.00  0.00    -0.275 OA
ATOM     23  N   UNL     1       1.580 -10.044  -0.808  0.00  0.00    -0.209 N 
ATOM     24  C   UNL     1       0.777  -9.056  -1.232  0.00  0.00    +0.248 C 
ATOM     25  O   UNL     1       0.421  -8.877  -2.377  0.00  0.00    -0.273 OA
BRANCH  23  26
ATOM     26  C   UNL     1       2.114 -11.011  -1.674  0.00  0.00    +0.044 A 
ATOM     27  C   UNL     1       1.710 -12.335  -1.571  0.00  0.00    +0.027 A 
ATOM     28  C   UNL     1       2.236 -13.285  -2.424  0.00  0.00    +0.040 A 
ATOM     29  C   UNL     1       3.167 -12.917  -3.382  0.00  0.00    +0.124 A 
ATOM     30  C   UNL     1       3.571 -11.597  -3.486  0.00  0.00    +0.040 A 
ATOM     31  C   UNL     1       3.042 -10.643  -2.638  0.00  0.00    +0.027 A 
ATOM     32  F   UNL     1       3.681 -13.848  -4.215  0.00  0.00    -0.205 F 
ENDBRANCH  23  26
ENDBRANCH   5  19
TORSDOF 3
