REMARK  Name = ZINC52569827
REMARK  7 active torsions:
REMARK  status: ('A' for Active; 'I' for Inactive)
REMARK    1  A    between atoms: C_3  and  N_31
REMARK    2  A    between atoms: C_7  and  C_11
REMARK    3  A    between atoms: C_11  and  O_12
REMARK    4  A    between atoms: O_12  and  C_13
REMARK    5  A    between atoms: C_15  and  O_21
REMARK    6  A    between atoms: O_21  and  C_22
REMARK    7  A    between atoms: C_24  and  C_29
REMARK                            x       y       z     vdW  Elec       q    Type
REMARK                         _______ _______ _______ _____ _____    ______ ____
ROOT
ATOM      1  C   UNL     1      -3.397  -2.715  -2.787  0.00  0.00    +0.127 A 
ATOM      2  C   UNL     1      -4.585  -3.402  -2.583  0.00  0.00    +0.093 A 
ATOM      3  C   UNL     1      -5.673  -3.163  -3.409  0.00  0.00    +0.153 A 
ATOM      4  C   UNL     1      -5.572  -2.236  -4.438  0.00  0.00    +0.118 A 
ATOM      5  C   UNL     1      -4.385  -1.552  -4.640  0.00  0.00    +0.149 A 
ATOM      6  C   UNL     1      -3.301  -1.786  -3.812  0.00  0.00    +0.085 A 
ATOM      7  F   UNL     1      -4.287  -0.651  -5.642  0.00  0.00    -0.204 F 
ATOM      8 CL   UNL     1      -6.933  -1.937  -5.473  0.00  0.00    -0.077 Cl
ENDROOT
BRANCH   1   9
ATOM      9  O   UNL     1      -2.330  -2.948  -1.978  0.00  0.00    -0.489 OA
BRANCH   9  10
ATOM     10  C   UNL     1      -1.141  -2.201  -2.241  0.00  0.00    +0.260 C 
BRANCH  10  17
ATOM     11  C   UNL     1       1.442  -0.392  -1.312  0.00  0.00    +0.013 A 
ATOM     12  C   UNL     1       2.739   0.036  -1.554  0.00  0.00    +0.044 A 
ATOM     13  C   UNL     1       3.708  -0.908  -1.887  0.00  0.00    +0.119 A 
ATOM     14  N   UNL     1       3.413  -2.192  -1.974  0.00  0.00    -0.212 NA
ATOM     15  C   UNL     1       2.180  -2.643  -1.748  0.00  0.00    +0.179 A 
ATOM     16  C   UNL     1       1.171  -1.736  -1.411  0.00  0.00    +0.025 A 
ATOM     17  C   UNL     1      -0.057  -2.596  -1.236  0.00  0.00    +0.170 C 
ATOM     18  N   UNL     1       0.442  -3.955  -1.512  0.00  0.00    -0.296 N 
ATOM     19  N   UNL     1       1.643  -3.900  -1.777  0.00  0.00    -0.158 NA
ATOM     20  H   UNL     1      -0.092  -4.764  -1.488  0.00  0.00    +0.183 HD
BRANCH  13  21
ATOM     21  N   UNL     1       5.011  -0.490  -2.132  0.00  0.00    -0.343 N 
ATOM     22  H   UNL     1       5.238   0.451  -2.071  0.00  0.00    +0.144 HD
ATOM     23  H   UNL     1       5.693  -1.139  -2.364  0.00  0.00    +0.144 HD
ENDBRANCH  13  21
ENDBRANCH  10  17
ENDBRANCH   9  10
ENDBRANCH   1   9
BRANCH   3  24
ATOM     24  O   UNL     1      -6.837  -3.836  -3.212  0.00  0.00    -0.454 OA
BRANCH  24  25
ATOM     25  C   UNL     1      -6.893  -4.727  -2.188  0.00  0.00    +0.131 A 
ATOM     26  C   UNL     1      -7.300  -4.312  -0.930  0.00  0.00    +0.065 A 
ATOM     27  C   UNL     1      -7.356  -5.231   0.119  0.00  0.00    +0.057 A 
ATOM     28  C   UNL     1      -7.001  -6.562  -0.106  0.00  0.00    +0.039 A 
ATOM     29  C   UNL     1      -6.596  -6.965  -1.363  0.00  0.00    +0.046 A 
ATOM     30  C   UNL     1      -6.547  -6.054  -2.404  0.00  0.00    +0.066 A 
ATOM     31 CL   UNL     1      -6.155  -8.621  -1.641  0.00  0.00    -0.083 Cl
BRANCH  27  32
ATOM     32  C   UNL     1      -7.776  -4.809   1.421  0.00  0.00    +0.099 C 
ATOM     33  N   UNL     1      -8.109  -4.474   2.454  0.00  0.00    -0.191 NA
ENDBRANCH  27  32
ENDBRANCH  24  25
ENDBRANCH   3  24
TORSDOF 7
