REMARK  Name = ZINC34761529
REMARK  13 active torsions:
REMARK  status: ('A' for Active; 'I' for Inactive)
REMARK    1  A    between atoms: C_1  and  C_2
REMARK    2  A    between atoms: C_2  and  C_3
REMARK    3  A    between atoms: C_4  and  C_34
REMARK    4  A    between atoms: C_8  and  N_17
REMARK    5  A    between atoms: C_10  and  S_12
REMARK    6  A    between atoms: S_12  and  C_13
REMARK    7  A    between atoms: C_13  and  C_14
REMARK    8  A    between atoms: C_14  and  C_15
REMARK    9  A    between atoms: C_14  and  C_16
REMARK   10  A    between atoms: N_20  and  C_23
REMARK   11  A    between atoms: C_23  and  C_24
REMARK   12  A    between atoms: N_26  and  C_27
REMARK   13  A    between atoms: C_32  and  C_33
REMARK                            x       y       z     vdW  Elec       q    Type
REMARK                         _______ _______ _______ _____ _____    ______ ____
ROOT
ATOM      1  N   UNL     1      -2.232  -0.311   1.951  0.00  0.00    -0.318 N 
ATOM      2  C   UNL     1      -1.756   0.080   0.615  0.00  0.00    +0.088 C 
ATOM      3  C   UNL     1      -2.191   1.525   0.348  0.00  0.00    -0.059 C 
ATOM      4  N   UNL     1      -3.644   1.640   0.532  0.00  0.00    +0.387 N 
ATOM      5  C   UNL     1      -3.993   1.374   1.934  0.00  0.00    -0.059 C 
ATOM      6  C   UNL     1      -3.648  -0.083   2.277  0.00  0.00    +0.088 C 
ATOM      7  H   UNL     1      -4.111   0.971  -0.062  0.00  0.00    -0.081 HD
ENDROOT
BRANCH   1  13
ATOM      8  C   UNL     1      -1.747  -3.321   2.042  0.00  0.00    -0.025 A 
ATOM      9  C   UNL     1      -1.400  -4.601   2.239  0.00  0.00    -0.007 A 
ATOM     10  S   UNL     1      -0.256  -4.517   3.604  0.00  0.00    -0.073 S 
ATOM     11  C   UNL     1      -0.275  -2.764   3.873  0.00  0.00    +0.115 A 
ATOM     12  C   UNL     1      -1.169  -2.290   2.888  0.00  0.00    +0.051 A 
ATOM     13  C   UNL     1      -1.373  -0.882   2.872  0.00  0.00    +0.134 A 
ATOM     14  N   UNL     1      -0.733  -0.126   3.747  0.00  0.00    -0.206 NA
ATOM     15  C   UNL     1       0.100  -0.637   4.647  0.00  0.00    +0.191 A 
ATOM     16  N   UNL     1       0.321  -1.943   4.714  0.00  0.00    -0.215 NA
ATOM     17  C   UNL     1      -1.866  -5.820   1.486  0.00  0.00    +0.052 C 
BRANCH   8  19
ATOM     18  C   UNL     1      -1.978  -2.844  -0.380  0.00  0.00    +0.009 C 
ATOM     19  C   UNL     1      -2.721  -2.954   0.952  0.00  0.00    +0.033 C 
ENDBRANCH   8  19
BRANCH  15  20
ATOM     20  S   UNL     1       0.915   0.439   5.779  0.00  0.00    -0.086 S 
BRANCH  20  21
ATOM     21  C   UNL     1       1.926  -0.676   6.792  0.00  0.00    +0.080 C 
BRANCH  21  22
ATOM     22  C   UNL     1       2.698   0.139   7.832  0.00  0.00    -0.007 C 
ATOM     23  C   UNL     1       1.712   0.788   8.806  0.00  0.00    +0.008 C 
ATOM     24  C   UNL     1       3.644  -0.784   8.604  0.00  0.00    +0.008 C 
ENDBRANCH  21  22
ENDBRANCH  20  21
ENDBRANCH  15  20
ENDBRANCH   1  13
BRANCH   4  25
ATOM     25  C   UNL     1      -4.075   2.996   0.171  0.00  0.00    +0.019 C 
BRANCH  25  26
ATOM     26  C   UNL     1      -5.579   3.080   0.241  0.00  0.00    +0.201 C 
ATOM     27  O   UNL     1      -6.226   2.106   0.561  0.00  0.00    -0.278 OA
ATOM     28  N   UNL     1      -6.203   4.238  -0.052  0.00  0.00    -0.287 N 
ATOM     29  H   UNL     1      -5.683   5.036  -0.240  0.00  0.00    +0.155 HD
BRANCH  28  30
ATOM     30  C   UNL     1      -7.601   4.290  -0.084  0.00  0.00    +0.036 A 
ATOM     31  C   UNL     1      -8.335   3.134  -0.311  0.00  0.00    +0.023 A 
ATOM     32  C   UNL     1      -9.715   3.188  -0.342  0.00  0.00    +0.002 A 
ATOM     33  C   UNL     1     -10.365   4.394  -0.149  0.00  0.00    +0.000 A 
ATOM     34  C   UNL     1      -9.637   5.547   0.076  0.00  0.00    +0.005 A 
ATOM     35  C   UNL     1      -8.257   5.498   0.115  0.00  0.00    -0.029 A 
ATOM     36  C   UNL     1      -7.464   6.754   0.367  0.00  0.00    +0.045 C 
ENDBRANCH  28  30
ENDBRANCH  25  26
ENDBRANCH   4  25
TORSDOF 8
