REMARK  Name = ZINC64541287
REMARK  8 active torsions:
REMARK  status: ('A' for Active; 'I' for Inactive)
REMARK    1  A    between atoms: C_1  and  C_2
REMARK    2  A    between atoms: C_2  and  C_3
REMARK    3  A    between atoms: C_2  and  N_4
REMARK    4  A    between atoms: C_5  and  N_16
REMARK    5  A    between atoms: N_10  and  C_13
REMARK    6  A    between atoms: C_13  and  C_14
REMARK    7  A    between atoms: C_13  and  C_15
REMARK    8  A    between atoms: C_23  and  C_25
REMARK                            x       y       z     vdW  Elec       q    Type
REMARK                         _______ _______ _______ _____ _____    ______ ____
ROOT
ATOM      1  N   UNL     1      -2.095  -3.285  -0.057  0.00  0.00    -0.282 NA
ATOM      2  C   UNL     1      -0.893  -3.603   0.712  0.00  0.00    +0.088 C 
ATOM      3  C   UNL     1      -1.129  -4.873   1.498  0.00  0.00    +0.034 C 
ATOM      4  C   UNL     1      -0.649  -6.084   0.680  0.00  0.00    +0.109 C 
ATOM      5  N   UNL     1      -0.994  -5.937  -0.748  0.00  0.00    -0.298 N 
ATOM      6  C   UNL     1      -2.275  -5.424  -1.191  0.00  0.00    +0.123 C 
ATOM      7  C   UNL     1      -2.200  -3.885  -1.334  0.00  0.00    +0.105 C 
ATOM      8  C   UNL     1      -0.083  -6.293  -1.675  0.00  0.00    +0.242 C 
ATOM      9  O   UNL     1      -0.361  -6.231  -2.854  0.00  0.00    -0.273 OA
ENDROOT
BRANCH   8  10
ATOM     10  C   UNL     1       1.282  -6.767  -1.247  0.00  0.00    +0.190 C 
ATOM     11  C   UNL     1       2.090  -5.609  -0.705  0.00  0.00    +0.016 C 
ATOM     12  C   UNL     1       3.175  -5.502  -1.504  0.00  0.00    -0.002 A 
ATOM     13  C   UNL     1       4.324  -4.588  -1.504  0.00  0.00    +0.029 A 
ATOM     14  C   UNL     1       5.276  -4.731  -2.455  0.00  0.00    +0.042 A 
ATOM     15  C   UNL     1       5.193  -5.729  -3.437  0.00  0.00    +0.022 A 
ATOM     16  C   UNL     1       4.169  -6.605  -3.501  0.00  0.00    +0.027 A 
ATOM     17  C   UNL     1       3.112  -6.547  -2.551  0.00  0.00    +0.043 A 
ATOM     18  N   UNL     1       2.028  -7.272  -2.405  0.00  0.00    -0.370 N 
ATOM     19 CL   UNL     1       6.636  -3.651  -2.459  0.00  0.00    -0.084 Cl
ATOM     20  H   UNL     1       1.764  -8.017  -2.967  0.00  0.00    +0.161 HD
ENDBRANCH   8  10
BRANCH   1  22
ATOM     21  N   UNL     1      -3.610  -1.557  -0.730  0.00  0.00    -0.266 N 
ATOM     22  C   UNL     1      -2.299  -1.833  -0.139  0.00  0.00    +0.157 C 
ATOM     23  C   UNL     1      -1.205  -1.213  -1.012  0.00  0.00    +0.135 C 
ATOM     24  C   UNL     1      -1.470  -1.555  -2.456  0.00  0.00    +0.226 C 
ATOM     25  O   UNL     1      -0.543  -1.742  -3.215  0.00  0.00    -0.275 OA
ATOM     26  N   UNL     1      -2.736  -1.652  -2.903  0.00  0.00    -0.223 N 
ATOM     27  C   UNL     1      -3.778  -1.540  -2.062  0.00  0.00    +0.313 C 
ATOM     28  O   UNL     1      -4.898  -1.417  -2.517  0.00  0.00    -0.252 OA
BRANCH  21  30
ATOM     29  C   UNL     1      -5.308   0.098  -0.130  0.00  0.00    +0.028 C 
ATOM     30  C   UNL     1      -4.757  -1.302   0.146  0.00  0.00    +0.073 C 
ATOM     31  C   UNL     1      -5.847  -2.341  -0.126  0.00  0.00    +0.028 C 
ENDBRANCH  21  30
BRANCH  26  32
ATOM     32  C   UNL     1      -2.982  -1.888  -4.328  0.00  0.00    +0.080 C 
ATOM     33  C   UNL     1      -2.381  -0.743  -5.146  0.00  0.00    +0.028 C 
ATOM     34  C   UNL     1      -2.333  -3.209  -4.745  0.00  0.00    +0.028 C 
ENDBRANCH  26  32
ENDBRANCH   1  22
TORSDOF 4
