REMARK  Name = ZINC02316433
REMARK  10 active torsions:
REMARK  status: ('A' for Active; 'I' for Inactive)
REMARK    1  A    between atoms: C_1  and  C_2
REMARK    2  A    between atoms: C_2  and  C_3
REMARK    3  A    between atoms: C_3  and  O_4
REMARK    4  A    between atoms: O_4  and  C_5
REMARK    5  A    between atoms: C_8  and  C_11
REMARK    6  A    between atoms: N_13  and  C_14
REMARK    7  A    between atoms: C_14  and  N_16
REMARK    8  A    between atoms: N_16  and  C_17
REMARK    9  A    between atoms: C_20  and  S_23
REMARK   10  A    between atoms: S_23  and  N_26
REMARK                            x       y       z     vdW  Elec       q    Type
REMARK                         _______ _______ _______ _____ _____    ______ ____
ROOT
ATOM      1  N   UNL     1       3.627  -4.815  -0.058  0.00  0.00    -0.297 N 
ATOM      2  H   UNL     1       4.423  -4.299   0.146  0.00  0.00    +0.154 HD
ENDROOT
BRANCH   1   3
ATOM      3  C   UNL     1       3.654  -6.210   0.041  0.00  0.00    +0.033 A 
ATOM      4  C   UNL     1       4.236  -6.819   1.145  0.00  0.00    +0.025 A 
ATOM      5  C   UNL     1       4.255  -8.197   1.242  0.00  0.00    +0.031 A 
ATOM      6  C   UNL     1       3.706  -8.970   0.235  0.00  0.00    +0.113 A 
ATOM      7  C   UNL     1       3.131  -8.367  -0.868  0.00  0.00    +0.031 A 
ATOM      8  C   UNL     1       3.103  -6.990  -0.968  0.00  0.00    +0.025 A 
BRANCH   6   9
ATOM      9  S   UNL     1       3.739 -10.727   0.359  0.00  0.00    +0.102 S 
ATOM     10  O   UNL     1       3.845 -11.035   1.743  0.00  0.00    -0.146 OA
ATOM     11  O   UNL     1       2.676 -11.212  -0.450  0.00  0.00    -0.146 OA
BRANCH   9  12
ATOM     12  N   UNL     1       5.145 -11.242  -0.349  0.00  0.00    -0.093 NA
ATOM     13  C   UNL     1       5.424 -12.514  -0.395  0.00  0.00    +0.212 C 
ATOM     14  N   UNL     1       4.551 -13.429   0.144  0.00  0.00    -0.369 N 
ATOM     15  N   UNL     1       6.591 -12.941  -0.983  0.00  0.00    -0.369 N 
ATOM     16  H   UNL     1       3.728 -13.128   0.559  0.00  0.00    +0.159 HD
ATOM     17  H   UNL     1       4.759 -14.376   0.110  0.00  0.00    +0.159 HD
ATOM     18  H   UNL     1       7.207 -12.296  -1.363  0.00  0.00    +0.159 HD
ATOM     19  H   UNL     1       6.799 -13.888  -1.017  0.00  0.00    +0.159 HD
ENDBRANCH   9  12
ENDBRANCH   6   9
ENDBRANCH   1   3
BRANCH   1  20
ATOM     20  C   UNL     1       2.495  -4.188  -0.435  0.00  0.00    +0.141 C 
ATOM     21  S   UNL     1       1.124  -5.102  -0.899  0.00  0.00    -0.018 S 
BRANCH  20  24
ATOM     22  C   UNL     1       1.312  -2.214  -0.825  0.00  0.00    +0.250 C 
ATOM     23  O   UNL     1       0.338  -2.862  -1.154  0.00  0.00    -0.270 OA
ATOM     24  N   UNL     1       2.444  -2.841  -0.448  0.00  0.00    -0.264 N 
ATOM     25  H   UNL     1       3.221  -2.323  -0.185  0.00  0.00    +0.157 HD
BRANCH  22  29
ATOM     26  C   UNL     1       1.149   2.029  -0.864  0.00  0.00    +0.121 A 
ATOM     27  C   UNL     1       0.034   1.289  -1.241  0.00  0.00    +0.046 A 
ATOM     28  C   UNL     1       0.083  -0.087  -1.230  0.00  0.00    +0.016 A 
ATOM     29  C   UNL     1       1.256  -0.740  -0.839  0.00  0.00    +0.037 A 
ATOM     30  C   UNL     1       2.374   0.008  -0.461  0.00  0.00    +0.016 A 
ATOM     31  C   UNL     1       2.317   1.384  -0.474  0.00  0.00    +0.046 A 
BRANCH  26  32
ATOM     32  O   UNL     1       1.097   3.385  -0.876  0.00  0.00    -0.492 OA
BRANCH  32  33
ATOM     33  C   UNL     1       2.278   4.083  -0.477  0.00  0.00    +0.229 C 
BRANCH  33  35
ATOM     34  C   UNL     1       3.294   6.339  -0.127  0.00  0.00    +0.007 C 
ATOM     35  C   UNL     1       2.029   5.591  -0.554  0.00  0.00    +0.038 C 
ENDBRANCH  33  35
ENDBRANCH  32  33
ENDBRANCH  26  32
ENDBRANCH  22  29
ENDBRANCH  20  24
ENDBRANCH   1  20
TORSDOF 9
