REMARK  Name = ZINC36695058
REMARK  1 active torsions:
REMARK  status: ('A' for Active; 'I' for Inactive)
REMARK    1  A    between atoms: C_6  and  C_7
REMARK                            x       y       z     vdW  Elec       q    Type
REMARK                         _______ _______ _______ _____ _____    ______ ____
ROOT
ATOM      1  C   UNL     1      -1.265  -0.762   0.011  0.00  0.00    +0.250 C 
ATOM      2  O   UNL     1      -2.327  -0.171   0.024  0.00  0.00    -0.270 OA
ATOM      3  N   UNL     1      -1.244  -2.110   0.003  0.00  0.00    -0.261 N 
ATOM      4  C   UNL     1      -2.432  -2.821   0.011  0.00  0.00    +0.166 A 
ATOM      5  N   UNL     1      -3.664  -2.366   0.020  0.00  0.00    -0.223 NA
ATOM      6  C   UNL     1      -4.739  -3.183   0.027  0.00  0.00    +0.100 A 
ATOM      7  C   UNL     1      -4.456  -4.568   0.024  0.00  0.00    +0.042 A 
ATOM      8  S   UNL     1      -2.680  -4.591   0.004  0.00  0.00    -0.052 S 
ATOM      9  C   UNL     1      -5.439  -5.526   0.030  0.00  0.00    +0.019 A 
ATOM     10  C   UNL     1      -6.768  -5.141   0.040  0.00  0.00    +0.023 A 
ATOM     11  C   UNL     1      -7.085  -3.790   0.043  0.00  0.00    +0.061 A 
ATOM     12  C   UNL     1      -6.108  -2.825   0.036  0.00  0.00    +0.086 A 
ATOM     13 CL   UNL     1      -6.557  -1.148   0.040  0.00  0.00    -0.080 Cl
ATOM     14 CL   UNL     1      -8.752  -3.309   0.054  0.00  0.00    -0.082 Cl
ATOM     15  H   UNL     1      -0.397  -2.582  -0.008  0.00  0.00    +0.157 HD
ENDROOT
BRANCH   1  21
ATOM     16  C   UNL     1      -0.017   1.392   0.010  0.00  0.00    +0.016 A 
ATOM     17  C   UNL     1       1.169   2.096   0.002  0.00  0.00    +0.042 A 
ATOM     18  C   UNL     1       2.379   1.421  -0.013  0.00  0.00    +0.158 A 
ATOM     19  C   UNL     1       2.405   0.033  -0.021  0.00  0.00    +0.159 A 
ATOM     20  C   UNL     1       1.224  -0.681  -0.014  0.00  0.00    +0.054 A 
ATOM     21  C   UNL     1       0.002  -0.004   0.002  0.00  0.00    +0.040 A 
ATOM     22  F   UNL     1       3.588  -0.620  -0.036  0.00  0.00    -0.202 F 
ATOM     23  F   UNL     1       3.537   2.116  -0.022  0.00  0.00    -0.202 F 
ENDBRANCH   1  21
TORSDOF 1
