REMARK  Name = ZINC21262802
REMARK  14 active torsions:
REMARK  status: ('A' for Active; 'I' for Inactive)
REMARK    1  A    between atoms: C_1  and  C_2
REMARK    2  A    between atoms: C_2  and  C_30
REMARK    3  A    between atoms: C_4  and  N_10
REMARK    4  A    between atoms: C_6  and  C_8
REMARK    5  A    between atoms: C_6  and  C_9
REMARK    6  A    between atoms: N_10  and  C_11
REMARK    7  A    between atoms: C_11  and  N_13
REMARK    8  A    between atoms: N_13  and  C_14
REMARK    9  A    between atoms: N_13  and  C_24
REMARK   10  A    between atoms: C_14  and  C_15
REMARK   11  A    between atoms: C_18  and  N_21
REMARK   12  A    between atoms: N_21  and  C_22
REMARK   13  A    between atoms: N_21  and  C_23
REMARK   14  A    between atoms: C_24  and  C_25
REMARK                            x       y       z     vdW  Elec       q    Type
REMARK                         _______ _______ _______ _____ _____    ______ ____
ROOT
ATOM      1  N   UNL     1       1.149   2.410   0.007  0.00  0.00    -0.301 N 
ENDROOT
BRANCH   1   2
ATOM      2  C   UNL     1      -0.017   1.734   0.010  0.00  0.00    +0.134 C 
ATOM      3  S   UNL     1      -0.013   0.022  -0.005  0.00  0.00    -0.019 S 
BRANCH   2   4
ATOM      4  N   UNL     1      -1.185   2.405   0.021  0.00  0.00    -0.324 N 
ATOM      5  H   UNL     1      -1.188   3.505   0.031  0.00  0.00    +0.148 HD
BRANCH   4   9
ATOM      6  C   UNL     1      -4.888   0.734   1.724  0.00  0.00    -0.010 C 
ATOM      7  C   UNL     1      -4.884   1.808   0.630  0.00  0.00    -0.072 C 
ATOM      8  C   UNL     1      -3.545   2.541   0.640  0.00  0.00    +0.009 C 
ATOM      9  C   UNL     1      -2.455   1.668   0.018  0.00  0.00    +0.069 C 
ATOM     10  C   UNL     1      -2.851   1.351  -1.424  0.00  0.00    +0.009 C 
ATOM     11  C   UNL     1      -4.181   0.602  -1.457  0.00  0.00    -0.072 C 
ATOM     12  N   UNL     1      -5.208   1.240  -0.662  0.00  0.00    +0.386 N 
ATOM     13  C   UNL     1      -3.962  -0.851  -1.018  0.00  0.00    -0.010 C 
ATOM     14  C   UNL     1      -4.659   0.568  -2.926  0.00  0.00    -0.010 C 
ATOM     15  C   UNL     1      -5.979   2.835   0.994  0.00  0.00    -0.010 C 
ATOM     16  H   UNL     1      -5.969   0.455  -0.536  0.00  0.00    -0.084 HD
ATOM     17  H   UNL     1      -5.600   2.028  -1.321  0.00  0.00    -0.084 HD
ENDBRANCH   4   9
ENDBRANCH   2   4
ENDBRANCH   1   2
BRANCH   1  18
ATOM     18  C   UNL     1       2.419   1.681  -0.011  0.00  0.00    +0.142 C 
BRANCH  18  19
ATOM     19  C   UNL     1       2.843   1.443  -1.437  0.00  0.00    -0.030 A 
ATOM     20  C   UNL     1       2.445   0.293  -2.093  0.00  0.00    +0.007 A 
ATOM     21  C   UNL     1       2.827   0.075  -3.402  0.00  0.00    +0.023 A 
ATOM     22  C   UNL     1       3.621   1.008  -4.056  0.00  0.00    +0.029 A 
ATOM     23  C   UNL     1       4.024   2.160  -3.393  0.00  0.00    +0.023 A 
ATOM     24  C   UNL     1       3.634   2.374  -2.086  0.00  0.00    +0.007 A 
BRANCH  22  25
ATOM     25  N   UNL     1       4.013   0.788  -5.379  0.00  0.00    -0.336 N 
ATOM     26  C   UNL     1       4.744   1.828  -6.108  0.00  0.00    +0.129 C 
ATOM     27  C   UNL     1       3.694  -0.481  -6.037  0.00  0.00    +0.129 C 
ENDBRANCH  22  25
ENDBRANCH  18  19
ENDBRANCH   1  18
BRANCH   1  28
ATOM     28  C   UNL     1       1.146   3.875   0.020  0.00  0.00    +0.181 C 
BRANCH  28  29
ATOM     29  C   UNL     1       1.157   4.364   1.446  0.00  0.00    +0.122 A 
ATOM     30  C   UNL     1       2.253   4.622   2.181  0.00  0.00    +0.046 A 
ATOM     31  C   UNL     1       1.804   5.055   3.449  0.00  0.00    +0.041 A 
ATOM     32  C   UNL     1       0.459   5.036   3.414  0.00  0.00    +0.195 A 
ATOM     33  O   UNL     1       0.073   4.622   2.196  0.00  0.00    -0.466 OA
ENDBRANCH  28  29
ENDBRANCH   1  28
TORSDOF 8
