REMARK  Name = ZINC16845314
REMARK  6 active torsions:
REMARK  status: ('A' for Active; 'I' for Inactive)
REMARK    1  A    between atoms: N_8  and  C_23
REMARK    2  A    between atoms: C_9  and  S_11
REMARK    3  A    between atoms: S_11  and  C_12
REMARK    4  A    between atoms: C_12  and  C_13
REMARK    5  A    between atoms: N_15  and  C_16
REMARK    6  A    between atoms: C_23  and  C_24
REMARK                            x       y       z     vdW  Elec       q    Type
REMARK                         _______ _______ _______ _____ _____    ______ ____
ROOT
ATOM      1  C   UNL     1      -4.235   5.684   0.022  0.00  0.00    +0.020 A 
ATOM      2  C   UNL     1      -2.912   5.305   0.017  0.00  0.00    +0.014 A 
ATOM      3  C   UNL     1      -2.595   3.927   0.008  0.00  0.00    +0.034 A 
ATOM      4  C   UNL     1      -1.256   3.311   0.002  0.00  0.00    +0.095 A 
ATOM      5  C   UNL     1      -1.225   1.917  -0.012  0.00  0.00    +0.105 A 
ATOM      6  C   UNL     1      -0.015   1.216  -0.013  0.00  0.00    +0.269 A 
ATOM      7  O   UNL     1       0.001  -0.004  -0.020  0.00  0.00    -0.266 OA
ATOM      8  N   UNL     1       1.137   1.926  -0.011  0.00  0.00    -0.282 N 
ATOM      9  C   UNL     1       1.078   3.290  -0.004  0.00  0.00    +0.173 A 
ATOM     10  N   UNL     1      -0.052   3.947   0.003  0.00  0.00    -0.222 NA
ATOM     11  S   UNL     1      -2.929   1.427  -0.020  0.00  0.00    -0.062 S 
ATOM     12  C   UNL     1      -3.684   3.035  -0.013  0.00  0.00    +0.111 A 
ATOM     13  N   UNL     1      -4.935   3.444  -0.015  0.00  0.00    -0.248 NA
ATOM     14  C   UNL     1      -5.238   4.728   0.018  0.00  0.00    +0.112 A 
ENDROOT
BRANCH   9  15
ATOM     15  S   UNL     1       2.586   4.201  -0.002  0.00  0.00    -0.078 S 
BRANCH  15  16
ATOM     16  C   UNL     1       1.933   5.889   0.009  0.00  0.00    +0.173 C 
BRANCH  16  17
ATOM     17  C   UNL     1       3.077   6.870   0.011  0.00  0.00    +0.227 C 
ATOM     18  O   UNL     1       4.221   6.468   0.007  0.00  0.00    -0.275 OA
ATOM     19  N   UNL     1       2.829   8.195   0.019  0.00  0.00    -0.285 N 
ATOM     20  H   UNL     1       1.916   8.518  -0.045  0.00  0.00    +0.155 HD
BRANCH  19  21
ATOM     21  C   UNL     1       3.888   9.105   0.120  0.00  0.00    +0.034 A 
ATOM     22  C   UNL     1       3.720  10.293   0.819  0.00  0.00    +0.026 A 
ATOM     23  C   UNL     1       4.768  11.187   0.922  0.00  0.00    +0.040 A 
ATOM     24  C   UNL     1       5.982  10.904   0.318  0.00  0.00    +0.124 A 
ATOM     25  C   UNL     1       6.150   9.723  -0.385  0.00  0.00    +0.040 A 
ATOM     26  C   UNL     1       5.106   8.824  -0.485  0.00  0.00    +0.026 A 
ATOM     27  F   UNL     1       7.004  11.783   0.416  0.00  0.00    -0.205 F 
ENDBRANCH  19  21
ENDBRANCH  16  17
ENDBRANCH  15  16
ENDBRANCH   9  15
BRANCH   8  28
ATOM     28  C   UNL     1       2.431   1.240  -0.018  0.00  0.00    +0.162 C 
BRANCH  28  29
ATOM     29  C   UNL     1       2.872   1.012  -1.440  0.00  0.00    -0.027 A 
ATOM     30  C   UNL     1       2.518  -0.153  -2.095  0.00  0.00    +0.008 A 
ATOM     31  C   UNL     1       2.918  -0.361  -3.401  0.00  0.00    +0.038 A 
ATOM     32  C   UNL     1       3.683   0.593  -4.051  0.00  0.00    +0.123 A 
ATOM     33  C   UNL     1       4.041   1.757  -3.393  0.00  0.00    +0.038 A 
ATOM     34  C   UNL     1       3.636   1.965  -2.088  0.00  0.00    +0.008 A 
ATOM     35  F   UNL     1       4.078   0.389  -5.327  0.00  0.00    -0.205 F 
ENDBRANCH  28  29
ENDBRANCH   8  28
TORSDOF 6
