REMARK  Name = ZINC25186425
REMARK  9 active torsions:
REMARK  status: ('A' for Active; 'I' for Inactive)
REMARK    1  A    between atoms: C_1  and  C_2
REMARK    2  A    between atoms: C_2  and  N_3
REMARK    3  A    between atoms: N_6  and  C_9
REMARK    4  A    between atoms: C_12  and  N_16
REMARK    5  A    between atoms: C_13  and  C_15
REMARK    6  A    between atoms: C_17  and  C_19
REMARK    7  A    between atoms: C_19  and  C_20
REMARK    8  A    between atoms: C_20  and  N_21
REMARK    9  A    between atoms: C_22  and  C_24
REMARK                            x       y       z     vdW  Elec       q    Type
REMARK                         _______ _______ _______ _____ _____    ______ ____
ROOT
ATOM      1  N   UNL     1      -3.228   5.069  -5.797  0.00  0.00    -0.285 N 
ATOM      2  C   UNL     1      -4.097   4.306  -6.489  0.00  0.00    +0.219 C 
ATOM      3  O   UNL     1      -4.421   3.218  -6.062  0.00  0.00    -0.275 OA
ATOM      4  H   UNL     1      -3.003   6.091  -6.135  0.00  0.00    +0.155 HD
ENDROOT
BRANCH   1   8
ATOM      5  C   UNL     1      -1.389   3.554  -2.373  0.00  0.00    +0.030 A 
ATOM      6  C   UNL     1      -1.845   2.687  -3.358  0.00  0.00    +0.025 A 
ATOM      7  C   UNL     1      -2.459   3.189  -4.489  0.00  0.00    +0.025 A 
ATOM      8  C   UNL     1      -2.610   4.560  -4.647  0.00  0.00    +0.036 A 
ATOM      9  C   UNL     1      -2.149   5.427  -3.665  0.00  0.00    -0.028 A 
ATOM     10  C   UNL     1      -1.541   4.926  -2.531  0.00  0.00    +0.028 A 
ATOM     11  C   UNL     1      -2.314   6.915  -3.836  0.00  0.00    +0.046 C 
BRANCH   5  15
ATOM     12  N   UNL     1      -0.650   1.534   1.184  0.00  0.00    +0.382 N 
ATOM     13  C   UNL     1       0.033   1.067  -0.030  0.00  0.00    -0.060 C 
ATOM     14  C   UNL     1      -0.717   1.578  -1.263  0.00  0.00    +0.086 C 
ATOM     15  N   UNL     1      -0.773   3.046  -1.225  0.00  0.00    -0.333 N 
ATOM     16  C   UNL     1      -1.456   3.513  -0.010  0.00  0.00    +0.086 C 
ATOM     17  C   UNL     1      -0.706   3.002   1.222  0.00  0.00    -0.060 C 
ATOM     18  H   UNL     1      -1.682   1.155   1.161  0.00  0.00    -0.082 HD
BRANCH  12  20
ATOM     19  C   UNL     1      -0.574   1.696   3.627  0.00  0.00    -0.017 C 
ATOM     20  C   UNL     1      -0.002   1.000   2.390  0.00  0.00    -0.082 C 
ENDBRANCH  12  20
ENDBRANCH   5  15
ENDBRANCH   1   8
BRANCH   2  21
ATOM     21  C   UNL     1      -4.666   4.805  -7.792  0.00  0.00    +0.115 C 
BRANCH  21  22
ATOM     22  C   UNL     1      -5.619   3.755  -8.367  0.00  0.00    +0.113 C 
BRANCH  22  23
ATOM     23  N   UNL     1      -6.172   4.240  -9.634  0.00  0.00    -0.311 N 
ATOM     24  C   UNL     1      -7.041   3.477 -10.326  0.00  0.00    +0.244 C 
ATOM     25  O   UNL     1      -7.366   2.386  -9.899  0.00  0.00    -0.270 OA
ATOM     26  H   UNL     1      -5.878   5.227 -10.021  0.00  0.00    +0.149 HD
BRANCH  24  27
ATOM     27  C   UNL     1      -7.600   3.966 -11.604  0.00  0.00    +0.037 A 
ATOM     28  C   UNL     1      -7.233   5.221 -12.095  0.00  0.00    +0.014 A 
ATOM     29  C   UNL     1      -7.752   5.669 -13.291  0.00  0.00    +0.016 A 
ATOM     30  C   UNL     1      -8.646   4.883 -13.999  0.00  0.00    +0.018 A 
ATOM     31  C   UNL     1      -9.018   3.640 -13.515  0.00  0.00    +0.016 A 
ATOM     32  C   UNL     1      -8.500   3.178 -12.323  0.00  0.00    +0.014 A 
ATOM     33 BR   UNL     1      -9.360   5.509 -15.634  0.00  0.00    -0.050 Br
ENDBRANCH  24  27
ENDBRANCH  22  23
ENDBRANCH  21  22
ENDBRANCH   2  21
TORSDOF 7
