REMARK  Name = ZINC02103034
REMARK  2 active torsions:
REMARK  status: ('A' for Active; 'I' for Inactive)
REMARK    1  A    between atoms: C_1  and  C_2
REMARK    2  A    between atoms: C_2  and  C_7
REMARK                            x       y       z     vdW  Elec       q    Type
REMARK                         _______ _______ _______ _____ _____    ______ ____
ROOT
ATOM      1  C   UNL     1       2.882  -3.782   3.797  0.00  0.00    +0.227 C 
ATOM      2  O   UNL     1       1.983  -4.243   3.127  0.00  0.00    -0.275 OA
ATOM      3  N   UNL     1       3.208  -2.479   3.683  0.00  0.00    -0.264 N 
ATOM      4  C   UNL     1       2.513  -1.664   2.797  0.00  0.00    +0.165 A 
ATOM      5  N   UNL     1       2.681  -0.382   2.546  0.00  0.00    -0.229 NA
ATOM      6  C   UNL     1       1.932   0.271   1.662  0.00  0.00    +0.054 A 
ATOM      7  C   UNL     1       0.979  -0.463   1.030  0.00  0.00    +0.014 A 
ATOM      8  S   UNL     1       1.200  -2.075   1.735  0.00  0.00    -0.057 S 
ATOM      9  C   UNL     1       0.002  -0.004   0.002  0.00  0.00    +0.044 C 
ATOM     10  C   UNL     1      -0.019   1.533   0.011  0.00  0.00    +0.006 C 
ATOM     11  C   UNL     1       1.425   2.044  -0.001  0.00  0.00    +0.006 C 
ATOM     12  C   UNL     1       2.096   1.753   1.342  0.00  0.00    +0.056 C 
ATOM     13  H   UNL     1       3.928  -2.110   4.219  0.00  0.00    +0.157 HD
ENDROOT
BRANCH   1  15
ATOM     14  C   UNL     1       4.102  -3.990   6.049  0.00  0.00    +0.023 C 
ATOM     15  C   UNL     1       3.636  -4.666   4.757  0.00  0.00    +0.071 C 
ATOM     16  C   UNL     1       4.537  -5.749   4.162  0.00  0.00    +0.048 C 
ATOM     17  C   UNL     1       3.220  -6.136   4.839  0.00  0.00    +0.096 C 
ATOM     18 BR   UNL     1       3.326  -7.013   6.596  0.00  0.00    -0.071 Br
ATOM     19 BR   UNL     1       1.743  -6.727   3.684  0.00  0.00    -0.071 Br
ENDBRANCH   1  15
TORSDOF 1
