REMARK  Name = ZINC21882659
REMARK  10 active torsions:
REMARK  status: ('A' for Active; 'I' for Inactive)
REMARK    1  A    between atoms: C_1  and  C_2
REMARK    2  A    between atoms: C_5  and  N_32
REMARK    3  A    between atoms: C_6  and  C_8
REMARK    4  A    between atoms: C_12  and  S_15
REMARK    5  A    between atoms: S_15  and  C_16
REMARK    6  A    between atoms: C_16  and  C_18
REMARK    7  A    between atoms: C_16  and  C_19
REMARK    8  A    between atoms: N_21  and  C_22
REMARK    9  A    between atoms: C_27  and  C_28
REMARK   10  A    between atoms: C_33  and  C_35
REMARK                            x       y       z     vdW  Elec       q    Type
REMARK                         _______ _______ _______ _____ _____    ______ ____
ROOT
ATOM      1  C   UNL     1      -2.436   0.991   0.189  0.00  0.00    +0.161 A 
ATOM      2  C   UNL     1      -2.345  -0.468   0.317  0.00  0.00    +0.300 A 
ATOM      3  O   UNL     1      -1.266  -1.032   0.361  0.00  0.00    -0.263 OA
ATOM      4  N   UNL     1      -3.505  -1.163   0.390  0.00  0.00    -0.180 NA
ATOM      5  C   UNL     1      -4.681  -0.477   0.331  0.00  0.00    +0.213 A 
ATOM      6  N   UNL     1      -4.702   0.838   0.210  0.00  0.00    -0.122 NA
ATOM      7  N   UNL     1      -3.635   1.548   0.141  0.00  0.00    -0.141 NA
ENDROOT
BRANCH   1  13
ATOM      8  C   UNL     1       0.519   4.085  -2.377  0.00  0.00    +0.044 C 
ATOM      9  C   UNL     1       0.213   3.310  -1.122  0.00  0.00    -0.050 A 
ATOM     10  C   UNL     1       1.075   3.381  -0.041  0.00  0.00    +0.005 A 
ATOM     11  C   UNL     1       0.804   2.674   1.115  0.00  0.00    +0.024 A 
ATOM     12  C   UNL     1      -0.336   1.889   1.199  0.00  0.00    +0.043 A 
ATOM     13  C   UNL     1      -1.213   1.820   0.109  0.00  0.00    +0.029 A 
ATOM     14  C   UNL     1      -0.925   2.534  -1.054  0.00  0.00    +0.015 A 
BRANCH  12  15
ATOM     15  N   UNL     1      -0.612   1.174   2.368  0.00  0.00    -0.285 N 
ATOM     16  C   UNL     1       0.398   0.658   3.096  0.00  0.00    +0.214 C 
ATOM     17  O   UNL     1       1.548   0.880   2.781  0.00  0.00    -0.276 OA
ATOM     18  C   UNL     1       0.098  -0.196   4.301  0.00  0.00    +0.109 C 
ATOM     19  H   UNL     1      -1.653   1.033   2.693  0.00  0.00    +0.155 HD
ENDBRANCH  12  15
ENDBRANCH   1  13
BRANCH   5  20
ATOM     20  S   UNL     1      -6.203  -1.361   0.416  0.00  0.00    -0.072 S 
BRANCH  20  21
ATOM     21  C   UNL     1      -7.373   0.015   0.292  0.00  0.00    +0.137 C 
ATOM     22  C   UNL     1      -7.241   0.674  -1.082  0.00  0.00    +0.029 C 
BRANCH  21  23
ATOM     23  C   UNL     1      -8.777  -0.503   0.468  0.00  0.00    +0.230 C 
ATOM     24  O   UNL     1      -9.016  -1.680   0.296  0.00  0.00    -0.274 OA
ATOM     25  N   UNL     1      -9.768   0.341   0.816  0.00  0.00    -0.284 N 
ATOM     26  H   UNL     1      -9.571   1.421   0.887  0.00  0.00    +0.155 HD
BRANCH  25  27
ATOM     27  C   UNL     1     -11.048  -0.156   1.086  0.00  0.00    +0.045 A 
ATOM     28  C   UNL     1     -11.211  -1.474   1.493  0.00  0.00    +0.024 A 
ATOM     29  C   UNL     1     -12.475  -1.960   1.764  0.00  0.00    +0.002 A 
ATOM     30  C   UNL     1     -13.579  -1.138   1.621  0.00  0.00    +0.001 A 
ATOM     31  C   UNL     1     -13.420   0.173   1.212  0.00  0.00    +0.014 A 
ATOM     32  C   UNL     1     -12.158   0.666   0.944  0.00  0.00    +0.076 A 
BRANCH  32  33
ATOM     33  C   UNL     1     -11.986   2.095   0.496  0.00  0.00    +0.419 C 
ATOM     34  F   UNL     1     -13.238   2.716   0.428  0.00  0.00    -0.166 F 
ATOM     35  F   UNL     1     -11.177   2.776   1.412  0.00  0.00    -0.166 F 
ATOM     36  F   UNL     1     -11.384   2.119  -0.766  0.00  0.00    -0.166 F 
ENDBRANCH  32  33
ENDBRANCH  25  27
ENDBRANCH  21  23
ENDBRANCH  20  21
ENDBRANCH   5  20
TORSDOF 7
