REMARK  Name = ZINC13194268
REMARK  8 active torsions:
REMARK  status: ('A' for Active; 'I' for Inactive)
REMARK    1  A    between atoms: C_1  and  C_2
REMARK    2  A    between atoms: N_4  and  C_5
REMARK    3  A    between atoms: C_8  and  C_11
REMARK    4  A    between atoms: C_13  and  C_29
REMARK    5  A    between atoms: N_17  and  C_18
REMARK    6  A    between atoms: C_21  and  C_24
REMARK    7  A    between atoms: C_24  and  C_25
REMARK    8  A    between atoms: C_29  and  C_31
REMARK                            x       y       z     vdW  Elec       q    Type
REMARK                         _______ _______ _______ _____ _____    ______ ____
ROOT
ATOM      1  C   UNL     1      -0.858  -6.315   0.344  0.00  0.00    +0.150 C 
ATOM      2  C   UNL     1      -1.298  -6.805   1.704  0.00  0.00    +0.077 C 
ATOM      3  C   UNL     1      -2.363  -7.617   1.501  0.00  0.00    +0.250 C 
ATOM      4  C   UNL     1      -2.650  -7.688   0.053  0.00  0.00    +0.292 C 
ATOM      5  O   UNL     1      -3.546  -8.336  -0.449  0.00  0.00    -0.266 OA
ATOM      6  N   UNL     1      -1.771  -6.928  -0.628  0.00  0.00    -0.253 N 
ATOM      7  O   UNL     1      -3.053  -8.261   2.469  0.00  0.00    -0.282 OA
ENDROOT
BRANCH   1  11
ATOM      8  C   UNL     1      -1.148  -2.055   0.152  0.00  0.00    +0.033 A 
ATOM      9  C   UNL     1       0.097  -2.665   0.228  0.00  0.00    +0.023 A 
ATOM     10  C   UNL     1       0.188  -4.042   0.290  0.00  0.00    +0.007 A 
ATOM     11  C   UNL     1      -0.960  -4.813   0.276  0.00  0.00    -0.022 A 
ATOM     12  C   UNL     1      -2.202  -4.209   0.201  0.00  0.00    +0.007 A 
ATOM     13  C   UNL     1      -2.299  -2.832   0.145  0.00  0.00    +0.023 A 
BRANCH   8  17
ATOM     14  C   UNL     1      -2.315   1.479   0.713  0.00  0.00    +0.109 C 
ATOM     15  C   UNL     1      -2.264  -0.027   0.699  0.00  0.00    +0.214 C 
ATOM     16  O   UNL     1      -3.141  -0.668   1.237  0.00  0.00    -0.276 OA
ATOM     17  N   UNL     1      -1.243  -0.661   0.089  0.00  0.00    -0.286 N 
ATOM     18  H   UNL     1      -0.574  -0.150  -0.394  0.00  0.00    +0.155 HD
ENDBRANCH   8  17
ENDBRANCH   1  11
BRANCH   6  19
ATOM     19  C   UNL     1      -1.734  -6.753  -2.014  0.00  0.00    +0.038 A 
ATOM     20  C   UNL     1      -0.764  -5.940  -2.588  0.00  0.00    +0.024 A 
ATOM     21  C   UNL     1      -0.731  -5.769  -3.958  0.00  0.00    +0.006 A 
ATOM     22  C   UNL     1      -1.662  -6.405  -4.758  0.00  0.00    -0.037 A 
ATOM     23  C   UNL     1      -2.629  -7.215  -4.191  0.00  0.00    +0.006 A 
ATOM     24  C   UNL     1      -2.664  -7.395  -2.822  0.00  0.00    +0.024 A 
BRANCH  22  25
ATOM     25  C   UNL     1      -1.623  -6.216  -6.253  0.00  0.00    +0.160 C 
BRANCH  25  26
ATOM     26  C   UNL     1      -0.742  -7.272  -6.870  0.00  0.00    +0.360 C 
ATOM     27  O   UNL     1      -0.197  -8.102  -6.162  0.00  0.00    -0.246 OA
ATOM     28  O   UNL     1      -0.575  -7.297  -8.077  0.00  0.00    -0.246 OA
ENDBRANCH  25  26
ENDBRANCH  22  25
ENDBRANCH   6  19
BRANCH   2  29
ATOM     29  C   UNL     1      -0.690  -6.467   2.994  0.00  0.00    +0.195 C 
ATOM     30  O   UNL     1      -1.318  -5.821   3.812  0.00  0.00    -0.287 OA
BRANCH  29  31
ATOM     31  C   UNL     1       0.686  -6.912   3.301  0.00  0.00    +0.022 A 
ATOM     32  C   UNL     1       1.446  -7.566   2.329  0.00  0.00    +0.012 A 
ATOM     33  C   UNL     1       2.729  -7.977   2.623  0.00  0.00    +0.001 A 
ATOM     34  C   UNL     1       3.264  -7.743   3.877  0.00  0.00    +0.000 A 
ATOM     35  C   UNL     1       2.517  -7.095   4.846  0.00  0.00    +0.001 A 
ATOM     36  C   UNL     1       1.234  -6.674   4.564  0.00  0.00    +0.012 A 
ENDBRANCH  29  31
ENDBRANCH   2  29
TORSDOF 7
