REMARK  Name = ZINC10101267
REMARK  7 active torsions:
REMARK  status: ('A' for Active; 'I' for Inactive)
REMARK    1  A    between atoms: C_1  and  C_2
REMARK    2  A    between atoms: C_5  and  N_9
REMARK    3  A    between atoms: C_6  and  C_8
REMARK    4  A    between atoms: C_10  and  C_32
REMARK    5  A    between atoms: N_19  and  C_24
REMARK    6  A    between atoms: N_22  and  C_23
REMARK    7  A    between atoms: C_24  and  C_25
REMARK                            x       y       z     vdW  Elec       q    Type
REMARK                         _______ _______ _______ _____ _____    ______ ____
ROOT
ATOM      1  N   UNL     1      -4.628   2.298   0.057  0.00  0.00    -0.282 N 
ATOM      2  C   UNL     1      -4.685   0.916   0.051  0.00  0.00    +0.040 A 
ATOM      3  C   UNL     1      -3.439   0.450   0.037  0.00  0.00    +0.116 A 
ATOM      4  N   UNL     1      -2.570   1.527   0.034  0.00  0.00    -0.277 N 
ATOM      5  C   UNL     1      -3.305   2.663   0.047  0.00  0.00    +0.223 A 
ATOM      6  N   UNL     1      -2.493   3.710   0.045  0.00  0.00    -0.193 NA
ATOM      7  C   UNL     1      -1.227   3.301   0.031  0.00  0.00    +0.170 A 
ATOM      8  C   UNL     1      -1.236   1.907   0.018  0.00  0.00    +0.157 A 
ATOM      9  C   UNL     1      -0.015   1.215   0.009  0.00  0.00    +0.283 A 
ATOM     10  O   UNL     1       0.002  -0.004   0.002  0.00  0.00    -0.265 OA
ATOM     11  N   UNL     1       1.140   1.911   0.001  0.00  0.00    -0.255 N 
ATOM     12  C   UNL     1       1.140   3.256   0.009  0.00  0.00    +0.334 A 
ATOM     13  O   UNL     1       2.201   3.849   0.002  0.00  0.00    -0.246 OA
ATOM     14  N   UNL     1      -0.007   3.961   0.024  0.00  0.00    -0.279 N 
ATOM     15  C   UNL     1       0.034   5.425   0.031  0.00  0.00    +0.155 C 
ATOM     16  C   UNL     1      -5.940   0.083   0.058  0.00  0.00    +0.065 C 
ENDROOT
BRANCH   1  21
ATOM     17  C   UNL     1      -9.069   5.829   0.116  0.00  0.00    +0.044 C 
ATOM     18  C   UNL     1      -7.890   4.891   0.100  0.00  0.00    -0.050 A 
ATOM     19  C   UNL     1      -7.360   4.468  -1.106  0.00  0.00    +0.005 A 
ATOM     20  C   UNL     1      -6.277   3.613  -1.123  0.00  0.00    +0.027 A 
ATOM     21  C   UNL     1      -5.724   3.169   0.072  0.00  0.00    +0.053 A 
ATOM     22  C   UNL     1      -6.258   3.596   1.280  0.00  0.00    -0.026 A 
ATOM     23  C   UNL     1      -7.339   4.456   1.291  0.00  0.00    +0.008 A 
ATOM     24  C   UNL     1      -5.657   3.123   2.579  0.00  0.00    +0.046 C 
ENDBRANCH   1  21
BRANCH  11  25
ATOM     25  C   UNL     1       2.416   1.192  -0.014  0.00  0.00    +0.165 C 
BRANCH  25  26
ATOM     26  C   UNL     1       2.840   0.952  -1.440  0.00  0.00    -0.027 A 
ATOM     27  C   UNL     1       2.451  -0.203  -2.092  0.00  0.00    +0.007 A 
ATOM     28  C   UNL     1       2.835  -0.421  -3.402  0.00  0.00    +0.020 A 
ATOM     29  C   UNL     1       3.619   0.512  -4.057  0.00  0.00    +0.041 A 
ATOM     30  C   UNL     1       4.013   1.666  -3.402  0.00  0.00    +0.020 A 
ATOM     31  C   UNL     1       3.623   1.885  -2.094  0.00  0.00    +0.007 A 
ATOM     32 CL   UNL     1       4.107   0.237  -5.700  0.00  0.00    -0.084 Cl
ENDBRANCH  25  26
ENDBRANCH  11  25
TORSDOF 3
