REMARK  Name = ZINC66814425
REMARK  1 active torsions:
REMARK  status: ('A' for Active; 'I' for Inactive)
REMARK    1  A    between atoms: C_5  and  C_7
REMARK                            x       y       z     vdW  Elec       q    Type
REMARK                         _______ _______ _______ _____ _____    ______ ____
ROOT
ATOM      1  C   UNL     1       1.217  -2.375   0.205  0.00  0.00    +0.168 C 
ATOM      2  C   UNL     1       1.455  -2.719  -1.269  0.00  0.00    +0.143 C 
ATOM      3  N   UNL     1       1.173  -4.150  -1.464  0.00  0.00    -0.309 N 
ATOM      4  C   UNL     1      -0.104  -4.679  -0.959  0.00  0.00    +0.134 C 
ATOM      5  C   UNL     1      -0.266  -4.240   0.500  0.00  0.00    +0.179 C 
ATOM      6  O   UNL     1      -0.085  -2.825   0.590  0.00  0.00    -0.369 OA
ATOM      7  C   UNL     1       2.087  -4.978  -2.106  0.00  0.00    +0.141 A 
ATOM      8  C   UNL     1       3.185  -4.428  -2.764  0.00  0.00    +0.154 A 
ATOM      9  N   UNL     1       4.051  -5.217  -3.372  0.00  0.00    -0.257 NA
ATOM     10  C   UNL     1       3.877  -6.528  -3.357  0.00  0.00    +0.151 A 
ATOM     11  C   UNL     1       2.789  -7.078  -2.704  0.00  0.00    +0.149 A 
ATOM     12  N   UNL     1       1.919  -6.294  -2.088  0.00  0.00    -0.218 NA
ATOM     13 CL   UNL     1       2.566  -8.800  -2.689  0.00  0.00    -0.060 Cl
ENDROOT
BRANCH   1  18
ATOM     14  C   UNL     1       0.252   1.259   0.546  0.00  0.00    +0.001 A 
ATOM     15  C   UNL     1       1.484   1.855   0.746  0.00  0.00    +0.003 A 
ATOM     16  C   UNL     1       2.630   1.084   0.772  0.00  0.00    +0.039 A 
ATOM     17  C   UNL     1       2.544  -0.287   0.597  0.00  0.00    +0.129 A 
ATOM     18  C   UNL     1       1.311  -0.883   0.397  0.00  0.00    +0.018 A 
ATOM     19  C   UNL     1       0.166  -0.109   0.371  0.00  0.00    +0.009 A 
ATOM     20  F   UNL     1       3.664  -1.043   0.622  0.00  0.00    -0.205 F 
ENDBRANCH   1  18
TORSDOF 1
