REMARK  Name = ZINC04886757
REMARK  11 active torsions:
REMARK  status: ('A' for Active; 'I' for Inactive)
REMARK    1  A    between atoms: C_1  and  N_68
REMARK    2  A    between atoms: C_8  and  O_34
REMARK    3  A    between atoms: C_10  and  C_12
REMARK    4  A    between atoms: C_17  and  O_32
REMARK    5  A    between atoms: C_18  and  O_30
REMARK    6  A    between atoms: C_20  and  C_22
REMARK    7  A    between atoms: C_20  and  O_29
REMARK    8  A    between atoms: C_22  and  C_23
REMARK    9  A    between atoms: O_30  and  C_31
REMARK   10  A    between atoms: O_32  and  C_33
REMARK   11  A    between atoms: O_34  and  C_35
REMARK                            x       y       z     vdW  Elec       q    Type
REMARK                         _______ _______ _______ _____ _____    ______ ____
ROOT
ATOM      1  C   UNL     1      -3.305   5.771   0.528  0.00  0.00    +0.143 C 
ATOM      2  C   UNL     1      -2.091   5.499   1.385  0.00  0.00    -0.008 A 
ATOM      3  C   UNL     1      -1.189   6.330   2.019  0.00  0.00    +0.010 A 
ATOM      4  C   UNL     1      -0.150   5.792   2.755  0.00  0.00    +0.050 A 
ATOM      5  C   UNL     1      -0.015   4.418   2.863  0.00  0.00    +0.162 A 
ATOM      6  C   UNL     1      -0.921   3.579   2.220  0.00  0.00    +0.170 A 
ATOM      7  C   UNL     1      -1.958   4.123   1.485  0.00  0.00    +0.062 A 
ATOM      8  C   UNL     1      -3.086   3.505   0.692  0.00  0.00    +0.202 C 
ATOM      9  O   UNL     1      -3.577   4.544  -0.174  0.00  0.00    -0.338 OA
ENDROOT
BRANCH   1  19
ATOM     10  C   UNL     1      -0.693   6.216  -0.671  0.00  0.00    -0.095 C 
ATOM     11  C   UNL     1      -1.768   7.450  -2.459  0.00  0.00    -0.074 C 
ATOM     12  C   UNL     1      -2.980   7.389  -3.390  0.00  0.00    +0.017 C 
ATOM     13  C   UNL     1      -4.252   7.469  -2.584  0.00  0.00    -0.040 A 
ATOM     14  C   UNL     1      -5.431   7.784  -3.243  0.00  0.00    +0.053 A 
ATOM     15  C   UNL     1      -6.625   7.862  -2.547  0.00  0.00    +0.170 A 
ATOM     16  C   UNL     1      -6.642   7.622  -1.177  0.00  0.00    +0.208 A 
ATOM     17  C   UNL     1      -5.460   7.309  -0.521  0.00  0.00    +0.167 A 
ATOM     18  C   UNL     1      -4.263   7.234  -1.226  0.00  0.00    -0.009 A 
ATOM     19  C   UNL     1      -3.006   6.894  -0.467  0.00  0.00    -0.000 C 
ATOM     20  O   UNL     1      -7.924   7.757  -0.726  0.00  0.00    -0.449 OA
ATOM     21  C   UNL     1      -8.620   8.480  -1.757  0.00  0.00    +0.467 C 
ATOM     22  O   UNL     1      -7.896   8.147  -2.956  0.00  0.00    -0.452 OA
ATOM     23  N   UNL     1      -1.962   6.439  -1.401  0.00  0.00    +0.385 N 
ATOM     24  H   UNL     1      -2.260   5.555  -1.831  0.00  0.00    -0.081 HD
BRANCH  17  25
ATOM     25  O   UNL     1      -5.473   7.074   0.819  0.00  0.00    -0.491 OA
ATOM     26  C   UNL     1      -5.272   8.199   1.677  0.00  0.00    +0.277 C 
ENDBRANCH  17  25
ENDBRANCH   1  19
BRANCH   8  27
ATOM     27  O   UNL     1      -4.123   3.065   1.571  0.00  0.00    -0.361 OA
ATOM     28  H   UNL     1      -4.875   2.659   1.120  0.00  0.00    +0.213 HD
ENDBRANCH   8  27
BRANCH   6  29
ATOM     29  O   UNL     1      -0.790   2.229   2.318  0.00  0.00    -0.491 OA
ATOM     30  C   UNL     1       0.007   1.580   1.325  0.00  0.00    +0.277 C 
ENDBRANCH   6  29
BRANCH   5  31
ATOM     31  O   UNL     1       1.004   3.888   3.592  0.00  0.00    -0.491 OA
ATOM     32  C   UNL     1       1.896   4.809   4.224  0.00  0.00    +0.277 C 
ENDBRANCH   5  31
BRANCH   8  33
ATOM     33  C   UNL     1      -2.564   2.330  -0.138  0.00  0.00    +0.105 C 
BRANCH  33  34
ATOM     34  C   UNL     1      -3.700   1.725  -0.922  0.00  0.00    -0.042 A 
ATOM     35  C   UNL     1      -4.448   0.700  -0.376  0.00  0.00    +0.004 A 
ATOM     36  C   UNL     1      -5.494   0.149  -1.093  0.00  0.00    +0.000 A 
ATOM     37  C   UNL     1      -5.784   0.616  -2.361  0.00  0.00    +0.000 A 
ATOM     38  C   UNL     1      -5.032   1.637  -2.910  0.00  0.00    +0.000 A 
ATOM     39  C   UNL     1      -3.990   2.192  -2.190  0.00  0.00    +0.004 A 
ENDBRANCH  33  34
ENDBRANCH   8  33
TORSDOF 7
