REMARK  Name = ZINC20919379
REMARK  11 active torsions:
REMARK  status: ('A' for Active; 'I' for Inactive)
REMARK    1  A    between atoms: C_4  and  C_7
REMARK    2  A    between atoms: C_7  and  C_8
REMARK    3  A    between atoms: C_8  and  C_29
REMARK    4  A    between atoms: N_9  and  N_10
REMARK    5  A    between atoms: C_14  and  S_17
REMARK    6  A    between atoms: N_15  and  N_16
REMARK    7  A    between atoms: S_17  and  C_18
REMARK    8  A    between atoms: C_18  and  C_19
REMARK    9  A    between atoms: N_21  and  N_22
REMARK   10  A    between atoms: C_23  and  C_25
REMARK   11  A    between atoms: C_29  and  C_30
REMARK                            x       y       z     vdW  Elec       q    Type
REMARK                         _______ _______ _______ _____ _____    ______ ____
ROOT
ATOM      1  N   UNL     1       1.689   3.128   0.002  0.00  0.00    -0.204 N 
ATOM      2  C   UNL     1       1.278   1.802  -0.001  0.00  0.00    +0.254 A 
ATOM      3  N   UNL     1       2.063   0.752  -0.014  0.00  0.00    -0.109 NA
ATOM      4  N   UNL     1       1.255  -0.392  -0.012  0.00  0.00    -0.119 NA
ATOM      5  C   UNL     1       0.002  -0.004   0.002  0.00  0.00    +0.210 A 
ATOM      6  N   UNL     1      -0.017   1.362   0.009  0.00  0.00    -0.211 N 
ATOM      7  H   UNL     1       0.942   3.936   0.013  0.00  0.00    +0.177 HD
ENDROOT
BRANCH   6   8
ATOM      8  N   UNL     1      -1.132   2.150   0.019  0.00  0.00    -0.294 N 
ATOM      9  H   UNL     1      -2.131   1.689   0.027  0.00  0.00    +0.163 HD
ATOM     10  H   UNL     1      -1.032   3.245   0.020  0.00  0.00    +0.163 HD
ENDBRANCH   6   8
BRANCH   1  12
ATOM     11  C   UNL     1       3.434   4.661  -0.007  0.00  0.00    +0.045 C 
ATOM     12  N   UNL     1       3.055   3.438  -0.009  0.00  0.00    -0.188 NA
BRANCH  11  13
ATOM     13  C   UNL     1       4.903   4.995  -0.019  0.00  0.00    +0.088 C 
BRANCH  13  17
ATOM     14  C   UNL     1       5.881   6.987  -3.669  0.00  0.00    +0.000 A 
ATOM     15  C   UNL     1       5.488   7.720  -2.565  0.00  0.00    +0.000 A 
ATOM     16  C   UNL     1       5.171   7.076  -1.384  0.00  0.00    +0.004 A 
ATOM     17  C   UNL     1       5.248   5.698  -1.307  0.00  0.00    -0.042 A 
ATOM     18  C   UNL     1       5.647   4.965  -2.409  0.00  0.00    +0.004 A 
ATOM     19  C   UNL     1       5.959   5.609  -3.591  0.00  0.00    +0.000 A 
ENDBRANCH  13  17
ENDBRANCH  11  13
BRANCH  11  20
ATOM     20  C   UNL     1       2.410   5.767   0.008  0.00  0.00    +0.088 C 
BRANCH  20  21
ATOM     21  C   UNL     1       2.082   6.129   1.434  0.00  0.00    -0.042 A 
ATOM     22  C   UNL     1       1.050   5.486   2.090  0.00  0.00    +0.004 A 
ATOM     23  C   UNL     1       0.752   5.814   3.399  0.00  0.00    +0.000 A 
ATOM     24  C   UNL     1       1.480   6.793   4.049  0.00  0.00    +0.000 A 
ATOM     25  C   UNL     1       2.509   7.440   3.391  0.00  0.00    +0.000 A 
ATOM     26  C   UNL     1       2.810   7.108   2.083  0.00  0.00    +0.004 A 
ENDBRANCH  20  21
ENDBRANCH  11  20
ENDBRANCH   1  12
BRANCH   5  27
ATOM     27  S   UNL     1      -1.409  -1.059   0.009  0.00  0.00    -0.075 S 
BRANCH  27  28
ATOM     28  C   UNL     1      -0.707  -2.732  -0.006  0.00  0.00    +0.174 C 
BRANCH  28  29
ATOM     29  C   UNL     1      -1.822  -3.745  -0.001  0.00  0.00    +0.239 C 
ATOM     30  O   UNL     1      -2.977  -3.375   0.011  0.00  0.00    -0.273 OA
ATOM     31  N   UNL     1      -1.536  -5.062  -0.011  0.00  0.00    -0.233 N 
ATOM     32  H   UNL     1      -0.489  -5.397  -0.022  0.00  0.00    +0.173 HD
BRANCH  31  33
ATOM     33  N   UNL     1      -2.573  -6.004  -0.007  0.00  0.00    -0.227 N 
ATOM     34  C   UNL     1      -2.288  -7.321  -0.016  0.00  0.00    +0.333 C 
ATOM     35  O   UNL     1      -1.132  -7.691  -0.029  0.00  0.00    -0.264 OA
ATOM     36  H   UNL     1      -3.621  -5.669   0.005  0.00  0.00    +0.173 HD
BRANCH  34  37
ATOM     37  C   UNL     1      -3.403  -8.334  -0.011  0.00  0.00    +0.471 C 
ATOM     38  F   UNL     1      -2.861  -9.624  -0.023  0.00  0.00    -0.162 F 
ATOM     39  F   UNL     1      -4.181  -8.166   1.139  0.00  0.00    -0.162 F 
ATOM     40  F   UNL     1      -4.202  -8.153  -1.145  0.00  0.00    -0.162 F 
ENDBRANCH  34  37
ENDBRANCH  31  33
ENDBRANCH  28  29
ENDBRANCH  27  28
ENDBRANCH   5  27
TORSDOF 11
