REMARK  Name = ZINC23967138
REMARK  8 active torsions:
REMARK  status: ('A' for Active; 'I' for Inactive)
REMARK    1  A    between atoms: C_1  and  C_2
REMARK    2  A    between atoms: C_2  and  C_3
REMARK    3  A    between atoms: C_8  and  N_9
REMARK    4  A    between atoms: C_10  and  C_12
REMARK    5  A    between atoms: C_12  and  C_14
REMARK    6  A    between atoms: C_12  and  S_15
REMARK    7  A    between atoms: S_15  and  C_16
REMARK    8  A    between atoms: C_19  and  C_22
REMARK                            x       y       z     vdW  Elec       q    Type
REMARK                         _______ _______ _______ _____ _____    ______ ____
ROOT
ATOM      1  C   UNL     1      -0.021   1.095   0.017  0.00  0.00    +0.137 C 
ATOM      2  C   UNL     1      -0.744   1.596   1.269  0.00  0.00    +0.029 C 
ENDROOT
BRANCH   1   4
ATOM      3  N   UNL     1      -1.854   0.954  -1.639  0.00  0.00    -0.284 N 
ATOM      4  C   UNL     1      -0.744   1.587  -1.211  0.00  0.00    +0.230 C 
ATOM      5  O   UNL     1      -0.326   2.553  -1.813  0.00  0.00    -0.274 OA
ATOM      6  H   UNL     1      -2.182   0.026  -1.148  0.00  0.00    +0.155 HD
BRANCH   3  12
ATOM      7  C   UNL     1      -3.387   0.642  -3.478  0.00  0.00    -0.026 A 
ATOM      8  C   UNL     1      -4.112   1.162  -4.533  0.00  0.00    +0.005 A 
ATOM      9  C   UNL     1      -4.043   2.512  -4.822  0.00  0.00    +0.000 A 
ATOM     10  C   UNL     1      -3.250   3.347  -4.056  0.00  0.00    +0.002 A 
ATOM     11  C   UNL     1      -2.527   2.834  -2.997  0.00  0.00    +0.023 A 
ATOM     12  C   UNL     1      -2.589   1.477  -2.708  0.00  0.00    +0.037 A 
BRANCH   7  14
ATOM     13  C   UNL     1      -4.517  -1.066  -2.080  0.00  0.00    +0.009 C 
ATOM     14  C   UNL     1      -3.463  -0.830  -3.164  0.00  0.00    +0.033 C 
ENDBRANCH   7  14
ENDBRANCH   3  12
ENDBRANCH   1   4
BRANCH   1  15
ATOM     15  S   UNL     1       1.677   1.720   0.010  0.00  0.00    -0.074 S 
BRANCH  15  16
ATOM     16  C   UNL     1       2.314   0.892   1.429  0.00  0.00    +0.185 A 
ATOM     17  N   UNL     1       3.584   0.989   1.921  0.00  0.00    -0.201 NA
ATOM     18  H   UNL     1       0.609  -0.269   2.162  0.00  0.00    +0.191 HD
ATOM     19  C   UNL     1       3.616   0.174   3.029  0.00  0.00    +0.182 A 
ATOM     20  N   UNL     1       2.424  -0.362   3.147  0.00  0.00    -0.152 NA
ATOM     21  N   UNL     1       1.655   0.068   2.212  0.00  0.00    -0.253 N 
BRANCH  19  22
ATOM     22  C   UNL     1       4.775  -0.055   3.918  0.00  0.00    +0.021 A 
ATOM     23  C   UNL     1       5.994   0.574   3.657  0.00  0.00    +0.013 A 
ATOM     24  C   UNL     1       7.070   0.359   4.493  0.00  0.00    +0.021 A 
ATOM     25  C   UNL     1       6.946  -0.485   5.583  0.00  0.00    +0.041 A 
ATOM     26  C   UNL     1       5.741  -1.116   5.844  0.00  0.00    +0.021 A 
ATOM     27  C   UNL     1       4.656  -0.906   5.018  0.00  0.00    +0.013 A 
ATOM     28 CL   UNL     1       8.307  -0.755   6.627  0.00  0.00    -0.084 Cl
ENDBRANCH  19  22
ENDBRANCH  15  16
ENDBRANCH   1  15
TORSDOF 6
