REMARK  Name = ZINC35426947
REMARK  4 active torsions:
REMARK  status: ('A' for Active; 'I' for Inactive)
REMARK    1  A    between atoms: C_1  and  C_2
REMARK    2  A    between atoms: C_7  and  N_8
REMARK    3  A    between atoms: C_23  and  C_25
REMARK    4  A    between atoms: N_27  and  C_30
REMARK                            x       y       z     vdW  Elec       q    Type
REMARK                         _______ _______ _______ _____ _____    ______ ____
ROOT
ATOM      1  N   UNL     1       0.025  -0.014   2.417  0.00  0.00    -0.269 N 
ATOM      2  C   UNL     1      -0.056  -0.693   3.578  0.00  0.00    +0.307 C 
ATOM      3  O   UNL     1      -0.040  -1.909   3.574  0.00  0.00    -0.252 OA
ATOM      4  N   UNL     1      -0.156  -0.025   4.745  0.00  0.00    -0.273 N 
ATOM      5  C   UNL     1      -0.185   1.448   4.791  0.00  0.00    +0.148 C 
ATOM      6  C   UNL     1       0.610   2.013   5.947  0.00  0.00    +0.004 A 
ATOM      7  C   UNL     1       1.813   2.723   5.779  0.00  0.00    -0.034 A 
ATOM      8  C   UNL     1       2.431   3.199   6.894  0.00  0.00    -0.021 A 
ATOM      9  S   UNL     1       1.369   2.683   8.218  0.00  0.00    -0.077 S 
ATOM     10  C   UNL     1       0.171   1.846   7.224  0.00  0.00    +0.090 A 
ATOM     11  N   UNL     1      -0.971   1.135   7.569  0.00  0.00    -0.312 N 
ATOM     12  C   UNL     1      -1.984   1.422   8.419  0.00  0.00    +0.092 A 
ATOM     13  C   UNL     1      -2.894   0.424   8.339  0.00  0.00    +0.020 A 
ATOM     14  C   UNL     1      -2.405  -0.522   7.413  0.00  0.00    +0.025 A 
ATOM     15  C   UNL     1      -1.218  -0.080   6.973  0.00  0.00    +0.044 A 
ATOM     16  C   UNL     1      -0.248  -0.736   6.042  0.00  0.00    +0.122 C 
ATOM     17  C   UNL     1       1.134  -0.753   6.700  0.00  0.00    +0.035 C 
ATOM     18  C   UNL     1       3.708   3.970   6.952  0.00  0.00    -0.036 C 
ATOM     19  N   UNL     1       4.395   3.824   5.655  0.00  0.00    +0.381 N 
ATOM     20  C   UNL     1       3.455   4.121   4.567  0.00  0.00    -0.074 C 
ATOM     21  C   UNL     1       2.443   2.982   4.412  0.00  0.00    +0.018 C 
ATOM     22  C   UNL     1       5.527   4.758   5.593  0.00  0.00    -0.096 C 
ATOM     23  H   UNL     1       0.078   0.955   2.425  0.00  0.00    +0.156 HD
ATOM     24  H   UNL     1       4.734   2.878   5.558  0.00  0.00    -0.082 HD
ENDROOT
BRANCH   1  31
ATOM     25  C   UNL     1      -1.265   1.183   0.181  0.00  0.00    +0.045 C 
ATOM     26  C   UNL     1      -0.584  -0.158   0.084  0.00  0.00    -0.029 A 
ATOM     27  C   UNL     1      -0.569  -0.840  -1.117  0.00  0.00    +0.006 A 
ATOM     28  C   UNL     1       0.055  -2.071  -1.207  0.00  0.00    +0.020 A 
ATOM     29  C   UNL     1       0.667  -2.622  -0.095  0.00  0.00    +0.043 A 
ATOM     30  C   UNL     1       0.656  -1.944   1.109  0.00  0.00    +0.043 A 
ATOM     31  C   UNL     1       0.034  -0.706   1.201  0.00  0.00    +0.039 A 
ATOM     32 CL   UNL     1       1.450  -4.168  -0.212  0.00  0.00    -0.083 Cl
ENDBRANCH   1  31
TORSDOF 1
