REMARK  Name = ZINC40777728
REMARK  5 active torsions:
REMARK  status: ('A' for Active; 'I' for Inactive)
REMARK    1  A    between atoms: C_4  and  N_7
REMARK    2  A    between atoms: N_7  and  C_8
REMARK    3  A    between atoms: N_7  and  N_14
REMARK    4  A    between atoms: C_16  and  N_31
REMARK    5  A    between atoms: C_17  and  N_21
REMARK                            x       y       z     vdW  Elec       q    Type
REMARK                         _______ _______ _______ _____ _____    ______ ____
ROOT
ATOM      1  N   UNL     1       4.882  -0.018  -0.100  0.00  0.00    -0.243 N 
ATOM      2  C   UNL     1       5.594   0.199   1.073  0.00  0.00    +0.139 A 
ATOM      3  C   UNL     1       6.776   0.942   1.057  0.00  0.00    +0.105 A 
ATOM      4  C   UNL     1       7.452   1.131   2.264  0.00  0.00    +0.147 A 
ATOM      5  N   UNL     1       6.948   0.599   3.375  0.00  0.00    -0.221 NA
ATOM      6  C   UNL     1       5.829  -0.096   3.346  0.00  0.00    +0.200 A 
ATOM      7  N   UNL     1       5.157  -0.293   2.230  0.00  0.00    -0.332 N 
ATOM      8  H   UNL     1       5.207   0.344  -0.939  0.00  0.00    +0.172 HD
ATOM      9  H   UNL     1       4.335  -0.807   2.251  0.00  0.00    +0.168 HD
ENDROOT
BRANCH   4  10
ATOM     10  N   UNL     1       8.633   1.862   2.304  0.00  0.00    -0.309 N 
ATOM     11  C   UNL     1       8.623   3.326   2.459  0.00  0.00    +0.111 C 
ATOM     12  C   UNL     1       9.292   3.662   3.791  0.00  0.00    +0.054 C 
ATOM     13  C   UNL     1      10.588   2.912   3.944  0.00  0.00    -0.041 A 
ATOM     14  C   UNL     1      11.512   3.402   4.859  0.00  0.00    +0.004 A 
ATOM     15  C   UNL     1      12.716   2.757   5.055  0.00  0.00    +0.000 A 
ATOM     16  C   UNL     1      13.007   1.611   4.338  0.00  0.00    +0.000 A 
ATOM     17  C   UNL     1      12.092   1.124   3.427  0.00  0.00    +0.005 A 
ATOM     18  C   UNL     1      10.883   1.776   3.224  0.00  0.00    -0.027 A 
ATOM     19  C   UNL     1       9.941   1.205   2.200  0.00  0.00    +0.142 C 
ENDBRANCH   4  10
BRANCH   3  20
ATOM     20  N   UNL     1       7.271   1.485  -0.140  0.00  0.00    -0.353 N 
ATOM     21  H   UNL     1       6.747   1.425  -0.953  0.00  0.00    +0.143 HD
ATOM     22  H   UNL     1       8.138   1.920  -0.153  0.00  0.00    +0.143 HD
ENDBRANCH   3  20
BRANCH   1  23
ATOM     23  N   UNL     1       3.694  -0.761  -0.071  0.00  0.00    -0.221 N 
BRANCH  23  27
ATOM     24  C   UNL     1       0.021   1.176  -0.392  0.00  0.00    +0.000 A 
ATOM     25  C   UNL     1       0.976   1.648   0.490  0.00  0.00    +0.002 A 
ATOM     26  C   UNL     1       2.195   1.009   0.599  0.00  0.00    +0.025 A 
ATOM     27  C   UNL     1       2.462  -0.111  -0.178  0.00  0.00    +0.053 A 
ATOM     28  C   UNL     1       1.500  -0.583  -1.063  0.00  0.00    +0.025 A 
ATOM     29  C   UNL     1       0.284   0.061  -1.167  0.00  0.00    +0.002 A 
ENDBRANCH  23  27
BRANCH  23  30
ATOM     30  C   UNL     1       3.742  -2.150   0.065  0.00  0.00    +0.053 A 
ATOM     31  C   UNL     1       4.843  -2.858  -0.401  0.00  0.00    +0.025 A 
ATOM     32  C   UNL     1       4.887  -4.231  -0.265  0.00  0.00    +0.002 A 
ATOM     33  C   UNL     1       3.836  -4.902   0.334  0.00  0.00    +0.000 A 
ATOM     34  C   UNL     1       2.739  -4.201   0.799  0.00  0.00    +0.002 A 
ATOM     35  C   UNL     1       2.691  -2.827   0.672  0.00  0.00    +0.025 A 
ENDBRANCH  23  30
ENDBRANCH   1  23
TORSDOF 5
