REMARK  Name = ZINC41918576
REMARK  7 active torsions:
REMARK  status: ('A' for Active; 'I' for Inactive)
REMARK    1  A    between atoms: C_1  and  C_2
REMARK    2  A    between atoms: C_3  and  C_21
REMARK    3  A    between atoms: N_5  and  C_8
REMARK    4  A    between atoms: C_6  and  C_7
REMARK    5  A    between atoms: C_8  and  C_9
REMARK    6  A    between atoms: C_8  and  C_10
REMARK    7  A    between atoms: C_8  and  C_18
REMARK                            x       y       z     vdW  Elec       q    Type
REMARK                         _______ _______ _______ _____ _____    ______ ____
ROOT
ATOM      1  C   UNL     1       0.054  -3.280   1.509  0.00  0.00    +0.186 C 
ATOM      2  C   UNL     1      -1.119  -3.239   2.491  0.00  0.00    +0.054 C 
ENDROOT
BRANCH   1   7
ATOM      3  C   UNL     1      -0.061   1.503   0.014  0.00  0.00    +0.047 C 
ATOM      4  C   UNL     1      -0.027  -0.004   0.004  0.00  0.00    -0.007 A 
ATOM      5  C   UNL     1      -0.013  -0.819  -1.132  0.00  0.00    +0.063 A 
ATOM      6  N   UNL     1       0.017  -2.067  -0.739  0.00  0.00    -0.175 NA
ATOM      7  N   UNL     1       0.023  -2.084   0.662  0.00  0.00    -0.247 N 
ATOM      8  C   UNL     1       0.001  -0.806   1.093  0.00  0.00    +0.041 A 
ATOM      9  C   UNL     1       0.004  -0.353   2.531  0.00  0.00    +0.065 C 
ATOM     10  C   UNL     1      -0.029  -0.344  -2.562  0.00  0.00    +0.068 C 
ENDBRANCH   1   7
BRANCH   1  11
ATOM     11  C   UNL     1      -0.056  -4.510   0.646  0.00  0.00    -0.008 A 
ATOM     12  C   UNL     1      -1.170  -5.323   0.740  0.00  0.00    +0.008 A 
ATOM     13  C   UNL     1      -1.272  -6.452  -0.051  0.00  0.00    +0.022 A 
ATOM     14  C   UNL     1      -0.259  -6.769  -0.938  0.00  0.00    +0.059 A 
ATOM     15  C   UNL     1       0.857  -5.954  -1.033  0.00  0.00    +0.060 A 
ATOM     16  C   UNL     1       0.955  -4.822  -0.244  0.00  0.00    +0.028 A 
ATOM     17 CL   UNL     1       2.129  -6.350  -2.146  0.00  0.00    -0.082 Cl
ATOM     18 CL   UNL     1      -0.386  -8.187  -1.931  0.00  0.00    -0.082 Cl
ENDBRANCH   1  11
BRANCH   1  19
ATOM     19  C   UNL     1       1.351  -3.318   2.276  0.00  0.00    +0.387 C 
ATOM     20  O   UNL     1       2.173  -2.430   2.129  0.00  0.00    -0.243 OA
ATOM     21  O   UNL     1       1.577  -4.238   3.044  0.00  0.00    -0.243 OA
ENDBRANCH   1  19
TORSDOF 3
