REMARK  Name = ZINC02569391
REMARK  7 active torsions:
REMARK  status: ('A' for Active; 'I' for Inactive)
REMARK    1  A    between atoms: C_3  and  N_12
REMARK    2  A    between atoms: C_4  and  N_8
REMARK    3  A    between atoms: N_12  and  C_13
REMARK    4  A    between atoms: C_13  and  C_14
REMARK    5  A    between atoms: C_14  and  N_15
REMARK    6  A    between atoms: N_15  and  C_16
REMARK    7  A    between atoms: C_19  and  C_21
REMARK                            x       y       z     vdW  Elec       q    Type
REMARK                         _______ _______ _______ _____ _____    ______ ____
ROOT
ATOM      1  N   UNL     1      -3.612  -2.025  -0.167  0.00  0.00    -0.341 N 
ATOM      2  H   UNL     1      -3.589  -1.058  -0.099  0.00  0.00    +0.146 HD
ENDROOT
BRANCH   1   5
ATOM      3  C   UNL     1      -1.267  -4.856  -0.281  0.00  0.00    +0.022 A 
ATOM      4  C   UNL     1      -2.448  -4.137  -0.272  0.00  0.00    +0.026 A 
ATOM      5  C   UNL     1      -2.417  -2.754  -0.176  0.00  0.00    +0.049 A 
ATOM      6  C   UNL     1      -1.193  -2.092  -0.088  0.00  0.00    +0.057 A 
ATOM      7  C   UNL     1      -0.013  -2.819  -0.103  0.00  0.00    +0.045 A 
ATOM      8  C   UNL     1      -0.052  -4.199  -0.194  0.00  0.00    +0.043 A 
ATOM      9 CL   UNL     1       1.426  -5.109  -0.206  0.00  0.00    -0.083 Cl
BRANCH   6  10
ATOM     10  N   UNL     1      -1.156  -0.694   0.009  0.00  0.00    -0.268 N 
ATOM     11  C   UNL     1      -0.159  -0.004  -0.580  0.00  0.00    +0.301 C 
ATOM     12  O   UNL     1       0.751  -0.597  -1.126  0.00  0.00    -0.253 OA
ATOM     13  N   UNL     1      -0.172   1.344  -0.564  0.00  0.00    -0.313 N 
ATOM     14  H   UNL     1      -1.847  -0.223   0.501  0.00  0.00    +0.156 HD
ATOM     15  H   UNL     1       0.545   1.841  -0.988  0.00  0.00    +0.146 HD
ATOM     16  H   UNL     1      -0.900   1.817  -0.132  0.00  0.00    +0.146 HD
ENDBRANCH   6  10
ENDBRANCH   1   5
BRANCH   1  17
ATOM     17  C   UNL     1      -4.897  -2.723  -0.259  0.00  0.00    +0.120 C 
BRANCH  17  18
ATOM     18  C   UNL     1      -6.035  -1.701  -0.228  0.00  0.00    +0.121 C 
BRANCH  18  19
ATOM     19  N   UNL     1      -7.320  -2.399  -0.320  0.00  0.00    -0.328 N 
ATOM     20  H   UNL     1      -7.343  -3.366  -0.388  0.00  0.00    +0.147 HD
BRANCH  19  21
ATOM     21  C   UNL     1      -8.507  -1.674  -0.311  0.00  0.00    +0.115 A 
ATOM     22  C   UNL     1      -9.725  -2.343  -0.405  0.00  0.00    +0.079 A 
ATOM     23  C   UNL     1     -10.898  -1.609  -0.389  0.00  0.00    +0.037 A 
ATOM     24  C   UNL     1     -10.814  -0.227  -0.290  0.00  0.00    +0.072 A 
ATOM     25  C   UNL     1      -9.572   0.371  -0.206  0.00  0.00    +0.096 A 
ATOM     26 CL   UNL     1      -9.771  -4.074  -0.533  0.00  0.00    -0.080 Cl
ATOM     27  N   UNL     1      -8.399  -0.318  -0.213  0.00  0.00    -0.348 N 
ATOM     28  H   UNL     1      -7.490   0.154  -0.150  0.00  0.00    +0.167 HD
BRANCH  24  29
ATOM     29  C   UNL     1     -12.065   0.613  -0.275  0.00  0.00    +0.419 C 
ATOM     30  F   UNL     1     -11.718   1.964  -0.169  0.00  0.00    -0.166 F 
ATOM     31  F   UNL     1     -12.780   0.406  -1.459  0.00  0.00    -0.166 F 
ATOM     32  F   UNL     1     -12.858   0.248   0.819  0.00  0.00    -0.166 F 
ENDBRANCH  24  29
ENDBRANCH  19  21
ENDBRANCH  18  19
ENDBRANCH  17  18
ENDBRANCH   1  17
TORSDOF 7
