REMARK  Name = ZINC17144156
REMARK  6 active torsions:
REMARK  status: ('A' for Active; 'I' for Inactive)
REMARK    1  A    between atoms: C_1  and  C_2
REMARK    2  A    between atoms: C_15  and  C_17
REMARK    3  A    between atoms: C_20  and  S_23
REMARK    4  A    between atoms: S_23  and  N_26
REMARK    5  A    between atoms: C_28  and  C_35
REMARK    6  A    between atoms: C_31  and  C_34
REMARK                            x       y       z     vdW  Elec       q    Type
REMARK                         _______ _______ _______ _____ _____    ______ ____
ROOT
ATOM      1  C   UNL     1     -16.102  -3.746  -3.148  0.00  0.00    +0.073 C 
ATOM      2  C   UNL     1     -14.942  -3.029  -2.506  0.00  0.00    +0.076 A 
ATOM      3  N   UNL     1     -14.684  -2.882  -1.237  0.00  0.00    -0.244 NA
ATOM      4  C   UNL     1     -13.603  -2.212  -0.790  0.00  0.00    +0.080 A 
ATOM      5  C   UNL     1     -13.186  -1.966   0.541  0.00  0.00    +0.031 A 
ATOM      6  C   UNL     1     -12.066  -1.269   0.825  0.00  0.00    +0.031 A 
ATOM      7  C   UNL     1     -11.230  -0.735  -0.190  0.00  0.00    +0.081 A 
ATOM      8  C   UNL     1     -11.641  -0.977  -1.519  0.00  0.00    +0.057 A 
ATOM      9  C   UNL     1     -12.776  -1.683  -1.808  0.00  0.00    +0.055 A 
ATOM     10  S   UNL     1     -13.628  -2.199  -3.278  0.00  0.00    -0.071 S 
ATOM     11  S   UNL     1     -10.367  -0.169  -2.459  0.00  0.00    -0.051 S 
ATOM     12  C   UNL     1      -9.402   0.418  -1.074  0.00  0.00    +0.166 A 
ATOM     13  N   UNL     1     -10.088  -0.029  -0.048  0.00  0.00    -0.225 NA
ATOM     14  N   UNL     1      -8.227   1.152  -1.081  0.00  0.00    -0.261 N 
ATOM     15  C   UNL     1      -7.645   1.503   0.083  0.00  0.00    +0.250 C 
ATOM     16  O   UNL     1      -8.150   1.175   1.139  0.00  0.00    -0.270 OA
ATOM     17  H   UNL     1      -7.824   1.413  -1.923  0.00  0.00    +0.157 HD
ENDROOT
BRANCH  15  18
ATOM     18  C   UNL     1      -6.391   2.286   0.075  0.00  0.00    +0.037 A 
ATOM     19  C   UNL     1      -5.785   2.651   1.279  0.00  0.00    +0.015 A 
ATOM     20  C   UNL     1      -4.616   3.382   1.264  0.00  0.00    +0.029 A 
ATOM     21  C   UNL     1      -4.043   3.754   0.061  0.00  0.00    +0.106 A 
ATOM     22  C   UNL     1      -4.642   3.400  -1.135  0.00  0.00    +0.029 A 
ATOM     23  C   UNL     1      -5.809   2.664  -1.135  0.00  0.00    +0.015 A 
BRANCH  21  24
ATOM     24  S   UNL     1      -2.550   4.688   0.052  0.00  0.00    +0.061 S 
ATOM     25  O   UNL     1      -2.485   5.364   1.300  0.00  0.00    -0.153 OA
ATOM     26  O   UNL     1      -2.509   5.377  -1.190  0.00  0.00    -0.153 OA
BRANCH  24  27
ATOM     27  N   UNL     1      -1.296   3.606   0.034  0.00  0.00    -0.176 NA
ATOM     28  C   UNL     1      -0.741   3.124  -1.238  0.00  0.00    +0.112 C 
ATOM     29  C   UNL     1      -0.752   1.593  -1.232  0.00  0.00    +0.002 C 
ATOM     30  C   UNL     1      -0.013   1.086   0.008  0.00  0.00    +0.009 C 
ATOM     31  C   UNL     1      -0.729   1.579   1.268  0.00  0.00    +0.002 C 
ATOM     32  C   UNL     1      -0.717   3.111   1.290  0.00  0.00    +0.112 C 
ATOM     33  C   UNL     1      -0.008   1.045   2.507  0.00  0.00    +0.009 C 
ATOM     34  C   UNL     1      -2.198   1.093  -1.204  0.00  0.00    +0.009 C 
ENDBRANCH  24  27
ENDBRANCH  21  24
ENDBRANCH  15  18
TORSDOF 3
