REMARK  Name = ZINC08328584
REMARK  3 active torsions:
REMARK  status: ('A' for Active; 'I' for Inactive)
REMARK    1  A    between atoms: C_1  and  C_2
REMARK    2  A    between atoms: N_11  and  C_15
REMARK    3  A    between atoms: C_15  and  C_16
REMARK                            x       y       z     vdW  Elec       q    Type
REMARK                         _______ _______ _______ _____ _____    ______ ____
ROOT
ATOM      1  C   UNL     1      -4.701  -2.022  -2.537  0.00  0.00    +0.010 C 
ATOM      2  C   UNL     1      -4.165  -1.152  -3.676  0.00  0.00    +0.018 C 
ATOM      3  C   UNL     1      -4.966   0.151  -3.742  0.00  0.00    +0.006 C 
ATOM      4  C   UNL     1      -4.416   1.030  -4.867  0.00  0.00    +0.000 C 
ATOM      5  C   UNL     1      -2.948   1.359  -4.587  0.00  0.00    +0.003 C 
ATOM      6  C   UNL     1      -2.139   0.061  -4.525  0.00  0.00    +0.035 C 
ATOM      7  C   UNL     1      -2.695  -0.835  -3.424  0.00  0.00    +0.115 C 
ATOM      8  C   UNL     1      -2.524  -0.184  -2.071  0.00  0.00    +0.247 C 
ATOM      9  O   UNL     1      -3.001   0.865  -1.696  0.00  0.00    -0.273 OA
ATOM     10  N   UNL     1      -1.726  -1.016  -1.369  0.00  0.00    -0.220 N 
ATOM     11  C   UNL     1      -1.382  -2.092  -2.087  0.00  0.00    +0.310 C 
ATOM     12  O   UNL     1      -0.673  -2.986  -1.669  0.00  0.00    -0.252 OA
ATOM     13  N   UNL     1      -1.912  -2.074  -3.325  0.00  0.00    -0.285 N 
ATOM     14  H   UNL     1      -1.799  -2.746  -4.015  0.00  0.00    +0.151 HD
ENDROOT
BRANCH  10  15
ATOM     15  C   UNL     1      -1.293  -0.774   0.009  0.00  0.00    +0.153 C 
BRANCH  15  16
ATOM     16  C   UNL     1       0.002  -0.004   0.002  0.00  0.00    -0.025 A 
ATOM     17  C   UNL     1       1.207  -0.681  -0.012  0.00  0.00    +0.054 A 
ATOM     18  C   UNL     1       2.401   0.024  -0.019  0.00  0.00    +0.164 A 
ATOM     19  C   UNL     1       2.383   1.413  -0.013  0.00  0.00    +0.180 A 
ATOM     20  C   UNL     1       1.171   2.088   0.002  0.00  0.00    +0.086 A 
ATOM     21  C   UNL     1      -0.017   1.378   0.010  0.00  0.00    +0.029 A 
ATOM     22 CL   UNL     1       1.143   3.824   0.011  0.00  0.00    -0.080 Cl
ATOM     23  O   UNL     1       3.543   2.125  -0.025  0.00  0.00    -0.483 OA
ATOM     24  C   UNL     1       4.735   1.419   0.338  0.00  0.00    +0.270 C 
ATOM     25  C   UNL     1       4.746   0.080  -0.411  0.00  0.00    +0.270 C 
ATOM     26  O   UNL     1       3.579  -0.657  -0.029  0.00  0.00    -0.485 OA
ENDBRANCH  15  16
ENDBRANCH  10  15
TORSDOF 2
