REMARK  Name = ZINC05945452
REMARK  3 active torsions:
REMARK  status: ('A' for Active; 'I' for Inactive)
REMARK    1  A    between atoms: C_12  and  C_20
REMARK    2  A    between atoms: C_14  and  C_18
REMARK    3  A    between atoms: C_15  and  N_17
REMARK                            x       y       z     vdW  Elec       q    Type
REMARK                         _______ _______ _______ _____ _____    ______ ____
ROOT
ATOM      1  C   UNL     1      -0.780   6.233   1.222  0.00  0.00    +0.015 A 
ATOM      2  C   UNL     1       0.285   5.490   0.807  0.00  0.00    +0.047 A 
ATOM      3  C   UNL     1       0.114   4.160   0.416  0.00  0.00    +0.138 A 
ATOM      4  C   UNL     1      -1.142   3.580   0.446  0.00  0.00    +0.050 A 
ATOM      5  C   UNL     1      -2.240   4.323   0.866  0.00  0.00    +0.147 A 
ATOM      6  C   UNL     1      -2.056   5.661   1.258  0.00  0.00    +0.018 A 
ATOM      7  C   UNL     1      -3.217   6.439   1.699  0.00  0.00    +0.018 A 
ATOM      8  C   UNL     1      -4.426   5.818   1.708  0.00  0.00    +0.092 A 
ATOM      9  C   UNL     1      -4.522   4.473   1.300  0.00  0.00    +0.337 A 
ATOM     10  O   UNL     1      -5.615   3.936   1.315  0.00  0.00    -0.245 OA
ATOM     11  O   UNL     1      -3.465   3.761   0.896  0.00  0.00    -0.422 OA
ATOM     12  C   UNL     1      -1.337   2.148   0.020  0.00  0.00    +0.103 C 
ATOM     13  C   UNL     1      -0.017   1.428   0.010  0.00  0.00    +0.098 C 
ATOM     14  C   UNL     1       1.153   2.108   0.002  0.00  0.00    +0.199 C 
ATOM     15  O   UNL     1       1.195   3.451   0.009  0.00  0.00    -0.441 OA
ENDROOT
BRANCH  12  16
ATOM     16  C   UNL     1      -1.937   2.109  -1.361  0.00  0.00    -0.016 A 
ATOM     17  C   UNL     1      -1.260   2.675  -2.426  0.00  0.00    +0.007 A 
ATOM     18  C   UNL     1      -1.807   2.635  -3.694  0.00  0.00    +0.020 A 
ATOM     19  C   UNL     1      -3.039   2.038  -3.897  0.00  0.00    +0.042 A 
ATOM     20  C   UNL     1      -3.720   1.477  -2.832  0.00  0.00    +0.040 A 
ATOM     21  C   UNL     1      -3.169   1.513  -1.564  0.00  0.00    +0.046 A 
ATOM     22 CL   UNL     1      -4.023   0.809  -0.226  0.00  0.00    -0.083 Cl
ATOM     23 CL   UNL     1      -3.730   1.994  -5.490  0.00  0.00    -0.083 Cl
ENDBRANCH  12  16
BRANCH  14  24
ATOM     24  N   UNL     1       2.332   1.406  -0.013  0.00  0.00    -0.328 N 
ATOM     25  H   UNL     1       2.319   0.436  -0.018  0.00  0.00    +0.145 HD
ATOM     26  H   UNL     1       3.179   1.879  -0.018  0.00  0.00    +0.145 HD
ENDBRANCH  14  24
BRANCH  13  27
ATOM     27  C   UNL     1       0.002  -0.004   0.002  0.00  0.00    +0.101 C 
ATOM     28  N   UNL     1       0.018  -1.140  -0.004  0.00  0.00    -0.191 NA
ENDBRANCH  13  27
TORSDOF 3
