REMARK  Name = ZINC35336039
REMARK  17 active torsions:
REMARK  status: ('A' for Active; 'I' for Inactive)
REMARK    1  A    between atoms: C_1  and  C_2
REMARK    2  A    between atoms: C_2  and  C_3
REMARK    3  A    between atoms: C_3  and  C_4
REMARK    4  A    between atoms: C_4  and  N_5
REMARK    5  A    between atoms: N_5  and  C_6
REMARK    6  A    between atoms: C_6  and  C_7
REMARK    7  A    between atoms: N_11  and  C_12
REMARK    8  A    between atoms: C_13  and  C_15
REMARK    9  A    between atoms: C_15  and  N_16
REMARK   10  A    between atoms: N_16  and  C_17
REMARK   11  A    between atoms: C_17  and  C_18
REMARK   12  A    between atoms: C_18  and  C_19
REMARK   13  A    between atoms: C_19  and  O_20
REMARK   14  A    between atoms: O_20  and  C_21
REMARK   15  A    between atoms: C_21  and  C_22
REMARK   16  A    between atoms: C_23  and  C_25
REMARK   17  A    between atoms: C_25  and  C_26
REMARK                            x       y       z     vdW  Elec       q    Type
REMARK                         _______ _______ _______ _____ _____    ______ ____
ROOT
ATOM      1  C   UNL     1      -2.689  -2.556   2.486  0.00  0.00    +0.203 C 
ENDROOT
BRANCH   1   3
ATOM      2  N   UNL     1      -2.787  -2.571   0.015  0.00  0.00    -0.294 N 
ATOM      3  C   UNL     1      -3.408  -2.810   1.187  0.00  0.00    +0.233 C 
ATOM      4  O   UNL     1      -4.546  -3.230   1.195  0.00  0.00    -0.274 OA
BRANCH   2   5
ATOM      5  C   UNL     1      -1.413  -2.063   0.004  0.00  0.00    +0.108 C 
BRANCH   5   6
ATOM      6  C   UNL     1      -1.433  -0.534   0.013  0.00  0.00    +0.019 C 
BRANCH   6   8
ATOM      7  C   UNL     1      -0.019   1.526   0.010  0.00  0.00    +0.004 C 
ATOM      8  C   UNL     1       0.002  -0.004   0.002  0.00  0.00    -0.002 C 
ENDBRANCH   6   8
ENDBRANCH   5   6
ENDBRANCH   2   5
BRANCH   2   9
ATOM      9  C   UNL     1      -3.486  -2.817  -1.249  0.00  0.00    +0.161 C 
BRANCH   9  10
ATOM     10  C   UNL     1      -3.234  -4.235  -1.694  0.00  0.00    +0.036 A 
ATOM     11  C   UNL     1      -4.038  -5.292  -1.458  0.00  0.00    +0.024 A 
ATOM     12  C   UNL     1      -3.432  -6.421  -2.045  0.00  0.00    +0.019 A 
ATOM     13  C   UNL     1      -2.281  -6.011  -2.616  0.00  0.00    +0.085 A 
ATOM     14  N   UNL     1      -2.158  -4.669  -2.409  0.00  0.00    -0.352 N 
ATOM     15  C   UNL     1      -1.049  -3.832  -2.874  0.00  0.00    +0.148 C 
ENDBRANCH   9  10
ENDBRANCH   2   9
ENDBRANCH   1   3
BRANCH   1  16
ATOM     16  N   UNL     1      -3.571  -2.892   3.607  0.00  0.00    -0.292 N 
ATOM     17  C   UNL     1      -4.381  -1.951   4.132  0.00  0.00    +0.221 C 
ATOM     18  O   UNL     1      -5.112  -2.229   5.059  0.00  0.00    -0.275 OA
BRANCH  16  19
ATOM     19  C   UNL     1      -3.573  -4.250   4.156  0.00  0.00    +0.110 C 
BRANCH  19  20
ATOM     20  C   UNL     1      -2.537  -4.348   5.277  0.00  0.00    +0.047 C 
BRANCH  20  21
ATOM     21  C   UNL     1      -2.539  -5.766   5.851  0.00  0.00    +0.161 C 
BRANCH  21  22
ATOM     22  O   UNL     1      -1.571  -5.858   6.898  0.00  0.00    -0.380 OA
BRANCH  22  23
ATOM     23  C   UNL     1      -1.491  -7.149   7.505  0.00  0.00    +0.156 C 
ATOM     24  C   UNL     1      -0.429  -7.131   8.605  0.00  0.00    +0.034 C 
ENDBRANCH  22  23
ENDBRANCH  21  22
ENDBRANCH  20  21
ENDBRANCH  19  20
ENDBRANCH  16  19
BRANCH  17  25
ATOM     25  C   UNL     1      -4.379  -0.554   3.566  0.00  0.00    +0.138 C 
BRANCH  25  26
ATOM     26  C   UNL     1      -5.365   0.296   4.325  0.00  0.00    -0.001 A 
ATOM     27  C   UNL     1      -5.165   1.056   5.430  0.00  0.00    +0.011 A 
ATOM     28  C   UNL     1      -6.229   1.761   5.960  0.00  0.00    +0.008 A 
ATOM     29  C   UNL     1      -7.441   1.672   5.359  0.00  0.00    +0.045 A 
ATOM     30  S   UNL     1      -7.098   0.571   3.997  0.00  0.00    -0.101 S 
ENDBRANCH  25  26
ENDBRANCH  17  25
ENDBRANCH   1  16
TORSDOF 14
