REMARK  Name = ZINC59447199
REMARK  10 active torsions:
REMARK  status: ('A' for Active; 'I' for Inactive)
REMARK    1  A    between atoms: C_3  and  S_25
REMARK    2  A    between atoms: C_6  and  N_7
REMARK    3  A    between atoms: C_8  and  C_10
REMARK    4  A    between atoms: C_10  and  N_11
REMARK    5  A    between atoms: N_11  and  C_12
REMARK    6  A    between atoms: C_12  and  C_13
REMARK    7  A    between atoms: C_13  and  N_14
REMARK    8  A    between atoms: N_14  and  C_15
REMARK    9  A    between atoms: C_18  and  N_22
REMARK   10  A    between atoms: S_25  and  N_28
REMARK                            x       y       z     vdW  Elec       q    Type
REMARK                         _______ _______ _______ _____ _____    ______ ____
ROOT
ATOM      1  C   UNL     1      -2.478  -2.828  -0.204  0.00  0.00    +0.015 C 
ENDROOT
BRANCH   1   3
ATOM      2  N   UNL     1      -1.199  -0.722   0.010  0.00  0.00    -0.287 N 
ATOM      3  C   UNL     1      -1.183  -2.065  -0.099  0.00  0.00    +0.200 C 
ATOM      4  O   UNL     1      -0.125  -2.659  -0.113  0.00  0.00    -0.278 OA
ATOM      5  H   UNL     1      -2.044  -0.253   0.098  0.00  0.00    +0.155 HD
BRANCH   2  11
ATOM      6  C   UNL     1       1.072  -0.453  -0.766  0.00  0.00    +0.025 A 
ATOM      7  C   UNL     1       2.256   0.259  -0.778  0.00  0.00    +0.030 A 
ATOM      8  C   UNL     1       2.376   1.416  -0.032  0.00  0.00    +0.105 A 
ATOM      9  C   UNL     1       1.312   1.866   0.729  0.00  0.00    +0.030 A 
ATOM     10  C   UNL     1       0.126   1.160   0.744  0.00  0.00    +0.025 A 
ATOM     11  C   UNL     1       0.002  -0.004  -0.004  0.00  0.00    +0.033 A 
BRANCH   8  12
ATOM     12  S   UNL     1       3.889   2.320  -0.048  0.00  0.00    +0.056 S 
ATOM     13  O   UNL     1       3.928   3.069   1.159  0.00  0.00    -0.153 OA
ATOM     14  O   UNL     1       4.909   1.398  -0.406  0.00  0.00    -0.153 OA
BRANCH  12  15
ATOM     15  N   UNL     1       3.789   3.419  -1.284  0.00  0.00    -0.204 NA
ATOM     16  H   UNL     1       4.261   4.263  -1.221  0.00  0.00    +0.144 HD
ATOM     17  H   UNL     1       3.258   3.217  -2.070  0.00  0.00    +0.144 HD
ENDBRANCH  12  15
ENDBRANCH   8  12
ENDBRANCH   2  11
ENDBRANCH   1   3
BRANCH   1  18
ATOM     18  N   UNL     1      -2.191  -4.265  -0.312  0.00  0.00    +0.386 N 
ATOM     19  H   UNL     1      -1.633  -4.436  -1.134  0.00  0.00    -0.085 HD
ATOM     20  H   UNL     1      -1.687  -4.570   0.507  0.00  0.00    -0.085 HD
BRANCH  18  21
ATOM     21  C   UNL     1      -3.454  -5.010  -0.414  0.00  0.00    -0.063 C 
BRANCH  21  22
ATOM     22  C   UNL     1      -3.156  -6.506  -0.526  0.00  0.00    +0.082 C 
BRANCH  22  23
ATOM     23  N   UNL     1      -4.415  -7.248  -0.628  0.00  0.00    -0.345 N 
ATOM     24  H   UNL     1      -5.260  -6.773  -0.617  0.00  0.00    +0.146 HD
BRANCH  23  25
ATOM     25  C   UNL     1      -4.397  -8.641  -0.741  0.00  0.00    +0.046 A 
ATOM     26  C   UNL     1      -3.188  -9.324  -0.751  0.00  0.00    +0.026 A 
ATOM     27  C   UNL     1      -3.174 -10.700  -0.863  0.00  0.00    +0.034 A 
ATOM     28  C   UNL     1      -4.363 -11.400  -0.965  0.00  0.00    +0.128 A 
ATOM     29  C   UNL     1      -5.569 -10.724  -0.955  0.00  0.00    +0.054 A 
ATOM     30  C   UNL     1      -5.591  -9.347  -0.838  0.00  0.00    +0.064 A 
ATOM     31 CL   UNL     1      -7.106  -8.500  -0.819  0.00  0.00    -0.082 Cl
BRANCH  28  32
ATOM     32  N   UNL     1      -4.344 -12.875  -1.085  0.00  0.00    +0.056 N 
ATOM     33  O   UNL     1      -3.290 -13.467  -1.094  0.00  0.00    -0.126 OA
ATOM     34  O   UNL     1      -5.382 -13.487  -1.174  0.00  0.00    -0.126 OA
ENDBRANCH  28  32
ENDBRANCH  23  25
ENDBRANCH  22  23
ENDBRANCH  21  22
ENDBRANCH  18  21
ENDBRANCH   1  18
TORSDOF 10
