REMARK  Name = ZINC33063383
REMARK  6 active torsions:
REMARK  status: ('A' for Active; 'I' for Inactive)
REMARK    1  A    between atoms: C_3  and  S_8
REMARK    2  A    between atoms: S_8  and  N_11
REMARK    3  A    between atoms: N_11  and  C_12
REMARK    4  A    between atoms: C_14  and  C_19
REMARK    5  A    between atoms: N_21  and  C_22
REMARK    6  A    between atoms: C_26  and  C_28
REMARK                            x       y       z     vdW  Elec       q    Type
REMARK                         _______ _______ _______ _____ _____    ______ ____
ROOT
ATOM      1  C   UNL     1       5.242   3.599   1.901  0.00  0.00    +0.093 A 
ATOM      2  C   UNL     1       5.624   3.811   3.216  0.00  0.00    +0.041 A 
ATOM      3  C   UNL     1       6.831   4.454   3.493  0.00  0.00    +0.039 A 
ATOM      4  C   UNL     1       7.647   4.880   2.443  0.00  0.00    +0.014 A 
ATOM      5  C   UNL     1       7.259   4.665   1.137  0.00  0.00    +0.023 A 
ATOM      6  C   UNL     1       6.065   4.022   0.862  0.00  0.00    +0.065 A 
ATOM      7 CL   UNL     1       5.589   3.749  -0.785  0.00  0.00    -0.082 Cl
ENDROOT
BRANCH   3   8
ATOM      8  C   UNL     1       7.244   4.684   4.893  0.00  0.00    +0.248 C 
ATOM      9  O   UNL     1       6.532   4.312   5.806  0.00  0.00    -0.270 OA
ATOM     10  N   UNL     1       8.410   5.305   5.158  0.00  0.00    -0.281 N 
ATOM     11  H   UNL     1       8.943   5.667   4.433  0.00  0.00    +0.155 HD
BRANCH  10  12
ATOM     12  C   UNL     1       8.854   5.427   6.480  0.00  0.00    +0.035 A 
ATOM     13  C   UNL     1       8.571   4.425   7.403  0.00  0.00    +0.026 A 
ATOM     14  C   UNL     1       9.005   4.540   8.709  0.00  0.00    +0.041 A 
ATOM     15  C   UNL     1       9.724   5.652   9.108  0.00  0.00    +0.136 A 
ATOM     16  C   UNL     1      10.012   6.664   8.188  0.00  0.00    +0.073 A 
ATOM     17  C   UNL     1       9.578   6.543   6.867  0.00  0.00    +0.039 A 
ATOM     18  F   UNL     1      10.147   5.761  10.387  0.00  0.00    -0.205 F 
BRANCH  16  19
ATOM     19  C   UNL     1      10.779   7.854   8.610  0.00  0.00    +0.244 C 
ATOM     20  O   UNL     1      11.161   7.955   9.759  0.00  0.00    -0.270 OA
ATOM     21  N   UNL     1      11.056   8.828   7.720  0.00  0.00    -0.325 N 
ATOM     22  H   UNL     1      10.751   8.747   6.803  0.00  0.00    +0.145 HD
ATOM     23  H   UNL     1      11.559   9.609   7.997  0.00  0.00    +0.145 HD
ENDBRANCH  16  19
ENDBRANCH  10  12
ENDBRANCH   3   8
BRANCH   1  24
ATOM     24  N   UNL     1       4.034   2.956   1.618  0.00  0.00    -0.096 NA
BRANCH  24  25
ATOM     25  S   UNL     1       2.981   2.597   2.844  0.00  0.00    +0.092 S 
ATOM     26  O   UNL     1       2.597   3.835   3.426  0.00  0.00    -0.148 OA
ATOM     27  O   UNL     1       3.578   1.553   3.601  0.00  0.00    -0.148 OA
BRANCH  25  30
ATOM     28  C   UNL     1       0.302   0.019   1.320  0.00  0.00    +0.040 A 
ATOM     29  C   UNL     1       1.437   0.554   1.899  0.00  0.00    +0.031 A 
ATOM     30  C   UNL     1       1.533   1.917   2.105  0.00  0.00    +0.111 A 
ATOM     31  C   UNL     1       0.493   2.748   1.732  0.00  0.00    +0.031 A 
ATOM     32  C   UNL     1      -0.643   2.216   1.152  0.00  0.00    +0.040 A 
ATOM     33  C   UNL     1      -0.740   0.851   0.945  0.00  0.00    +0.124 A 
ATOM     34  F   UNL     1      -1.850   0.330   0.378  0.00  0.00    -0.205 F 
ENDBRANCH  25  30
ENDBRANCH  24  25
ENDBRANCH   1  24
TORSDOF 6
