REMARK  Name = ZINC48583337
REMARK  4 active torsions:
REMARK  status: ('A' for Active; 'I' for Inactive)
REMARK    1  A    between atoms: C_6  and  C_7
REMARK    2  A    between atoms: C_7  and  N_8
REMARK    3  A    between atoms: C_9  and  C_11
REMARK    4  A    between atoms: N_13  and  C_14
REMARK                            x       y       z     vdW  Elec       q    Type
REMARK                         _______ _______ _______ _____ _____    ______ ____
ROOT
ATOM      1  C   UNL     1      -3.310  -1.939  -3.011  0.00  0.00    +0.303 C 
ATOM      2  O   UNL     1      -2.646  -1.523  -3.938  0.00  0.00    -0.265 OA
ATOM      3  N   UNL     1      -4.450  -2.617  -3.250  0.00  0.00    -0.278 N 
ATOM      4  H   UNL     1      -4.945  -3.008  -2.513  0.00  0.00    +0.155 HD
ENDROOT
BRANCH   3   5
ATOM      5  C   UNL     1      -4.918  -2.759  -4.560  0.00  0.00    +0.038 A 
ATOM      6  C   UNL     1      -6.284  -2.752  -4.814  0.00  0.00    +0.027 A 
ATOM      7  C   UNL     1      -6.747  -2.892  -6.108  0.00  0.00    +0.051 A 
ATOM      8  C   UNL     1      -5.852  -3.039  -7.156  0.00  0.00    +0.173 A 
ATOM      9  C   UNL     1      -4.482  -3.046  -6.904  0.00  0.00    +0.174 A 
ATOM     10  C   UNL     1      -4.018  -2.900  -5.608  0.00  0.00    +0.073 A 
ATOM     11  O   UNL     1      -3.822  -3.203  -8.089  0.00  0.00    -0.395 OA
ATOM     12  C   UNL     1      -4.806  -3.701  -9.014  0.00  0.00    +0.589 C 
ATOM     13  O   UNL     1      -6.050  -3.192  -8.498  0.00  0.00    -0.395 OA
ATOM     14  F   UNL     1      -4.567  -3.205 -10.300  0.00  0.00    -0.125 F 
ATOM     15  F   UNL     1      -4.812  -5.100  -9.019  0.00  0.00    -0.125 F 
ENDBRANCH   3   5
BRANCH   1  17
ATOM     16  N   UNL     1      -1.724  -1.021  -1.367  0.00  0.00    -0.303 N 
ATOM     17  C   UNL     1      -2.864  -1.700  -1.606  0.00  0.00    +0.300 C 
ATOM     18  O   UNL     1      -3.528  -2.116  -0.679  0.00  0.00    -0.265 OA
ATOM     19  H   UNL     1      -1.193  -0.689  -2.108  0.00  0.00    +0.149 HD
BRANCH  16  20
ATOM     20  C   UNL     1      -1.286  -0.786   0.011  0.00  0.00    +0.140 C 
BRANCH  20  26
ATOM     21  C   UNL     1      -0.017   1.371   0.019  0.00  0.00    +0.006 A 
ATOM     22  C   UNL     1       1.169   2.082   0.012  0.00  0.00    +0.020 A 
ATOM     23  C   UNL     1       2.378   1.410  -0.012  0.00  0.00    +0.041 A 
ATOM     24  C   UNL     1       2.400   0.027  -0.028  0.00  0.00    +0.020 A 
ATOM     25  C   UNL     1       1.214  -0.683  -0.021  0.00  0.00    +0.006 A 
ATOM     26  C   UNL     1       0.006  -0.012   0.003  0.00  0.00    -0.030 A 
ATOM     27 CL   UNL     1       3.867   2.302  -0.022  0.00  0.00    -0.084 Cl
ENDBRANCH  20  26
ENDBRANCH  16  20
ENDBRANCH   1  17
TORSDOF 4
