REMARK  Name = ZINC45681922
REMARK  8 active torsions:
REMARK  status: ('A' for Active; 'I' for Inactive)
REMARK    1  A    between atoms: C_1  and  C_2
REMARK    2  A    between atoms: C_2  and  C_4
REMARK    3  A    between atoms: C_2  and  N_10
REMARK    4  A    between atoms: N_6  and  C_7
REMARK    5  A    between atoms: N_13  and  C_16
REMARK    6  A    between atoms: C_16  and  C_17
REMARK    7  A    between atoms: N_19  and  C_20
REMARK    8  A    between atoms: C_21  and  C_29
REMARK                            x       y       z     vdW  Elec       q    Type
REMARK                         _______ _______ _______ _____ _____    ______ ____
ROOT
ATOM      1  C   UNL     1       5.661  -3.039   0.643  0.00  0.00    +0.232 C 
ATOM      2  O   UNL     1       5.809  -1.977   0.077  0.00  0.00    -0.274 OA
ATOM      3  N   UNL     1       6.737  -3.748   1.038  0.00  0.00    -0.278 N 
ATOM      4  H   UNL     1       6.618  -4.598   1.491  0.00  0.00    +0.155 HD
ENDROOT
BRANCH   3   5
ATOM      5  C   UNL     1       8.013  -3.264   0.796  0.00  0.00    +0.084 A 
ATOM      6  C   UNL     1       9.224  -3.853   1.123  0.00  0.00    +0.068 A 
ATOM      7  C   UNL     1      10.432  -3.135   0.757  0.00  0.00    -0.023 A 
ATOM      8  C   UNL     1      10.208  -1.959   0.132  0.00  0.00    -0.004 A 
ATOM      9  S   UNL     1       8.447  -1.831   0.035  0.00  0.00    -0.077 S 
ATOM     10  C   UNL     1      11.239  -0.993  -0.364  0.00  0.00    +0.043 C 
ATOM     11  C   UNL     1      12.587  -1.356   0.276  0.00  0.00    +0.005 C 
ATOM     12  C   UNL     1      12.816  -2.863   0.129  0.00  0.00    +0.005 C 
ATOM     13  C   UNL     1      11.846  -3.627   1.032  0.00  0.00    +0.037 C 
BRANCH   6  14
ATOM     14  C   UNL     1       9.283  -5.148   1.808  0.00  0.00    +0.244 C 
ATOM     15  O   UNL     1       9.319  -6.178   1.162  0.00  0.00    -0.270 OA
ATOM     16  N   UNL     1       9.298  -5.197   3.155  0.00  0.00    -0.325 N 
ATOM     17  H   UNL     1       9.270  -4.376   3.671  0.00  0.00    +0.145 HD
ATOM     18  H   UNL     1       9.337  -6.053   3.609  0.00  0.00    +0.145 HD
ENDBRANCH   6  14
ENDBRANCH   3   5
BRANCH   1  19
ATOM     19  C   UNL     1       4.273  -3.566   0.906  0.00  0.00    +0.180 C 
BRANCH  19  23
ATOM     20  N   UNL     1       0.967  -0.953   0.573  0.00  0.00    +0.389 N 
ATOM     21  C   UNL     1       0.941  -2.202  -0.200  0.00  0.00    -0.062 C 
ATOM     22  C   UNL     1       1.932  -3.198   0.405  0.00  0.00    +0.066 C 
ATOM     23  N   UNL     1       3.282  -2.616   0.383  0.00  0.00    -0.298 NA
ATOM     24  C   UNL     1       3.318  -1.352   1.133  0.00  0.00    +0.066 C 
ATOM     25  C   UNL     1       2.315  -0.371   0.521  0.00  0.00    -0.062 C 
ATOM     26  H   UNL     1       0.721  -1.147   1.532  0.00  0.00    -0.081 HD
BRANCH  20  28
ATOM     27  C   UNL     1       0.061   1.312   0.780  0.00  0.00    -0.004 C 
ATOM     28  C   UNL     1       0.002  -0.004   0.002  0.00  0.00    +0.016 C 
BRANCH  28  29
ATOM     29  C   UNL     1      -1.387  -0.582   0.096  0.00  0.00    +0.199 C 
ATOM     30  O   UNL     1      -1.657  -1.371   0.976  0.00  0.00    -0.278 OA
ATOM     31  N   UNL     1      -2.329  -0.221  -0.798  0.00  0.00    -0.314 N 
ATOM     32  H   UNL     1      -2.113   0.410  -1.502  0.00  0.00    +0.149 HD
BRANCH  31  33
ATOM     33  C   UNL     1      -3.679  -0.783  -0.706  0.00  0.00    +0.073 C 
ATOM     34  C   UNL     1      -4.343  -1.241  -2.006  0.00  0.00    +0.024 C 
ATOM     35  C   UNL     1      -4.825   0.032  -1.308  0.00  0.00    +0.024 C 
ENDBRANCH  31  33
ENDBRANCH  28  29
ENDBRANCH  20  28
ENDBRANCH  19  23
ENDBRANCH   1  19
TORSDOF 7
