REMARK  Name = ZINC50585781
REMARK  7 active torsions:
REMARK  status: ('A' for Active; 'I' for Inactive)
REMARK    1  A    between atoms: C_1  and  C_2
REMARK    2  A    between atoms: C_4  and  C_20
REMARK    3  A    between atoms: N_5  and  C_7
REMARK    4  A    between atoms: C_7  and  C_9
REMARK    5  A    between atoms: C_7  and  C_10
REMARK    6  A    between atoms: N_12  and  C_13
REMARK    7  A    between atoms: C_17  and  N_19
REMARK                            x       y       z     vdW  Elec       q    Type
REMARK                         _______ _______ _______ _____ _____    ______ ____
ROOT
ATOM      1  C   UNL     1      -1.170  -3.300   2.363  0.00  0.00    +0.242 C 
ATOM      2  O   UNL     1      -1.977  -2.398   2.283  0.00  0.00    -0.273 OA
ATOM      3  N   UNL     1      -1.367  -4.303   3.241  0.00  0.00    -0.284 N 
ATOM      4  H   UNL     1      -0.758  -5.058   3.259  0.00  0.00    +0.155 HD
ENDROOT
BRANCH   3   5
ATOM      5  C   UNL     1      -2.449  -4.257   4.126  0.00  0.00    +0.035 A 
ATOM      6  C   UNL     1      -2.317  -4.765   5.413  0.00  0.00    +0.023 A 
ATOM      7  C   UNL     1      -3.386  -4.720   6.288  0.00  0.00    +0.004 A 
ATOM      8  C   UNL     1      -4.588  -4.169   5.887  0.00  0.00    +0.023 A 
ATOM      9  C   UNL     1      -4.726  -3.659   4.602  0.00  0.00    +0.026 A 
ATOM     10  C   UNL     1      -3.653  -3.698   3.723  0.00  0.00    +0.046 A 
BRANCH   9  11
ATOM     11  N   UNL     1      -5.941  -3.102   4.198  0.00  0.00    -0.358 N 
ATOM     12  H   UNL     1      -6.690  -3.071   4.814  0.00  0.00    +0.142 HD
ATOM     13  H   UNL     1      -6.037  -2.746   3.301  0.00  0.00    +0.142 HD
ENDBRANCH   9  11
ENDBRANCH   3   5
BRANCH   1  14
ATOM     14  C   UNL     1       0.052  -3.298   1.481  0.00  0.00    +0.190 C 
ATOM     15  C   UNL     1       1.309  -3.278   2.353  0.00  0.00    +0.042 C 
BRANCH  14  20
ATOM     16  C   UNL     1      -0.003   1.503   0.017  0.00  0.00    +0.069 C 
ATOM     17  C   UNL     1       0.009  -0.004   0.005  0.00  0.00    +0.078 A 
ATOM     18  C   UNL     1       0.005  -0.816  -1.135  0.00  0.00    +0.084 A 
ATOM     19  C   UNL     1       0.021  -2.106  -0.727  0.00  0.00    +0.056 A 
ATOM     20  N   UNL     1       0.033  -2.111   0.624  0.00  0.00    -0.255 N 
ATOM     21  N   UNL     1       0.031  -0.779   1.059  0.00  0.00    -0.174 NA
ATOM     22  C   UNL     1       0.022  -3.321  -1.620  0.00  0.00    +0.067 C 
ATOM     23 CL   UNL     1      -0.015  -0.265  -2.781  0.00  0.00    -0.080 Cl
ENDBRANCH  14  20
ENDBRANCH   1  14
TORSDOF 4
