REMARK  Name = ZINC63302902
REMARK  4 active torsions:
REMARK  status: ('A' for Active; 'I' for Inactive)
REMARK    1  A    between atoms: N_17  and  C_18
REMARK    2  A    between atoms: C_18  and  C_19
REMARK    3  A    between atoms: C_19  and  C_20
REMARK    4  A    between atoms: N_25  and  C_28
REMARK                            x       y       z     vdW  Elec       q    Type
REMARK                         _______ _______ _______ _____ _____    ______ ____
ROOT
ATOM      1  C   UNL     1       0.009   1.357   0.109  0.00  0.00    +0.001 A 
ATOM      2  C   UNL     1       1.192   2.108   0.104  0.00  0.00    +0.002 A 
ATOM      3  C   UNL     1       2.416   1.539   0.077  0.00  0.00    +0.026 A 
ATOM      4  C   UNL     1       2.552   0.125   0.051  0.00  0.00    +0.043 A 
ATOM      5  N   UNL     1       3.613  -0.650   0.042  0.00  0.00    -0.376 N 
ATOM      6  C   UNL     1       3.172  -2.039  -0.063  0.00  0.00    +0.124 C 
ATOM      7  C   UNL     1       3.693  -2.894   1.098  0.00  0.00    +0.138 C 
ATOM      8  N   UNL     1       2.897  -4.130   1.141  0.00  0.00    -0.283 N 
ATOM      9  C   UNL     1       1.444  -4.076   1.336  0.00  0.00    +0.114 C 
ATOM     10  C   UNL     1       0.811  -3.232   0.214  0.00  0.00    +0.052 C 
ATOM     11  C   UNL     1       1.657  -1.991   0.045  0.00  0.00    -0.036 C 
ATOM     12  C   UNL     1       1.315  -0.695   0.062  0.00  0.00    -0.001 A 
ATOM     13  C   UNL     1       0.025   0.006   0.088  0.00  0.00    +0.010 A 
ATOM     14  C   UNL     1       3.507  -5.323   1.001  0.00  0.00    +0.302 C 
ATOM     15  O   UNL     1       4.694  -5.372   0.741  0.00  0.00    -0.253 OA
ATOM     16  N   UNL     1       2.803  -6.463   1.148  0.00  0.00    -0.299 N 
ATOM     17  H   UNL     1       1.843  -6.425   1.284  0.00  0.00    +0.150 HD
ATOM     18  H   UNL     1       4.534  -0.351   0.097  0.00  0.00    +0.160 HD
ENDROOT
BRANCH  16  19
ATOM     19  C   UNL     1       3.486  -7.758   1.105  0.00  0.00    +0.115 C 
BRANCH  19  20
ATOM     20  C   UNL     1       2.465  -8.880   1.297  0.00  0.00    +0.114 C 
BRANCH  20  21
ATOM     21  C   UNL     1       3.168 -10.212   1.252  0.00  0.00    +0.217 C 
ATOM     22  O   UNL     1       4.368 -10.259   1.083  0.00  0.00    -0.276 OA
ATOM     23  N   UNL     1       2.463 -11.352   1.399  0.00  0.00    -0.298 N 
ATOM     24  C   UNL     1       1.008 -11.310   1.598  0.00  0.00    +0.126 C 
ATOM     25  C   UNL     1       0.341 -12.176   0.522  0.00  0.00    +0.124 C 
ATOM     26  N   UNL     1       1.015 -13.482   0.486  0.00  0.00    -0.327 N 
ATOM     27  C   UNL     1       2.470 -13.523   0.287  0.00  0.00    +0.124 C 
ATOM     28  C   UNL     1       3.136 -12.658   1.358  0.00  0.00    +0.126 C 
BRANCH  26  29
ATOM     29  C   UNL     1       0.284 -14.663   0.639  0.00  0.00    +0.031 A 
ATOM     30  C   UNL     1      -1.103 -14.620   0.703  0.00  0.00    +0.023 A 
ATOM     31  C   UNL     1      -1.823 -15.789   0.854  0.00  0.00    +0.003 A 
ATOM     32  C   UNL     1      -1.164 -17.002   0.941  0.00  0.00    +0.020 A 
ATOM     33  C   UNL     1       0.217 -17.049   0.877  0.00  0.00    +0.043 A 
ATOM     34  C   UNL     1       0.943 -15.883   0.721  0.00  0.00    +0.043 A 
ATOM     35 CL   UNL     1       1.039 -18.574   0.988  0.00  0.00    -0.083 Cl
ENDBRANCH  26  29
ENDBRANCH  20  21
ENDBRANCH  19  20
ENDBRANCH  16  19
TORSDOF 4
