REMARK  Name = ZINC33033987
REMARK  11 active torsions:
REMARK  status: ('A' for Active; 'I' for Inactive)
REMARK    1  A    between atoms: C_1  and  C_2
REMARK    2  A    between atoms: C_2  and  C_3
REMARK    3  A    between atoms: C_3  and  C_5
REMARK    4  A    between atoms: C_3  and  N_6
REMARK    5  A    between atoms: C_7  and  C_9
REMARK    6  A    between atoms: C_12  and  N_27
REMARK    7  A    between atoms: C_13  and  N_15
REMARK    8  A    between atoms: N_15  and  S_16
REMARK    9  A    between atoms: S_16  and  C_19
REMARK   10  A    between atoms: C_22  and  C_26
REMARK   11  A    between atoms: C_23  and  C_25
REMARK                            x       y       z     vdW  Elec       q    Type
REMARK                         _______ _______ _______ _____ _____    ______ ____
ROOT
ATOM      1  C   UNL     1       2.635   3.423   0.515  0.00  0.00    +0.039 A 
ATOM      2  C   UNL     1       3.775   2.676   0.207  0.00  0.00    +0.015 A 
ATOM      3  C   UNL     1       3.648   1.415  -0.334  0.00  0.00    +0.026 A 
ATOM      4  C   UNL     1       2.387   0.883  -0.575  0.00  0.00    +0.052 A 
ATOM      5  C   UNL     1       1.242   1.625  -0.268  0.00  0.00    +0.070 A 
ATOM      6  C   UNL     1       1.365   2.892   0.269  0.00  0.00    +0.039 A 
ENDROOT
BRANCH   4   7
ATOM      7  N   UNL     1       2.263  -0.393  -1.121  0.00  0.00    -0.332 N 
ATOM      8  C   UNL     1       3.562  -0.892  -1.594  0.00  0.00    +0.086 C 
ATOM      9  C   UNL     1       3.370  -2.258  -2.257  0.00  0.00    -0.063 C 
ATOM     10  N   UNL     1       2.772  -3.189  -1.291  0.00  0.00    +0.381 N 
ATOM     11  C   UNL     1       1.473  -2.691  -0.818  0.00  0.00    -0.063 C 
ATOM     12  C   UNL     1       1.665  -1.325  -0.155  0.00  0.00    +0.086 C 
ATOM     13  H   UNL     1       2.623  -4.168  -1.769  0.00  0.00    -0.086 HD
ATOM     14  H   UNL     1       3.444  -3.302  -0.427  0.00  0.00    -0.086 HD
ENDBRANCH   4   7
BRANCH   1  16
ATOM     15  N   UNL     1       3.995   5.287   1.326  0.00  0.00    -0.309 N 
ATOM     16  C   UNL     1       2.771   4.773   1.094  0.00  0.00    +0.244 C 
ATOM     17  O   UNL     1       1.778   5.423   1.362  0.00  0.00    -0.270 OA
ATOM     18  H   UNL     1       4.893   4.699   1.084  0.00  0.00    +0.149 HD
BRANCH  15  19
ATOM     19  C   UNL     1       4.130   6.627   1.901  0.00  0.00    +0.070 C 
ATOM     20  C   UNL     1       4.039   6.540   3.426  0.00  0.00    +0.028 C 
BRANCH  19  22
ATOM     21  C   UNL     1       5.528   7.422  -0.011  0.00  0.00    +0.005 C 
ATOM     22  C   UNL     1       5.485   7.218   1.505  0.00  0.00    +0.018 C 
ENDBRANCH  19  22
ENDBRANCH  15  19
ENDBRANCH   1  16
BRANCH   5  23
ATOM     23  N   UNL     1      -0.027   1.086  -0.511  0.00  0.00    -0.214 N 
ATOM     24  H   UNL     1      -0.489   0.412   0.225  0.00  0.00    +0.174 HD
BRANCH  23  25
ATOM     25  S   UNL     1      -0.834   1.465  -1.907  0.00  0.00    +0.072 S 
ATOM     26  O   UNL     1      -2.066   0.758  -1.869  0.00  0.00    -0.150 OA
ATOM     27  O   UNL     1      -0.771   2.878  -2.042  0.00  0.00    -0.150 OA
BRANCH  25  28
ATOM     28  C   UNL     1       0.093   0.789  -3.244  0.00  0.00    +0.109 A 
ATOM     29  C   UNL     1       1.076   1.545  -3.856  0.00  0.00    +0.029 A 
ATOM     30  C   UNL     1       1.807   1.014  -4.902  0.00  0.00    +0.005 A 
ATOM     31  C   UNL     1       1.548  -0.271  -5.343  0.00  0.00    -0.047 A 
ATOM     32  C   UNL     1       0.562  -1.025  -4.735  0.00  0.00    -0.046 A 
ATOM     33  C   UNL     1      -0.165  -0.495  -3.685  0.00  0.00    +0.032 A 
ATOM     34  C   UNL     1       0.280  -2.425  -5.216  0.00  0.00    +0.044 C 
ATOM     35  C   UNL     1       2.341  -0.849  -6.486  0.00  0.00    +0.044 C 
ENDBRANCH  25  28
ENDBRANCH  23  25
ENDBRANCH   5  23
TORSDOF 7
