REMARK  Name = ZINC01907022
REMARK  8 active torsions:
REMARK  status: ('A' for Active; 'I' for Inactive)
REMARK    1  A    between atoms: C_1  and  C_2
REMARK    2  A    between atoms: C_7  and  N_8
REMARK    3  A    between atoms: C_9  and  C_11
REMARK    4  A    between atoms: C_12  and  C_22
REMARK    5  A    between atoms: C_19  and  C_21
REMARK    6  A    between atoms: N_24  and  C_25
REMARK    7  A    between atoms: C_29  and  C_32
REMARK    8  A    between atoms: C_30  and  C_31
REMARK                            x       y       z     vdW  Elec       q    Type
REMARK                         _______ _______ _______ _____ _____    ______ ____
ROOT
ATOM      1  C   UNL     1      -0.164  -4.249  -0.309  0.00  0.00    +0.133 A 
ATOM      2  C   UNL     1       0.301  -4.684  -1.517  0.00  0.00    +0.106 A 
ATOM      3  S   UNL     1       0.215  -3.195  -2.499  0.00  0.00    -0.044 S 
ATOM      4  C   UNL     1      -0.428  -2.116  -1.238  0.00  0.00    +0.182 A 
ATOM      5  N   UNL     1      -0.542  -2.936  -0.148  0.00  0.00    -0.249 N 
ATOM      6  C   UNL     1      -1.023  -2.363   0.996  0.00  0.00    +0.260 A 
ATOM      7  O   UNL     1      -1.152  -3.034   2.008  0.00  0.00    -0.267 OA
ATOM      8  C   UNL     1      -1.367  -1.010   1.006  0.00  0.00    +0.093 A 
ATOM      9  C   UNL     1      -1.220  -0.263  -0.130  0.00  0.00    +0.046 A 
ATOM     10  N   UNL     1      -0.755  -0.848  -1.231  0.00  0.00    -0.228 NA
ATOM     11  C   UNL     1      -1.586   1.199  -0.137  0.00  0.00    +0.066 C 
ENDROOT
BRANCH   1  13
ATOM     12  N   UNL     1      -1.360  -5.950   0.972  0.00  0.00    -0.280 N 
ATOM     13  C   UNL     1      -0.261  -5.186   0.823  0.00  0.00    +0.266 C 
ATOM     14  O   UNL     1       0.652  -5.269   1.623  0.00  0.00    -0.268 OA
ATOM     15  H   UNL     1      -2.076  -5.904   0.318  0.00  0.00    +0.155 HD
BRANCH  12  22
ATOM     16  C   UNL     1      -3.960  -6.793   1.764  0.00  0.00    +0.045 C 
ATOM     17  C   UNL     1      -2.720  -7.247   2.489  0.00  0.00    -0.029 A 
ATOM     18  C   UNL     1      -2.824  -8.097   3.572  0.00  0.00    +0.005 A 
ATOM     19  C   UNL     1      -1.686  -8.514   4.238  0.00  0.00    +0.000 A 
ATOM     20  C   UNL     1      -0.440  -8.082   3.821  0.00  0.00    +0.002 A 
ATOM     21  C   UNL     1      -0.328  -7.237   2.735  0.00  0.00    +0.023 A 
ATOM     22  C   UNL     1      -1.470  -6.811   2.068  0.00  0.00    +0.037 A 
ENDBRANCH  12  22
ENDBRANCH   1  13
BRANCH   2  23
ATOM     23  C   UNL     1       0.756  -6.033  -1.909  0.00  0.00    +0.257 C 
ATOM     24  O   UNL     1       0.838  -6.913  -1.074  0.00  0.00    -0.269 OA
ATOM     25  N   UNL     1       1.081  -6.288  -3.192  0.00  0.00    -0.281 N 
ATOM     26  H   UNL     1       1.094  -5.568  -3.841  0.00  0.00    +0.155 HD
BRANCH  25  27
ATOM     27  C   UNL     1       1.399  -7.591  -3.586  0.00  0.00    +0.037 A 
ATOM     28  C   UNL     1       1.979  -8.471  -2.681  0.00  0.00    +0.023 A 
ATOM     29  C   UNL     1       2.291  -9.758  -3.074  0.00  0.00    +0.002 A 
ATOM     30  C   UNL     1       2.027 -10.171  -4.367  0.00  0.00    +0.004 A 
ATOM     31  C   UNL     1       1.450  -9.298  -5.270  0.00  0.00    -0.046 A 
ATOM     32  C   UNL     1       1.130  -8.011  -4.883  0.00  0.00    -0.026 A 
ATOM     33  C   UNL     1       0.495  -7.062  -5.867  0.00  0.00    +0.046 C 
ATOM     34  C   UNL     1       1.163  -9.753  -6.678  0.00  0.00    +0.044 C 
ENDBRANCH  25  27
ENDBRANCH   2  23
TORSDOF 4
