REMARK  Name = ZINC25556731
REMARK  10 active torsions:
REMARK  status: ('A' for Active; 'I' for Inactive)
REMARK    1  A    between atoms: C_1  and  C_2
REMARK    2  A    between atoms: C_2  and  C_4
REMARK    3  A    between atoms: C_2  and  N_14
REMARK    4  A    between atoms: C_7  and  S_10
REMARK    5  A    between atoms: S_10  and  N_13
REMARK    6  A    between atoms: C_15  and  C_17
REMARK    7  A    between atoms: C_17  and  C_19
REMARK    8  A    between atoms: C_17  and  N_20
REMARK    9  A    between atoms: N_23  and  C_26
REMARK   10  A    between atoms: C_29  and  N_32
REMARK                            x       y       z     vdW  Elec       q    Type
REMARK                         _______ _______ _______ _____ _____    ______ ____
ROOT
ATOM      1  N   UNL     1       0.671  -0.551   1.171  0.00  0.00    -0.307 N 
ATOM      2  C   UNL     1       0.016  -0.725   2.336  0.00  0.00    +0.230 C 
ATOM      3  O   UNL     1      -1.183  -0.551   2.389  0.00  0.00    -0.274 OA
ATOM      4  H   UNL     1       1.630  -0.690   1.128  0.00  0.00    +0.149 HD
ENDROOT
BRANCH   1   6
ATOM      5  C   UNL     1      -0.214   1.371  -0.056  0.00  0.00    +0.033 C 
ATOM      6  C   UNL     1      -0.065  -0.151  -0.031  0.00  0.00    +0.100 C 
BRANCH   6   7
ATOM      7  C   UNL     1       0.689  -0.603  -1.256  0.00  0.00    -0.027 A 
ATOM      8  C   UNL     1       2.067  -0.509  -1.292  0.00  0.00    +0.007 A 
ATOM      9  C   UNL     1       2.759  -0.922  -2.415  0.00  0.00    +0.029 A 
ATOM     10  C   UNL     1       2.071  -1.431  -3.502  0.00  0.00    +0.105 A 
ATOM     11  C   UNL     1       0.693  -1.525  -3.465  0.00  0.00    +0.029 A 
ATOM     12  C   UNL     1       0.002  -1.115  -2.340  0.00  0.00    +0.007 A 
BRANCH  10  13
ATOM     13  S   UNL     1       2.953  -1.957  -4.934  0.00  0.00    +0.056 S 
ATOM     14  O   UNL     1       2.041  -1.885  -6.021  0.00  0.00    -0.153 OA
ATOM     15  O   UNL     1       4.190  -1.257  -4.929  0.00  0.00    -0.153 OA
BRANCH  13  16
ATOM     16  N   UNL     1       3.314  -3.559  -4.725  0.00  0.00    -0.204 NA
ATOM     17  H   UNL     1       3.390  -4.144  -5.495  0.00  0.00    +0.144 HD
ATOM     18  H   UNL     1       3.451  -3.913  -3.832  0.00  0.00    +0.144 HD
ENDBRANCH  13  16
ENDBRANCH  10  13
ENDBRANCH   6   7
ENDBRANCH   1   6
BRANCH   2  19
ATOM     19  C   UNL     1       0.774  -1.136   3.572  0.00  0.00    +0.140 C 
ATOM     20  C   UNL     1       1.305  -2.560   3.394  0.00  0.00    +0.034 C 
BRANCH  19  21
ATOM     21  N   UNL     1      -0.123  -1.090   4.734  0.00  0.00    -0.289 NA
ATOM     22  C   UNL     1       0.639  -1.124   5.989  0.00  0.00    +0.104 C 
ATOM     23  C   UNL     1      -0.312  -0.892   7.168  0.00  0.00    +0.120 C 
ATOM     24  N   UNL     1      -1.411  -1.866   7.080  0.00  0.00    -0.327 N 
ATOM     25  C   UNL     1      -2.134  -1.986   5.806  0.00  0.00    +0.120 C 
ATOM     26  C   UNL     1      -1.111  -2.176   4.681  0.00  0.00    +0.104 C 
BRANCH  24  27
ATOM     27  C   UNL     1      -1.757  -2.656   8.179  0.00  0.00    +0.030 A 
ATOM     28  C   UNL     1      -1.140  -2.450   9.406  0.00  0.00    +0.025 A 
ATOM     29  C   UNL     1      -1.485  -3.233  10.491  0.00  0.00    +0.034 A 
ATOM     30  C   UNL     1      -2.443  -4.221  10.355  0.00  0.00    +0.126 A 
ATOM     31  C   UNL     1      -3.059  -4.429   9.134  0.00  0.00    +0.034 A 
ATOM     32  C   UNL     1      -2.722  -3.646   8.047  0.00  0.00    +0.025 A 
BRANCH  30  33
ATOM     33  N   UNL     1      -2.810  -5.059  11.519  0.00  0.00    +0.056 N 
ATOM     34  O   UNL     1      -2.272  -4.879  12.587  0.00  0.00    -0.126 OA
ATOM     35  O   UNL     1      -3.647  -5.923  11.402  0.00  0.00    -0.126 OA
ENDBRANCH  30  33
ENDBRANCH  24  27
ENDBRANCH  19  21
ENDBRANCH   2  19
TORSDOF 8
