REMARK  Name = ZINC65301289
REMARK  5 active torsions:
REMARK  status: ('A' for Active; 'I' for Inactive)
REMARK    1  A    between atoms: C_1  and  C_2
REMARK    2  A    between atoms: C_4  and  N_19
REMARK    3  A    between atoms: C_5  and  C_11
REMARK    4  A    between atoms: C_22  and  C_25
REMARK    5  A    between atoms: N_27  and  C_28
REMARK                            x       y       z     vdW  Elec       q    Type
REMARK                         _______ _______ _______ _____ _____    ______ ____
ROOT
ATOM      1  C   UNL     1       1.462   1.868  -0.781  0.00  0.00    +0.067 C 
ATOM      2  C   UNL     1       1.240   0.398  -0.540  0.00  0.00    +0.058 A 
ATOM      3  C   UNL     1       0.573  -0.372  -1.507  0.00  0.00    +0.050 A 
ATOM      4  C   UNL     1       0.026  -0.003  -2.765  0.00  0.00    +0.055 A 
ATOM      5  C   UNL     1      -0.595  -0.993  -3.539  0.00  0.00    +0.074 A 
ATOM      6  C   UNL     1      -0.664  -2.309  -3.066  0.00  0.00    +0.098 A 
ATOM      7  N   UNL     1      -0.151  -2.627  -1.897  0.00  0.00    -0.353 N 
ATOM      8  C   UNL     1       0.443  -1.731  -1.136  0.00  0.00    +0.107 A 
ATOM      9  S   UNL     1       1.236  -1.760   0.452  0.00  0.00    +0.030 S 
ATOM     10  N   UNL     1       1.672  -0.145   0.557  0.00  0.00    -0.213 NA
ATOM     11  H   UNL     1      -0.210  -3.545  -1.588  0.00  0.00    +0.166 HD
ENDROOT
BRANCH   5  12
ATOM     12  C   UNL     1      -1.174  -0.649  -4.848  0.00  0.00    +0.250 C 
ATOM     13  O   UNL     1      -0.481  -0.129  -5.702  0.00  0.00    -0.270 OA
ATOM     14  N   UNL     1      -2.472  -0.910  -5.100  0.00  0.00    -0.293 N 
ATOM     15  C   UNL     1      -3.312  -1.602  -4.110  0.00  0.00    +0.136 C 
ATOM     16  C   UNL     1      -4.595  -0.788  -3.911  0.00  0.00    +0.179 C 
ATOM     17  O   UNL     1      -5.194  -0.534  -5.184  0.00  0.00    -0.377 OA
ATOM     18  C   UNL     1      -4.386   0.250  -6.065  0.00  0.00    +0.179 C 
ATOM     19  C   UNL     1      -3.093  -0.506  -6.372  0.00  0.00    +0.136 C 
ENDBRANCH   5  12
BRANCH   4  20
ATOM     20  N   UNL     1       0.104   1.300  -3.213  0.00  0.00    -0.329 N 
ATOM     21  C   UNL     1      -1.035   2.214  -3.058  0.00  0.00    +0.106 C 
ATOM     22  C   UNL     1      -1.376   2.815  -4.425  0.00  0.00    +0.031 C 
ATOM     23  C   UNL     1      -0.124   3.465  -5.019  0.00  0.00    +0.078 C 
ATOM     24  C   UNL     1       0.960   2.403  -5.215  0.00  0.00    +0.031 C 
ATOM     25  C   UNL     1       1.330   1.800  -3.851  0.00  0.00    +0.106 C 
BRANCH  23  26
ATOM     26  C   UNL     1      -0.464   4.086  -6.349  0.00  0.00    +0.220 C 
ATOM     27  O   UNL     1      -1.596   4.016  -6.780  0.00  0.00    -0.275 OA
ATOM     28  N   UNL     1       0.489   4.720  -7.060  0.00  0.00    -0.284 N 
ATOM     29  H   UNL     1       1.405   4.731  -6.742  0.00  0.00    +0.155 HD
BRANCH  28  30
ATOM     30  C   UNL     1       0.157   5.363  -8.260  0.00  0.00    +0.052 A 
ATOM     31  C   UNL     1      -0.899   4.896  -9.030  0.00  0.00    +0.027 A 
ATOM     32  C   UNL     1      -1.225   5.531 -10.212  0.00  0.00    +0.040 A 
ATOM     33  C   UNL     1      -0.499   6.634 -10.630  0.00  0.00    +0.125 A 
ATOM     34  C   UNL     1       0.556   7.102  -9.865  0.00  0.00    +0.060 A 
ATOM     35  C   UNL     1       0.881   6.473  -8.678  0.00  0.00    +0.065 A 
ATOM     36 CL   UNL     1       2.199   7.064  -7.714  0.00  0.00    -0.082 Cl
ATOM     37  F   UNL     1      -0.820   7.254 -11.787  0.00  0.00    -0.205 F 
ENDBRANCH  28  30
ENDBRANCH  23  26
ENDBRANCH   4  20
TORSDOF 4
