REMARK  Name = ZINC13250638
REMARK  11 active torsions:
REMARK  status: ('A' for Active; 'I' for Inactive)
REMARK    1  A    between atoms: C_1  and  C_2
REMARK    2  A    between atoms: C_2  and  N_3
REMARK    3  A    between atoms: N_3  and  C_4
REMARK    4  A    between atoms: C_7  and  S_24
REMARK    5  A    between atoms: C_9  and  N_10
REMARK    6  A    between atoms: N_10  and  S_11
REMARK    7  A    between atoms: S_11  and  C_14
REMARK    8  A    between atoms: C_16  and  C_22
REMARK    9  A    between atoms: C_18  and  C_21
REMARK   10  A    between atoms: C_19  and  C_20
REMARK   11  A    between atoms: S_24  and  C_27
REMARK                            x       y       z     vdW  Elec       q    Type
REMARK                         _______ _______ _______ _____ _____    ______ ____
ROOT
ATOM      1  C   UNL     1      -6.767   2.792   3.199  0.00  0.00    +0.050 A 
ATOM      2  C   UNL     1      -7.376   3.998   3.512  0.00  0.00    +0.027 A 
ATOM      3  C   UNL     1      -7.872   4.805   2.505  0.00  0.00    +0.029 A 
ATOM      4  C   UNL     1      -7.757   4.416   1.183  0.00  0.00    +0.099 A 
ATOM      5  C   UNL     1      -7.146   3.218   0.861  0.00  0.00    +0.053 A 
ATOM      6  C   UNL     1      -6.646   2.403   1.865  0.00  0.00    +0.071 A 
ENDROOT
BRANCH   4   7
ATOM      7  S   UNL     1      -8.392   5.450  -0.095  0.00  0.00    +0.091 S 
ATOM      8  O   UNL     1      -8.365   6.761   0.452  0.00  0.00    -0.161 OA
ATOM      9  O   UNL     1      -7.617   5.127  -1.241  0.00  0.00    -0.161 OA
BRANCH   7  10
ATOM     10  C   UNL     1     -10.107   4.905  -0.326  0.00  0.00    +0.526 C 
ATOM     11  F   UNL     1     -10.813   5.068   0.871  0.00  0.00    -0.150 F 
ATOM     12  F   UNL     1     -10.708   5.671  -1.331  0.00  0.00    -0.150 F 
ATOM     13  F   UNL     1     -10.122   3.557  -0.696  0.00  0.00    -0.150 F 
ENDBRANCH   7  10
ENDBRANCH   4   7
BRANCH   1  14
ATOM     14  N   UNL     1      -6.269   1.971   4.218  0.00  0.00    -0.343 N 
ATOM     15  H   UNL     1      -5.840   1.130   3.996  0.00  0.00    +0.146 HD
BRANCH  14  17
ATOM     16  C   UNL     1      -5.777   1.314   6.521  0.00  0.00    +0.024 C 
ATOM     17  C   UNL     1      -6.397   2.382   5.618  0.00  0.00    +0.098 C 
ENDBRANCH  14  17
ENDBRANCH   1  14
BRANCH   6  18
ATOM     18  N   UNL     1      -6.027   1.190   1.541  0.00  0.00    -0.214 N 
ATOM     19  H   UNL     1      -6.133   0.421   2.122  0.00  0.00    +0.174 HD
BRANCH  18  20
ATOM     20  S   UNL     1      -5.114   1.068   0.165  0.00  0.00    +0.073 S 
ATOM     21  O   UNL     1      -4.589  -0.252   0.141  0.00  0.00    -0.150 OA
ATOM     22  O   UNL     1      -4.282   2.219   0.126  0.00  0.00    -0.150 OA
BRANCH  20  23
ATOM     23  C   UNL     1      -6.215   1.196  -1.204  0.00  0.00    +0.112 A 
ATOM     24  C   UNL     1      -6.103   2.254  -2.082  0.00  0.00    +0.044 A 
ATOM     25  C   UNL     1      -6.981   2.357  -3.163  0.00  0.00    +0.065 A 
ATOM     26  C   UNL     1      -7.960   1.380  -3.354  0.00  0.00    +0.018 A 
ATOM     27  C   UNL     1      -8.058   0.324  -2.473  0.00  0.00    -0.045 A 
ATOM     28  C   UNL     1      -7.188   0.231  -1.400  0.00  0.00    -0.021 A 
ATOM     29  C   UNL     1      -7.301  -0.925  -0.441  0.00  0.00    +0.046 C 
ATOM     30  C   UNL     1      -9.114  -0.732  -2.678  0.00  0.00    +0.044 C 
BRANCH  25  31
ATOM     31  C   UNL     1      -6.870   3.491  -4.103  0.00  0.00    +0.387 C 
ATOM     32  O   UNL     1      -6.017   4.339  -3.934  0.00  0.00    -0.241 OA
ATOM     33  O   UNL     1      -7.712   3.582  -5.151  0.00  0.00    -0.241 OA
ENDBRANCH  25  31
ENDBRANCH  20  23
ENDBRANCH  18  20
ENDBRANCH   6  18
TORSDOF 8
