REMARK  Name = ZINC13031392
REMARK  8 active torsions:
REMARK  status: ('A' for Active; 'I' for Inactive)
REMARK    1  A    between atoms: C_3  and  S_9
REMARK    2  A    between atoms: C_6  and  C_7
REMARK    3  A    between atoms: S_9  and  N_12
REMARK    4  A    between atoms: N_12  and  C_13
REMARK    5  A    between atoms: C_16  and  S_19
REMARK    6  A    between atoms: S_19  and  N_22
REMARK    7  A    between atoms: N_22  and  C_23
REMARK    8  A    between atoms: C_23  and  C_24
REMARK                            x       y       z     vdW  Elec       q    Type
REMARK                         _______ _______ _______ _____ _____    ______ ____
ROOT
ATOM      1  C   UNL     1       1.236  -0.684   0.011  0.00  0.00    +0.048 A 
ATOM      2  C   UNL     1       0.037   0.011   0.100  0.00  0.00    +0.026 A 
ATOM      3  C   UNL     1       0.042   1.392   0.131  0.00  0.00    +0.030 A 
ATOM      4  C   UNL     1       1.239   2.082   0.074  0.00  0.00    +0.105 A 
ATOM      5  C   UNL     1       2.435   1.393  -0.015  0.00  0.00    +0.030 A 
ATOM      6  C   UNL     1       2.437   0.013  -0.046  0.00  0.00    +0.026 A 
ENDROOT
BRANCH   4   7
ATOM      7  S   UNL     1       1.241   3.844   0.113  0.00  0.00    +0.059 S 
ATOM      8  O   UNL     1       2.451   4.263  -0.502  0.00  0.00    -0.153 OA
ATOM      9  O   UNL     1      -0.035   4.262  -0.352  0.00  0.00    -0.153 OA
BRANCH   7  10
ATOM     10  N   UNL     1       1.337   4.298   1.703  0.00  0.00    -0.181 NA
ATOM     11  H   UNL     1       0.599   4.772   2.118  0.00  0.00    +0.148 HD
BRANCH  10  12
ATOM     12  C   UNL     1       2.536   3.983   2.483  0.00  0.00    +0.219 C 
BRANCH  12  13
ATOM     13  C   UNL     1       2.540   4.813   3.769  0.00  0.00    +0.404 C 
ATOM     14  F   UNL     1       1.401   4.511   4.523  0.00  0.00    -0.169 F 
ATOM     15  F   UNL     1       3.686   4.513   4.514  0.00  0.00    -0.169 F 
ATOM     16  F   UNL     1       2.538   6.174   3.446  0.00  0.00    -0.169 F 
ENDBRANCH  12  13
ENDBRANCH  10  12
ENDBRANCH   7  10
ENDBRANCH   4   7
BRANCH   1  17
ATOM     17  N   UNL     1       1.235  -2.080  -0.021  0.00  0.00    -0.216 N 
ATOM     18  H   UNL     1       0.691  -2.579   0.608  0.00  0.00    +0.174 HD
BRANCH  17  19
ATOM     19  S   UNL     1       2.163  -2.884  -1.133  0.00  0.00    +0.072 S 
ATOM     20  O   UNL     1       3.481  -2.368  -1.012  0.00  0.00    -0.150 OA
ATOM     21  O   UNL     1       1.869  -4.266  -0.984  0.00  0.00    -0.150 OA
BRANCH  19  24
ATOM     22  C   UNL     1       1.758  -1.013  -4.664  0.00  0.00    +0.017 A 
ATOM     23  C   UNL     1       2.205  -1.385  -3.413  0.00  0.00    +0.029 A 
ATOM     24  C   UNL     1       1.584  -2.415  -2.730  0.00  0.00    +0.109 A 
ATOM     25  C   UNL     1       0.513  -3.083  -3.298  0.00  0.00    +0.029 A 
ATOM     26  C   UNL     1       0.052  -2.719  -4.546  0.00  0.00    +0.017 A 
ATOM     27  C   UNL     1       0.675  -1.680  -5.241  0.00  0.00    +0.063 A 
BRANCH  27  28
ATOM     28  C   UNL     1       0.190  -1.287  -6.580  0.00  0.00    +0.387 C 
ATOM     29  O   UNL     1       0.733  -0.382  -7.181  0.00  0.00    -0.241 OA
ATOM     30  O   UNL     1      -0.855  -1.932  -7.133  0.00  0.00    -0.241 OA
ENDBRANCH  27  28
ENDBRANCH  19  24
ENDBRANCH  17  19
ENDBRANCH   1  17
TORSDOF 8
