REMARK  Name = ZINC15830908
REMARK  6 active torsions:
REMARK  status: ('A' for Active; 'I' for Inactive)
REMARK    1  A    between atoms: C_1  and  O_2
REMARK    2  A    between atoms: O_2  and  C_3
REMARK    3  A    between atoms: C_7  and  C_10
REMARK    4  A    between atoms: C_8  and  O_9
REMARK    5  A    between atoms: C_20  and  O_25
REMARK    6  A    between atoms: O_25  and  C_26
REMARK                            x       y       z     vdW  Elec       q    Type
REMARK                         _______ _______ _______ _____ _____    ______ ____
ROOT
ATOM      1  C   UNL     1       1.401  -4.111   2.232  0.00  0.00    +0.168 A 
ATOM      2  N   UNL     1       0.847  -4.826   1.263  0.00  0.00    -0.220 NA
ATOM      3  C   UNL     1       0.892  -6.156   1.290  0.00  0.00    +0.119 A 
ATOM      4  S   UNL     1       0.156  -7.104  -0.000  0.00  0.00    -0.030 SA
ATOM      5  C   UNL     1       1.532  -6.788   2.355  0.00  0.00    +0.052 A 
ATOM      6  C   UNL     1       1.600  -8.287   2.413  0.00  0.00    +0.082 C 
ATOM      7  C   UNL     1       1.947  -8.745   3.805  0.00  0.00    +0.004 A 
ATOM      8  C   UNL     1       1.714 -10.062   4.162  0.00  0.00    +0.023 A 
ATOM      9  C   UNL     1       2.025 -10.506   5.433  0.00  0.00    +0.022 A 
ATOM     10  C   UNL     1       2.572  -9.633   6.357  0.00  0.00    +0.064 A 
ATOM     11  C   UNL     1       2.808  -8.315   6.006  0.00  0.00    +0.164 A 
ATOM     12  C   UNL     1       2.493  -7.867   4.723  0.00  0.00    +0.175 A 
ATOM     13  O   UNL     1       2.731  -6.571   4.401  0.00  0.00    -0.434 OA
ATOM     14  C   UNL     1       2.100  -6.008   3.350  0.00  0.00    +0.229 A 
ATOM     15  N   UNL     1       2.021  -4.682   3.255  0.00  0.00    -0.192 NA
ATOM     16 BR   UNL     1       1.703 -12.307   5.911  0.00  0.00    -0.050 Br
ENDROOT
BRANCH   1  21
ATOM     17  C   UNL     1       0.626  -0.619   1.042  0.00  0.00    +0.162 A 
ATOM     18  C   UNL     1       1.202   0.138   2.050  0.00  0.00    +0.049 A 
ATOM     19  C   UNL     1       1.838  -0.482   3.111  0.00  0.00    +0.004 A 
ATOM     20  C   UNL     1       1.905  -1.859   3.174  0.00  0.00    +0.015 A 
ATOM     21  C   UNL     1       1.330  -2.632   2.166  0.00  0.00    +0.064 A 
ATOM     22  C   UNL     1       0.682  -2.007   1.098  0.00  0.00    +0.169 A 
BRANCH  17  24
ATOM     23  C   UNL     1      -0.017   1.425   0.010  0.00  0.00    +0.277 C 
ATOM     24  O   UNL     1       0.002  -0.004   0.002  0.00  0.00    -0.491 OA
ENDBRANCH  17  24
BRANCH  22  25
ATOM     25  O   UNL     1       0.114  -2.753   0.114  0.00  0.00    -0.503 OA
ATOM     26  H   UNL     1       0.710  -2.956  -0.620  0.00  0.00    +0.292 HD
ENDBRANCH  22  25
ENDBRANCH   1  21
BRANCH  11  27
ATOM     27  O   UNL     1       3.345  -7.456   6.913  0.00  0.00    -0.491 OA
ATOM     28  C   UNL     1       3.642  -7.983   8.208  0.00  0.00    +0.277 C 
ENDBRANCH  11  27
TORSDOF 4
