REMARK  Name = ZINC08385324
REMARK  12 active torsions:
REMARK  status: ('A' for Active; 'I' for Inactive)
REMARK    1  A    between atoms: C_1  and  C_2
REMARK    2  A    between atoms: C_2  and  C_4
REMARK    3  A    between atoms: C_2  and  C_12
REMARK    4  A    between atoms: C_4  and  C_5
REMARK    5  A    between atoms: C_5  and  C_6
REMARK    6  A    between atoms: N_8  and  C_9
REMARK    7  A    between atoms: C_9  and  C_10
REMARK    8  A    between atoms: C_18  and  C_39
REMARK    9  A    between atoms: C_19  and  O_38
REMARK   10  A    between atoms: C_24  and  O_37
REMARK   11  A    between atoms: C_29  and  C_36
REMARK   12  A    between atoms: C_32  and  O_35
REMARK                            x       y       z     vdW  Elec       q    Type
REMARK                         _______ _______ _______ _____ _____    ______ ____
ROOT
ATOM      1  C   UNL     1      -5.025   3.424  -5.639  0.00  0.00    +0.001 C 
ATOM      2  C   UNL     1      -6.232   4.198  -4.794  0.00  0.00    +0.005 C 
ATOM      3  C   UNL     1      -5.838   4.003  -3.323  0.00  0.00    +0.007 C 
ATOM      4  C   UNL     1      -4.433   3.600  -3.355  0.00  0.00    +0.030 C 
ATOM      5  C   UNL     1      -4.297   2.675  -4.521  0.00  0.00    +0.002 C 
ATOM      6  C   UNL     1      -2.896   2.199  -4.675  0.00  0.00    +0.121 C 
ATOM      7  C   UNL     1      -2.404   1.485  -3.489  0.00  0.00    +0.038 C 
ATOM      8  C   UNL     1      -3.147   1.738  -2.192  0.00  0.00    +0.030 C 
ATOM      9  C   UNL     1      -3.765   3.148  -2.015  0.00  0.00    +0.073 C 
ATOM     10  C   UNL     1      -4.827   3.110  -0.963  0.00  0.00    +0.035 C 
ATOM     11  C   UNL     1      -4.402   2.214   0.177  0.00  0.00    +0.007 C 
ATOM     12  C   UNL     1      -2.890   2.073   0.236  0.00  0.00    -0.002 C 
ATOM     13  C   UNL     1      -2.315   1.320  -0.980  0.00  0.00    -0.024 C 
ATOM     14  C   UNL     1      -0.841   1.675  -1.135  0.00  0.00    +0.010 C 
ATOM     15  C   UNL     1      -0.111   1.185   0.172  0.00  0.00    +0.032 C 
ATOM     16  C   UNL     1      -0.768   1.745   1.447  0.00  0.00    +0.115 C 
ATOM     17  C   UNL     1      -2.304   1.536   1.495  0.00  0.00    +0.035 C 
ATOM     18  C   UNL     1      -2.571  -0.164  -0.820  0.00  0.00    +0.012 C 
ATOM     19  C   UNL     1      -5.180   1.400  -4.244  0.00  0.00    +0.014 C 
ENDROOT
BRANCH   1  21
ATOM     20  C   UNL     1      -3.856   5.592  -5.362  0.00  0.00    +0.008 C 
ATOM     21  C   UNL     1      -4.216   4.479  -6.348  0.00  0.00    -0.010 C 
BRANCH  21  22
ATOM     22  C   UNL     1      -5.036   5.062  -7.500  0.00  0.00    +0.013 C 
BRANCH  22  23
ATOM     23  C   UNL     1      -4.164   6.023  -8.311  0.00  0.00    +0.096 C 
BRANCH  23  24
ATOM     24  C   UNL     1      -4.972   6.598  -9.446  0.00  0.00    +0.213 C 
ATOM     25  O   UNL     1      -6.131   6.271  -9.591  0.00  0.00    -0.276 OA
ATOM     26  N   UNL     1      -4.407   7.474 -10.299  0.00  0.00    -0.305 N 
ATOM     27  H   UNL     1      -3.480   7.736 -10.183  0.00  0.00    +0.149 HD
BRANCH  26  28
ATOM     28  C   UNL     1      -5.193   8.033 -11.402  0.00  0.00    +0.229 C 
BRANCH  28  29
ATOM     29  C   UNL     1      -4.334   8.979 -12.201  0.00  0.00    +0.373 C 
ATOM     30  O   UNL     1      -3.184   9.168 -11.882  0.00  0.00    -0.245 OA
ATOM     31  O   UNL     1      -4.847   9.613 -13.268  0.00  0.00    -0.245 OA
ENDBRANCH  28  29
ENDBRANCH  26  28
ENDBRANCH  23  24
ENDBRANCH  22  23
ENDBRANCH  21  22
ENDBRANCH   1  21
BRANCH  16  32
ATOM     32  O   UNL     1      -0.436   3.108   1.522  0.00  0.00    -0.392 OA
ATOM     33  H   UNL     1       0.515   3.279   1.568  0.00  0.00    +0.210 HD
ENDBRANCH  16  32
BRANCH   9  34
ATOM     34  O   UNL     1      -2.748   4.051  -1.729  0.00  0.00    -0.388 OA
ATOM     35  H   UNL     1      -3.042   4.971  -1.676  0.00  0.00    +0.210 HD
ENDBRANCH   9  34
BRANCH   6  36
ATOM     36  O   UNL     1      -1.996   3.386  -4.967  0.00  0.00    -0.391 OA
ATOM     37  H   UNL     1      -1.064   3.155  -5.080  0.00  0.00    +0.210 HD
ENDBRANCH   6  36
TORSDOF 9
