REMARK  Name = ZINC15188106
REMARK  6 active torsions:
REMARK  status: ('A' for Active; 'I' for Inactive)
REMARK    1  A    between atoms: C_1  and  C_2
REMARK    2  A    between atoms: C_4  and  C_24
REMARK    3  A    between atoms: N_13  and  C_16
REMARK    4  A    between atoms: C_16  and  C_17
REMARK    5  A    between atoms: N_29  and  C_32
REMARK    6  A    between atoms: C_32  and  C_33
REMARK                            x       y       z     vdW  Elec       q    Type
REMARK                         _______ _______ _______ _____ _____    ______ ____
ROOT
ATOM      1  C   UNL     1      -0.741   2.192  -1.067  0.00  0.00    +0.039 C 
ATOM      2  C   UNL     1      -0.661   0.741  -0.666  0.00  0.00    -0.064 C 
ATOM      3  C   UNL     1      -0.338  -0.108  -1.581  0.00  0.00    -0.023 C 
ATOM      4  C   UNL     1      -0.225  -1.581  -1.344  0.00  0.00    +0.025 C 
ATOM      5  C   UNL     1      -0.062  -1.899   0.129  0.00  0.00    +0.022 C 
ATOM      6  C   UNL     1      -0.963  -1.099   1.028  0.00  0.00    +0.092 C 
ATOM      7  C   UNL     1      -0.956   0.407   0.760  0.00  0.00    +0.113 C 
ATOM      8  C   UNL     1      -2.405   0.778   1.052  0.00  0.00    +0.230 C 
ATOM      9  O   UNL     1      -2.821   1.888   1.304  0.00  0.00    -0.274 OA
ATOM     10  N   UNL     1      -3.143  -0.343   0.980  0.00  0.00    -0.237 N 
ATOM     11  C   UNL     1      -2.420  -1.471   0.848  0.00  0.00    +0.226 C 
ATOM     12  O   UNL     1      -2.853  -2.583   0.632  0.00  0.00    -0.275 OA
ENDROOT
BRANCH   4  13
ATOM     13  C   UNL     1       0.989  -2.117  -2.105  0.00  0.00    +0.091 C 
ATOM     14  C   UNL     1       0.813  -1.908  -3.623  0.00  0.00    +0.109 C 
ATOM     15  C   UNL     1       0.828  -3.315  -4.179  0.00  0.00    +0.223 C 
ATOM     16  O   UNL     1       0.718  -3.609  -5.350  0.00  0.00    -0.275 OA
ATOM     17  N   UNL     1       0.984  -4.184  -3.173  0.00  0.00    -0.237 N 
ATOM     18  C   UNL     1       1.088  -3.620  -1.960  0.00  0.00    +0.226 C 
ATOM     19  O   UNL     1       1.235  -4.216  -0.914  0.00  0.00    -0.275 OA
BRANCH  17  20
ATOM     20  C   UNL     1       1.040  -5.634  -3.379  0.00  0.00    +0.153 C 
BRANCH  20  21
ATOM     21  C   UNL     1       2.439  -6.032  -3.774  0.00  0.00    -0.011 A 
ATOM     22  C   UNL     1       2.771  -6.155  -5.110  0.00  0.00    +0.006 A 
ATOM     23  C   UNL     1       4.054  -6.520  -5.472  0.00  0.00    +0.000 A 
ATOM     24  C   UNL     1       5.006  -6.762  -4.499  0.00  0.00    +0.001 A 
ATOM     25  C   UNL     1       4.674  -6.640  -3.163  0.00  0.00    +0.020 A 
ATOM     26  C   UNL     1       3.392  -6.269  -2.799  0.00  0.00    +0.046 A 
ATOM     27 CL   UNL     1       2.976  -6.109  -1.121  0.00  0.00    -0.083 Cl
ENDBRANCH  20  21
ENDBRANCH  17  20
ENDBRANCH   4  13
BRANCH  10  28
ATOM     28  C   UNL     1      -4.607  -0.340   1.032  0.00  0.00    +0.153 C 
BRANCH  28  29
ATOM     29  C   UNL     1      -5.158  -0.044  -0.339  0.00  0.00    -0.011 A 
ATOM     30  C   UNL     1      -5.483   1.253  -0.688  0.00  0.00    +0.006 A 
ATOM     31  C   UNL     1      -5.988   1.525  -1.945  0.00  0.00    +0.000 A 
ATOM     32  C   UNL     1      -6.169   0.499  -2.855  0.00  0.00    +0.001 A 
ATOM     33  C   UNL     1      -5.844  -0.798  -2.507  0.00  0.00    +0.020 A 
ATOM     34  C   UNL     1      -5.333  -1.070  -1.250  0.00  0.00    +0.046 A 
ATOM     35 CL   UNL     1      -4.918  -2.699  -0.815  0.00  0.00    -0.083 Cl
ENDBRANCH  28  29
ENDBRANCH  10  28
TORSDOF 5
