REMARK  Name = ZINC35694826
REMARK  14 active torsions:
REMARK  status: ('A' for Active; 'I' for Inactive)
REMARK    1  A    between atoms: C_1  and  C_2
REMARK    2  A    between atoms: C_5  and  C_8
REMARK    3  A    between atoms: N_10  and  C_32
REMARK    4  A    between atoms: N_13  and  C_14
REMARK    5  A    between atoms: C_14  and  C_16
REMARK    6  A    between atoms: C_16  and  N_17
REMARK    7  A    between atoms: N_17  and  C_18
REMARK    8  A    between atoms: C_18  and  C_19
REMARK    9  A    between atoms: C_19  and  N_20
REMARK   10  A    between atoms: N_20  and  C_21
REMARK   11  A    between atoms: N_20  and  C_22
REMARK   12  A    between atoms: C_23  and  C_25
REMARK   13  A    between atoms: C_28  and  C_31
REMARK   14  A    between atoms: C_35  and  C_38
REMARK                            x       y       z     vdW  Elec       q    Type
REMARK                         _______ _______ _______ _____ _____    ______ ____
ROOT
ATOM      1  C   UNL     1       2.997  -7.063   0.650  0.00  0.00    +0.066 A 
ATOM      2  C   UNL     1       3.082  -8.185   1.386  0.00  0.00    +0.120 A 
ATOM      3  N   UNL     1       2.527  -9.218   0.658  0.00  0.00    -0.287 N 
ATOM      4  C   UNL     1       2.101  -8.717  -0.532  0.00  0.00    +0.205 A 
ATOM      5  N   UNL     1       2.378  -7.387  -0.552  0.00  0.00    -0.326 N 
ATOM      6  N   UNL     1       1.511  -9.408  -1.507  0.00  0.00    -0.145 NA
ATOM      7  H   UNL     1       2.181  -6.773  -1.276  0.00  0.00    +0.169 HD
ENDROOT
BRANCH   1  12
ATOM      8  C   UNL     1       4.844  -1.839   2.208  0.00  0.00    +0.044 C 
ATOM      9  C   UNL     1       4.361  -3.207   1.799  0.00  0.00    -0.050 A 
ATOM     10  C   UNL     1       3.760  -3.386   0.566  0.00  0.00    +0.004 A 
ATOM     11  C   UNL     1       3.315  -4.636   0.187  0.00  0.00    +0.010 A 
ATOM     12  C   UNL     1       3.472  -5.721   1.050  0.00  0.00    -0.000 A 
ATOM     13  C   UNL     1       4.079  -5.534   2.292  0.00  0.00    +0.010 A 
ATOM     14  C   UNL     1       4.525  -4.280   2.658  0.00  0.00    +0.004 A 
ENDBRANCH   1  12
BRANCH   3  15
ATOM     15  C   UNL     1       2.422 -10.551   1.073  0.00  0.00    +0.049 A 
ATOM     16  C   UNL     1       1.844 -11.497   0.237  0.00  0.00    +0.026 A 
ATOM     17  C   UNL     1       1.742 -12.811   0.649  0.00  0.00    +0.005 A 
ATOM     18  C   UNL     1       2.214 -13.186   1.893  0.00  0.00    -0.050 A 
ATOM     19  C   UNL     1       2.790 -12.247   2.729  0.00  0.00    +0.005 A 
ATOM     20  C   UNL     1       2.900 -10.932   2.321  0.00  0.00    +0.026 A 
ATOM     21  C   UNL     1       2.100 -14.621   2.340  0.00  0.00    +0.044 C 
ENDBRANCH   3  15
BRANCH   6  22
ATOM     22  C   UNL     1       1.141  -8.796  -2.626  0.00  0.00    +0.256 C 
ATOM     23  O   UNL     1       1.342  -7.604  -2.761  0.00  0.00    -0.272 OA
BRANCH  22  24
ATOM     24  C   UNL     1       0.473  -9.577  -3.727  0.00  0.00    +0.205 C 
BRANCH  24  25
ATOM     25  N   UNL     1       0.167  -8.681  -4.845  0.00  0.00    -0.290 N 
ATOM     26  C   UNL     1      -1.084  -8.204  -5.003  0.00  0.00    +0.247 C 
ATOM     27  O   UNL     1      -1.345  -7.483  -5.946  0.00  0.00    -0.270 OA
BRANCH  26  28
ATOM     28  C   UNL     1      -2.138  -8.557  -4.028  0.00  0.00    +0.037 A 
ATOM     29  C   UNL     1      -1.793  -8.954  -2.735  0.00  0.00    +0.013 A 
ATOM     30  C   UNL     1      -2.782  -9.281  -1.831  0.00  0.00    +0.004 A 
ATOM     31  C   UNL     1      -4.113  -9.219  -2.204  0.00  0.00    -0.050 A 
ATOM     32  C   UNL     1      -4.462  -8.827  -3.484  0.00  0.00    +0.004 A 
ATOM     33  C   UNL     1      -3.483  -8.491  -4.396  0.00  0.00    +0.013 A 
ATOM     34  C   UNL     1      -5.188  -9.579  -1.210  0.00  0.00    +0.044 C 
ENDBRANCH  26  28
BRANCH  25  35
ATOM     35  C   UNL     1       1.220  -8.304  -5.791  0.00  0.00    +0.090 C 
BRANCH  35  36
ATOM     36  C   UNL     1       1.178  -9.241  -7.000  0.00  0.00    -0.060 C 
BRANCH  36  37
ATOM     37  N   UNL     1       2.171  -8.806  -7.992  0.00  0.00    +0.377 N 
ATOM     38  C   UNL     1       2.232  -9.784  -9.086  0.00  0.00    -0.097 C 
ATOM     39  C   UNL     1       1.785  -7.494  -8.528  0.00  0.00    -0.097 C 
ATOM     40  H   UNL     1       3.077  -8.736  -7.552  0.00  0.00    -0.083 HD
ENDBRANCH  36  37
ENDBRANCH  35  36
ENDBRANCH  25  35
ENDBRANCH  24  25
ENDBRANCH  22  24
ENDBRANCH   6  22
TORSDOF 9
