REMARK  Name = ZINC36513425
REMARK  17 active torsions:
REMARK  status: ('A' for Active; 'I' for Inactive)
REMARK    1  A    between atoms: C_1  and  C_2
REMARK    2  A    between atoms: C_2  and  C_3
REMARK    3  A    between atoms: C_3  and  C_4
REMARK    4  A    between atoms: C_4  and  C_5
REMARK    5  A    between atoms: C_5  and  C_6
REMARK    6  A    between atoms: C_6  and  N_7
REMARK    7  A    between atoms: N_7  and  C_8
REMARK    8  A    between atoms: C_8  and  C_10
REMARK    9  A    between atoms: C_8  and  C_19
REMARK   10  A    between atoms: C_13  and  N_16
REMARK   11  A    between atoms: N_16  and  C_17
REMARK   12  A    between atoms: N_16  and  C_18
REMARK   13  A    between atoms: N_21  and  C_22
REMARK   14  A    between atoms: C_22  and  C_23
REMARK   15  A    between atoms: C_23  and  C_24
REMARK   16  A    between atoms: C_24  and  C_25
REMARK   17  A    between atoms: C_26  and  C_28
REMARK                            x       y       z     vdW  Elec       q    Type
REMARK                         _______ _______ _______ _____ _____    ______ ____
ROOT
ATOM      1  C   UNL     1       3.005  -5.563  -3.058  0.00  0.00    +0.192 C 
ENDROOT
BRANCH   1   2
ATOM      2  C   UNL     1       4.110  -4.551  -3.211  0.00  0.00    -0.018 A 
ATOM      3  C   UNL     1       4.187  -3.781  -4.357  0.00  0.00    +0.008 A 
ATOM      4  C   UNL     1       5.199  -2.853  -4.501  0.00  0.00    +0.023 A 
ATOM      5  C   UNL     1       6.141  -2.693  -3.492  0.00  0.00    +0.029 A 
ATOM      6  C   UNL     1       6.061  -3.468  -2.342  0.00  0.00    +0.023 A 
ATOM      7  C   UNL     1       5.043  -4.390  -2.203  0.00  0.00    +0.008 A 
BRANCH   5   8
ATOM      8  N   UNL     1       7.166  -1.755  -3.634  0.00  0.00    -0.336 N 
ATOM      9  C   UNL     1       7.170  -0.842  -4.781  0.00  0.00    +0.129 C 
ATOM     10  C   UNL     1       8.237  -1.683  -2.638  0.00  0.00    +0.129 C 
ENDBRANCH   5   8
ENDBRANCH   1   2
BRANCH   1  11
ATOM     11  C   UNL     1       3.428  -6.626  -2.076  0.00  0.00    +0.238 C 
ATOM     12  O   UNL     1       3.766  -7.720  -2.475  0.00  0.00    -0.273 OA
ATOM     13  N   UNL     1       3.432  -6.360  -0.755  0.00  0.00    -0.313 N 
ATOM     14  H   UNL     1       3.161  -5.485  -0.436  0.00  0.00    +0.149 HD
BRANCH  13  15
ATOM     15  C   UNL     1       3.844  -7.392   0.199  0.00  0.00    +0.104 C 
BRANCH  15  16
ATOM     16  C   UNL     1       3.757  -6.836   1.622  0.00  0.00    +0.018 C 
BRANCH  16  17
ATOM     17  C   UNL     1       4.187  -7.915   2.618  0.00  0.00    -0.002 C 
ATOM     18  C   UNL     1       4.101  -7.358   4.041  0.00  0.00    +0.004 C 
ENDBRANCH  16  17
ENDBRANCH  15  16
ENDBRANCH  13  15
ENDBRANCH   1  11
BRANCH   1  19
ATOM     19  N   UNL     1       2.725  -6.182  -4.356  0.00  0.00    -0.282 N 
ATOM     20  C   UNL     1       1.666  -5.774  -5.082  0.00  0.00    +0.248 C 
ATOM     21  O   UNL     1       1.276  -6.444  -6.019  0.00  0.00    -0.270 OA
BRANCH  20  22
ATOM     22  C   UNL     1       0.977  -4.511  -4.741  0.00  0.00    +0.038 A 
ATOM     23  C   UNL     1       1.638  -3.532  -3.996  0.00  0.00    +0.013 A 
ATOM     24  C   UNL     1       0.991  -2.355  -3.681  0.00  0.00    +0.002 A 
ATOM     25  C   UNL     1      -0.311  -2.143  -4.101  0.00  0.00    +0.020 A 
ATOM     26  C   UNL     1      -0.972  -3.110  -4.840  0.00  0.00    +0.042 A 
ATOM     27  C   UNL     1      -0.333  -4.290  -5.167  0.00  0.00    +0.033 A 
ATOM     28 CL   UNL     1      -2.604  -2.834  -5.362  0.00  0.00    -0.084 Cl
ENDBRANCH  20  22
BRANCH  19  29
ATOM     29  C   UNL     1       3.597  -7.243  -4.864  0.00  0.00    +0.109 C 
BRANCH  29  30
ATOM     30  C   UNL     1       2.769  -8.504  -5.122  0.00  0.00    +0.019 C 
BRANCH  30  31
ATOM     31  C   UNL     1       3.680  -9.613  -5.653  0.00  0.00    +0.002 C 
BRANCH  31  32
ATOM     32  C   UNL     1       2.852 -10.873  -5.910  0.00  0.00    -0.000 C 
BRANCH  32  34
ATOM     33  C   UNL     1       2.934 -13.243  -6.698  0.00  0.00    +0.004 C 
ATOM     34  C   UNL     1       3.762 -11.982  -6.441  0.00  0.00    -0.003 C 
ENDBRANCH  32  34
ENDBRANCH  31  32
ENDBRANCH  30  31
ENDBRANCH  29  30
ENDBRANCH  19  29
ENDBRANCH   1  19
TORSDOF 13
