REMARK  Name = ZINC66209976
REMARK  8 active torsions:
REMARK  status: ('A' for Active; 'I' for Inactive)
REMARK    1  A    between atoms: C_1  and  C_2
REMARK    2  A    between atoms: C_2  and  C_4
REMARK    3  A    between atoms: C_2  and  N_10
REMARK    4  A    between atoms: C_11  and  C_13
REMARK    5  A    between atoms: C_17  and  N_19
REMARK    6  A    between atoms: C_20  and  C_22
REMARK    7  A    between atoms: C_22  and  N_23
REMARK    8  A    between atoms: N_23  and  C_24
REMARK                            x       y       z     vdW  Elec       q    Type
REMARK                         _______ _______ _______ _____ _____    ______ ____
ROOT
ATOM      1  C   UNL     1       0.813  -0.950   3.605  0.00  0.00    +0.038 A 
ATOM      2  C   UNL     1       2.123  -1.417   3.480  0.00  0.00    +0.013 A 
ATOM      3  C   UNL     1       2.739  -2.036   4.548  0.00  0.00    +0.003 A 
ATOM      4  C   UNL     1       2.065  -2.195   5.745  0.00  0.00    +0.023 A 
ATOM      5  C   UNL     1       0.761  -1.733   5.879  0.00  0.00    +0.034 A 
ATOM      6  C   UNL     1       0.135  -1.105   4.814  0.00  0.00    +0.036 A 
ENDROOT
BRANCH   1   8
ATOM      7  N   UNL     1       0.807  -0.138   1.295  0.00  0.00    -0.305 N 
ATOM      8  C   UNL     1       0.150  -0.287   2.462  0.00  0.00    +0.245 C 
ATOM      9  O   UNL     1      -0.989   0.124   2.575  0.00  0.00    -0.270 OA
ATOM     10  H   UNL     1       1.716  -0.466   1.205  0.00  0.00    +0.150 HD
BRANCH   7  12
ATOM     11  C   UNL     1       0.321   2.035   0.283  0.00  0.00    +0.033 C 
ATOM     12  C   UNL     1       0.150   0.519   0.163  0.00  0.00    +0.100 C 
BRANCH  12  13
ATOM     13  C   UNL     1       0.774   0.044  -1.125  0.00  0.00    -0.027 A 
ATOM     14  C   UNL     1       2.141  -0.143  -1.202  0.00  0.00    +0.005 A 
ATOM     15  C   UNL     1       2.713  -0.579  -2.383  0.00  0.00    +0.000 A 
ATOM     16  C   UNL     1       1.918  -0.827  -3.486  0.00  0.00    +0.000 A 
ATOM     17  C   UNL     1       0.550  -0.640  -3.408  0.00  0.00    +0.000 A 
ATOM     18  C   UNL     1      -0.022  -0.209  -2.226  0.00  0.00    +0.005 A 
ENDBRANCH  12  13
ENDBRANCH   7  12
ENDBRANCH   1   8
BRANCH   5  19
ATOM     19  N   UNL     1       0.083  -1.896   7.092  0.00  0.00    -0.284 N 
ATOM     20  C   UNL     1      -1.249  -2.100   7.097  0.00  0.00    +0.234 C 
ATOM     21  O   UNL     1      -1.846  -2.238   6.050  0.00  0.00    -0.274 OA
ATOM     22  H   UNL     1       0.572  -1.863   7.930  0.00  0.00    +0.155 HD
BRANCH  20  23
ATOM     23  C   UNL     1      -1.998  -2.158   8.404  0.00  0.00    +0.198 C 
BRANCH  23  24
ATOM     24  N   UNL     1      -3.421  -2.387   8.142  0.00  0.00    -0.335 N 
ATOM     25  H   UNL     1      -3.738  -2.476   7.229  0.00  0.00    +0.147 HD
BRANCH  24  26
ATOM     26  C   UNL     1      -4.322  -2.478   9.206  0.00  0.00    +0.029 A 
ATOM     27  C   UNL     1      -3.870  -2.346  10.513  0.00  0.00    +0.024 A 
ATOM     28  C   UNL     1      -4.762  -2.436  11.564  0.00  0.00    +0.023 A 
ATOM     29  C   UNL     1      -6.105  -2.659  11.316  0.00  0.00    +0.059 A 
ATOM     30  C   UNL     1      -6.558  -2.792  10.015  0.00  0.00    +0.061 A 
ATOM     31  C   UNL     1      -5.670  -2.696   8.959  0.00  0.00    +0.044 A 
ATOM     32 CL   UNL     1      -8.244  -3.073   9.708  0.00  0.00    -0.082 Cl
ATOM     33 CL   UNL     1      -7.223  -2.773  12.639  0.00  0.00    -0.082 Cl
ENDBRANCH  24  26
ENDBRANCH  23  24
ENDBRANCH  20  23
ENDBRANCH   5  19
TORSDOF 7
