REMARK  Name = ZINC35129631
REMARK  9 active torsions:
REMARK  status: ('A' for Active; 'I' for Inactive)
REMARK    1  A    between atoms: C_1  and  C_2
REMARK    2  A    between atoms: C_5  and  C_8
REMARK    3  A    between atoms: C_15  and  C_17
REMARK    4  A    between atoms: C_18  and  C_20
REMARK    5  A    between atoms: C_20  and  S_21
REMARK    6  A    between atoms: S_21  and  C_22
REMARK    7  A    between atoms: C_25  and  C_34
REMARK    8  A    between atoms: N_26  and  C_27
REMARK    9  A    between atoms: C_30  and  C_33
REMARK                            x       y       z     vdW  Elec       q    Type
REMARK                         _______ _______ _______ _____ _____    ______ ____
ROOT
ATOM      1  C   UNL     1       1.682  -5.995   5.667  0.00  0.00    +0.173 C 
ENDROOT
BRANCH   1  11
ATOM      2  C   UNL     1       0.059  -4.251  -0.021  0.00  0.00    +0.247 C 
ATOM      3  O   UNL     1      -0.008  -4.854  -1.075  0.00  0.00    -0.270 OA
ATOM      4  N   UNL     1       0.176  -4.930   1.137  0.00  0.00    -0.292 N 
ATOM      5  C   UNL     1       0.168  -4.220   2.424  0.00  0.00    +0.127 C 
ATOM      6  C   UNL     1       1.438  -4.595   3.198  0.00  0.00    +0.127 C 
ATOM      7  N   UNL     1       1.575  -6.058   3.197  0.00  0.00    -0.298 N 
ATOM      8  C   UNL     1       1.582  -6.768   1.910  0.00  0.00    +0.130 C 
ATOM      9  C   UNL     1       0.306  -6.394   1.137  0.00  0.00    +0.091 C 
ATOM     10  C   UNL     1      -0.913  -7.019   1.817  0.00  0.00    +0.029 C 
ATOM     11  C   UNL     1       1.691  -6.737   4.355  0.00  0.00    +0.226 C 
ATOM     12  O   UNL     1       1.803  -7.944   4.342  0.00  0.00    -0.275 OA
BRANCH   2  17
ATOM     13  C   UNL     1      -0.121   1.500   0.021  0.00  0.00    +0.044 C 
ATOM     14  C   UNL     1      -0.074  -0.006   0.009  0.00  0.00    -0.050 A 
ATOM     15  C   UNL     1      -0.927  -0.728   0.825  0.00  0.00    +0.004 A 
ATOM     16  C   UNL     1      -0.889  -2.107   0.820  0.00  0.00    +0.013 A 
ATOM     17  C   UNL     1       0.013  -2.774  -0.011  0.00  0.00    +0.037 A 
ATOM     18  C   UNL     1       0.871  -2.039  -0.831  0.00  0.00    +0.013 A 
ATOM     19  C   UNL     1       0.819  -0.661  -0.821  0.00  0.00    +0.004 A 
ENDBRANCH   2  17
ENDBRANCH   1  11
BRANCH   1  20
ATOM     20  S   UNL     1       1.855  -7.178   7.032  0.00  0.00    -0.076 S 
BRANCH  20  21
ATOM     21  C   UNL     1       1.827  -6.170   8.476  0.00  0.00    +0.197 A 
ATOM     22  N   UNL     1       1.701  -4.862   8.512  0.00  0.00    -0.122 NA
ATOM     23  N   UNL     1       1.720  -4.447   9.727  0.00  0.00    -0.125 NA
ATOM     24  C   UNL     1       1.860  -5.465  10.549  0.00  0.00    +0.205 A 
ATOM     25  N   UNL     1       1.927  -6.603   9.771  0.00  0.00    -0.268 N 
BRANCH  25  26
ATOM     26  C   UNL     1       2.070  -7.925  10.214  0.00  0.00    +0.051 A 
ATOM     27  C   UNL     1       1.063  -8.522  10.959  0.00  0.00    +0.026 A 
ATOM     28  C   UNL     1       1.207  -9.825  11.394  0.00  0.00    +0.005 A 
ATOM     29  C   UNL     1       2.354 -10.535  11.088  0.00  0.00    -0.050 A 
ATOM     30  C   UNL     1       3.359  -9.943  10.346  0.00  0.00    +0.005 A 
ATOM     31  C   UNL     1       3.218  -8.642   9.903  0.00  0.00    +0.026 A 
ATOM     32  C   UNL     1       2.508 -11.956  11.564  0.00  0.00    +0.044 C 
ENDBRANCH  25  26
BRANCH  24  33
ATOM     33  C   UNL     1       1.926  -5.403  12.016  0.00  0.00    +0.172 A 
ATOM     34  C   UNL     1       1.567  -4.339  12.789  0.00  0.00    +0.053 A 
ATOM     35  C   UNL     1       1.793  -4.716  14.127  0.00  0.00    +0.042 A 
ATOM     36  C   UNL     1       2.273  -5.976  14.108  0.00  0.00    +0.196 A 
ATOM     37  O   UNL     1       2.346  -6.390  12.832  0.00  0.00    -0.460 OA
ENDBRANCH  24  33
ENDBRANCH  20  21
ENDBRANCH   1  20
TORSDOF 6
