REMARK  Name = ZINC18137783
REMARK  4 active torsions:
REMARK  status: ('A' for Active; 'I' for Inactive)
REMARK    1  A    between atoms: C_1  and  C_2
REMARK    2  A    between atoms: C_6  and  N_9
REMARK    3  A    between atoms: C_7  and  C_8
REMARK    4  A    between atoms: C_14  and  C_32
REMARK                            x       y       z     vdW  Elec       q    Type
REMARK                         _______ _______ _______ _____ _____    ______ ____
ROOT
ATOM      1  N   UNL     1      -0.524  -2.574   2.376  0.00  0.00    -0.209 N 
ATOM      2  C   UNL     1      -1.512  -3.132   3.136  0.00  0.00    +0.233 C 
ATOM      3  O   UNL     1      -2.665  -3.324   2.812  0.00  0.00    -0.274 OA
ATOM      4  C   UNL     1      -0.874  -3.459   4.458  0.00  0.00    +0.125 C 
ATOM      5  C   UNL     1      -1.161  -4.815   5.116  0.00  0.00    +0.164 C 
ATOM      6  O   UNL     1       0.111  -5.148   5.750  0.00  0.00    -0.348 OA
ATOM      7  C   UNL     1       1.187  -4.506   5.005  0.00  0.00    +0.206 C 
ATOM      8  C   UNL     1       0.534  -3.861   3.856  0.00  0.00    +0.138 C 
ATOM      9  C   UNL     1       0.732  -2.825   2.872  0.00  0.00    +0.234 C 
ATOM     10  O   UNL     1       1.775  -2.294   2.556  0.00  0.00    -0.274 OA
ATOM     11  C   UNL     1       1.898  -3.534   5.912  0.00  0.00    +0.204 C 
ATOM     12  O   UNL     1       1.417  -2.550   6.431  0.00  0.00    -0.288 OA
ATOM     13  C   UNL     1       3.289  -4.004   6.051  0.00  0.00    +0.031 A 
ATOM     14  C   UNL     1       4.362  -3.474   6.771  0.00  0.00    +0.012 A 
ATOM     15  C   UNL     1       5.591  -4.105   6.746  0.00  0.00    +0.001 A 
ATOM     16  C   UNL     1       5.770  -5.264   6.011  0.00  0.00    +0.001 A 
ATOM     17  C   UNL     1       4.722  -5.804   5.292  0.00  0.00    +0.012 A 
ATOM     18  C   UNL     1       3.471  -5.183   5.302  0.00  0.00    +0.031 A 
ATOM     19  C   UNL     1       2.210  -5.549   4.632  0.00  0.00    +0.204 C 
ATOM     20  O   UNL     1       2.029  -6.510   3.914  0.00  0.00    -0.288 OA
ENDROOT
BRANCH   1  26
ATOM     21  C   UNL     1      -1.372   1.768   0.227  0.00  0.00    +0.044 C 
ATOM     22  C   UNL     1      -1.179   0.276   0.143  0.00  0.00    -0.046 A 
ATOM     23  C   UNL     1      -1.240  -0.360  -1.083  0.00  0.00    +0.004 A 
ATOM     24  C   UNL     1      -1.064  -1.729  -1.164  0.00  0.00    +0.002 A 
ATOM     25  C   UNL     1      -0.826  -2.466  -0.020  0.00  0.00    +0.024 A 
ATOM     26  C   UNL     1      -0.764  -1.829   1.213  0.00  0.00    +0.047 A 
ATOM     27  C   UNL     1      -0.936  -0.454   1.290  0.00  0.00    -0.026 A 
ATOM     28  C   UNL     1      -0.864   0.241   2.625  0.00  0.00    +0.046 C 
ENDBRANCH   1  26
BRANCH   5  29
ATOM     29  C   UNL     1      -1.528  -5.843   4.078  0.00  0.00    +0.000 A 
ATOM     30  C   UNL     1      -0.583  -6.750   3.638  0.00  0.00    +0.007 A 
ATOM     31  C   UNL     1      -0.920  -7.694   2.686  0.00  0.00    +0.000 A 
ATOM     32  C   UNL     1      -2.203  -7.732   2.174  0.00  0.00    +0.001 A 
ATOM     33  C   UNL     1      -3.150  -6.826   2.613  0.00  0.00    +0.020 A 
ATOM     34  C   UNL     1      -2.814  -5.884   3.570  0.00  0.00    +0.047 A 
ATOM     35 CL   UNL     1      -4.005  -4.750   4.127  0.00  0.00    -0.083 Cl
ENDBRANCH   5  29
TORSDOF 2
