REMARK  Name = ZINC20033305
REMARK  5 active torsions:
REMARK  status: ('A' for Active; 'I' for Inactive)
REMARK    1  A    between atoms: C_1  and  C_2
REMARK    2  A    between atoms: C_5  and  C_8
REMARK    3  A    between atoms: C_15  and  N_29
REMARK    4  A    between atoms: C_16  and  C_27
REMARK    5  A    between atoms: C_17  and  C_19
REMARK                            x       y       z     vdW  Elec       q    Type
REMARK                         _______ _______ _______ _____ _____    ______ ____
ROOT
ATOM      1  C   UNL     1      -0.100  -4.718   0.077  0.00  0.00    +0.100 A 
ATOM      2  C   UNL     1       0.804  -5.322   0.956  0.00  0.00    +0.054 A 
ATOM      3  C   UNL     1       0.732  -6.673   0.773  0.00  0.00    +0.223 A 
ATOM      4  N   UNL     1      -0.186  -6.909  -0.187  0.00  0.00    -0.246 N 
ATOM      5  H   UNL     1      -0.448  -7.780  -0.524  0.00  0.00    +0.192 HD
ATOM      6  N   UNL     1      -0.700  -5.673  -0.608  0.00  0.00    -0.171 NA
ATOM      7  O   UNL     1       1.492  -7.549   1.477  0.00  0.00    -0.423 OA
ATOM      8  C   UNL     1       2.529  -7.051   2.181  0.00  0.00    +0.200 C 
ATOM      9  C   UNL     1       2.700  -5.735   2.438  0.00  0.00    +0.098 C 
ATOM     10  C   UNL     1       1.730  -4.685   1.959  0.00  0.00    +0.106 C 
ENDROOT
BRANCH  10  11
ATOM     11  C   UNL     1       0.932  -4.160   3.125  0.00  0.00    +0.019 A 
ATOM     12  C   UNL     1       0.072  -5.001   3.811  0.00  0.00    +0.129 A 
ATOM     13  C   UNL     1      -0.660  -4.517   4.882  0.00  0.00    +0.039 A 
ATOM     14  C   UNL     1      -0.533  -3.195   5.265  0.00  0.00    +0.004 A 
ATOM     15  C   UNL     1       0.325  -2.355   4.580  0.00  0.00    +0.020 A 
ATOM     16  C   UNL     1       1.062  -2.839   3.513  0.00  0.00    +0.048 A 
ATOM     17 CL   UNL     1       2.144  -1.785   2.658  0.00  0.00    -0.083 Cl
ATOM     18  F   UNL     1      -0.052  -6.293   3.436  0.00  0.00    -0.205 F 
ENDBRANCH  10  11
BRANCH   1  23
ATOM     19  C   UNL     1      -1.053   0.938  -0.443  0.00  0.00    +0.044 C 
ATOM     20  C   UNL     1      -0.804  -0.542  -0.307  0.00  0.00    -0.050 A 
ATOM     21  C   UNL     1      -1.870  -1.423  -0.302  0.00  0.00    +0.004 A 
ATOM     22  C   UNL     1      -1.647  -2.779  -0.178  0.00  0.00    +0.010 A 
ATOM     23  C   UNL     1      -0.345  -3.260  -0.057  0.00  0.00    +0.003 A 
ATOM     24  C   UNL     1       0.725  -2.369  -0.063  0.00  0.00    +0.010 A 
ATOM     25  C   UNL     1       0.491  -1.015  -0.193  0.00  0.00    +0.004 A 
ENDBRANCH   1  23
BRANCH   8  26
ATOM     26  N   UNL     1       3.465  -7.931   2.663  0.00  0.00    -0.328 N 
ATOM     27  H   UNL     1       3.369  -8.882   2.495  0.00  0.00    +0.145 HD
ATOM     28  H   UNL     1       4.222  -7.603   3.173  0.00  0.00    +0.145 HD
ENDBRANCH   8  26
BRANCH   9  29
ATOM     29  C   UNL     1       3.845  -5.323   3.194  0.00  0.00    +0.101 C 
ATOM     30  N   UNL     1       4.753  -4.997   3.793  0.00  0.00    -0.191 NA
ENDBRANCH   9  29
TORSDOF 4
