REMARK  Name = ZINC44095755
REMARK  3 active torsions:
REMARK  status: ('A' for Active; 'I' for Inactive)
REMARK    1  A    between atoms: C_6  and  C_7
REMARK    2  A    between atoms: C_18  and  C_21
REMARK    3  A    between atoms: C_23  and  C_26
REMARK                            x       y       z     vdW  Elec       q    Type
REMARK                         _______ _______ _______ _____ _____    ______ ____
ROOT
ATOM      1  C   UNL     1      -1.295  -0.764   0.010  0.00  0.00    +0.247 C 
ATOM      2  O   UNL     1      -2.352  -0.179   0.149  0.00  0.00    -0.270 OA
ATOM      3  N   UNL     1      -1.277  -2.107  -0.099  0.00  0.00    -0.295 N 
ATOM      4  C   UNL     1      -0.002  -2.837  -0.142  0.00  0.00    +0.127 C 
ATOM      5  C   UNL     1      -0.004  -3.893   0.970  0.00  0.00    +0.125 C 
ATOM      6  N   UNL     1      -1.259  -4.654   0.892  0.00  0.00    -0.314 N 
ATOM      7  C   UNL     1      -2.534  -3.924   0.935  0.00  0.00    +0.125 C 
ATOM      8  C   UNL     1      -2.532  -2.869  -0.172  0.00  0.00    +0.127 C 
ATOM      9  C   UNL     1      -1.240  -6.037   0.780  0.00  0.00    +0.099 A 
ATOM     10  C   UNL     1      -0.030  -6.719   0.881  0.00  0.00    +0.042 A 
ATOM     11  C   UNL     1      -0.020  -8.095   0.768  0.00  0.00    +0.016 A 
ATOM     12  C   UNL     1      -1.236  -8.754   0.555  0.00  0.00    +0.038 A 
ATOM     13  C   UNL     1      -2.406  -8.005   0.465  0.00  0.00    +0.095 A 
ATOM     14  N   UNL     1      -2.375  -6.693   0.583  0.00  0.00    -0.349 N 
ATOM     15  H   UNL     1      -3.204  -6.193   0.521  0.00  0.00    +0.167 HD
ENDROOT
BRANCH   1  21
ATOM     16  C   UNL     1       0.113   1.169   0.708  0.00  0.00    +0.014 A 
ATOM     17  C   UNL     1       1.296   1.876   0.658  0.00  0.00    +0.016 A 
ATOM     18  C   UNL     1       2.341   1.427  -0.133  0.00  0.00    +0.018 A 
ATOM     19  C   UNL     1       2.205   0.267  -0.877  0.00  0.00    +0.016 A 
ATOM     20  C   UNL     1       1.027  -0.448  -0.835  0.00  0.00    +0.014 A 
ATOM     21  C   UNL     1      -0.030  -0.001  -0.040  0.00  0.00    +0.037 A 
ATOM     22 BR   UNL     1       3.959   2.403  -0.196  0.00  0.00    -0.050 Br
ENDBRANCH   1  21
BRANCH  12  23
ATOM     23  C   UNL     1      -1.278 -10.231   0.426  0.00  0.00    +0.203 A 
ATOM     24  N   UNL     1      -2.383 -10.970   0.216  0.00  0.00    -0.191 NA
ATOM     25  C   UNL     1      -2.070 -12.232   0.152  0.00  0.00    +0.231 A 
ATOM     26  O   UNL     1      -0.746 -12.351   0.321  0.00  0.00    -0.337 OA
ATOM     27  N   UNL     1      -0.244 -11.034   0.493  0.00  0.00    -0.056 NA
BRANCH  25  28
ATOM     28  C   UNL     1      -3.034 -13.369  -0.072  0.00  0.00    +0.078 C 
ATOM     29  C   UNL     1      -2.497 -14.793   0.087  0.00  0.00    +0.014 C 
ATOM     30  C   UNL     1      -2.816 -14.246  -1.306  0.00  0.00    +0.014 C 
ENDBRANCH  25  28
ENDBRANCH  12  23
TORSDOF 3
