REMARK  Name = ZINC59404318
REMARK  12 active torsions:
REMARK  status: ('A' for Active; 'I' for Inactive)
REMARK    1  A    between atoms: C_1  and  C_2
REMARK    2  A    between atoms: C_2  and  C_3
REMARK    3  A    between atoms: C_3  and  N_4
REMARK    4  A    between atoms: N_4  and  C_5
REMARK    5  A    between atoms: N_4  and  C_20
REMARK    6  A    between atoms: C_5  and  C_6
REMARK    7  A    between atoms: N_8  and  C_9
REMARK    8  A    between atoms: C_13  and  C_15
REMARK    9  A    between atoms: N_17  and  C_18
REMARK   10  A    between atoms: C_18  and  C_19
REMARK   11  A    between atoms: C_20  and  C_22
REMARK   12  A    between atoms: C_20  and  C_23
REMARK                            x       y       z     vdW  Elec       q    Type
REMARK                         _______ _______ _______ _____ _____    ______ ____
ROOT
ATOM      1  C   UNL     1       0.366  -1.465   3.773  0.00  0.00    +0.201 C 
ATOM      2  O   UNL     1      -0.137  -0.375   3.601  0.00  0.00    -0.278 OA
ATOM      3  N   UNL     1       0.368  -2.020   5.002  0.00  0.00    -0.287 N 
ATOM      4  H   UNL     1       0.702  -2.923   5.126  0.00  0.00    +0.155 HD
ENDROOT
BRANCH   3   5
ATOM      5  C   UNL     1      -0.111  -1.295   6.098  0.00  0.00    +0.034 A 
ATOM      6  C   UNL     1       0.490  -1.439   7.343  0.00  0.00    +0.023 A 
ATOM      7  C   UNL     1       0.020  -0.725   8.429  0.00  0.00    +0.003 A 
ATOM      8  C   UNL     1      -1.049   0.137   8.285  0.00  0.00    +0.013 A 
ATOM      9  C   UNL     1      -1.659   0.289   7.039  0.00  0.00    +0.038 A 
ATOM     10  C   UNL     1      -1.181  -0.428   5.941  0.00  0.00    +0.036 A 
BRANCH   9  11
ATOM     11  C   UNL     1      -2.804   1.210   6.881  0.00  0.00    +0.244 C 
ATOM     12  O   UNL     1      -3.334   1.341   5.795  0.00  0.00    -0.270 OA
ATOM     13  N   UNL     1      -3.260   1.906   7.942  0.00  0.00    -0.312 N 
ATOM     14  H   UNL     1      -2.838   1.801   8.809  0.00  0.00    +0.149 HD
BRANCH  13  15
ATOM     15  C   UNL     1      -4.395   2.819   7.786  0.00  0.00    +0.101 C 
ATOM     16  C   UNL     1      -4.709   3.477   9.131  0.00  0.00    +0.024 C 
ENDBRANCH  13  15
ENDBRANCH   9  11
ENDBRANCH   3   5
BRANCH   1  17
ATOM     17  C   UNL     1       0.989  -2.199   2.614  0.00  0.00    +0.020 C 
BRANCH  17  18
ATOM     18  N   UNL     1       0.858  -1.390   1.395  0.00  0.00    +0.390 N 
ATOM     19  H   UNL     1      -0.113  -1.156   1.249  0.00  0.00    -0.080 HD
BRANCH  18  20
ATOM     20  C   UNL     1       1.356  -2.155   0.244  0.00  0.00    -0.039 C 
ATOM     21  C   UNL     1       0.774  -3.569   0.280  0.00  0.00    -0.008 C 
BRANCH  20  22
ATOM     22  C   UNL     1       0.938  -1.471  -1.032  0.00  0.00    -0.047 A 
ATOM     23  C   UNL     1      -0.259  -0.781  -1.086  0.00  0.00    +0.003 A 
ATOM     24  C   UNL     1      -0.643  -0.153  -2.257  0.00  0.00    +0.000 A 
ATOM     25  C   UNL     1       0.170  -0.216  -3.374  0.00  0.00    +0.001 A 
ATOM     26  C   UNL     1       1.366  -0.906  -3.321  0.00  0.00    +0.015 A 
ATOM     27  C   UNL     1       1.753  -1.530  -2.148  0.00  0.00    +0.019 A 
ATOM     28 BR   UNL     1       3.393  -2.468  -2.073  0.00  0.00    -0.050 Br
ENDBRANCH  20  22
ENDBRANCH  18  20
BRANCH  18  29
ATOM     29  C   UNL     1       1.642  -0.156   1.540  0.00  0.00    -0.078 C 
BRANCH  29  31
ATOM     30  C   UNL     1       2.045   2.118   0.587  0.00  0.00    +0.002 C 
ATOM     31  C   UNL     1       1.363   0.768   0.354  0.00  0.00    -0.022 C 
ENDBRANCH  29  31
ENDBRANCH  18  29
ENDBRANCH  17  18
ENDBRANCH   1  17
TORSDOF 9
