REMARK  Name = ZINC16009675
REMARK  2 active torsions:
REMARK  status: ('A' for Active; 'I' for Inactive)
REMARK    1  A    between atoms: C_4  and  N_33
REMARK    2  A    between atoms: C_6  and  N_7
REMARK                            x       y       z     vdW  Elec       q    Type
REMARK                         _______ _______ _______ _____ _____    ______ ____
ROOT
ATOM      1  N   UNL     1       0.002  -0.004   0.002  0.00  0.00    -0.210 N 
ATOM      2  C   UNL     1      -1.125  -0.776   0.015  0.00  0.00    +0.228 C 
ATOM      3  O   UNL     1      -2.249  -0.426   0.304  0.00  0.00    -0.275 OA
ATOM      4  C   UNL     1      -0.679  -2.151  -0.409  0.00  0.00    +0.074 C 
ATOM      5  C   UNL     1      -1.238  -3.370   0.333  0.00  0.00    -0.054 C 
ATOM      6  C   UNL     1      -1.808  -2.999   1.714  0.00  0.00    -0.016 C 
ATOM      7  C   UNL     1      -1.405  -4.221   2.584  0.00  0.00    -0.020 C 
ATOM      8  C   UNL     1       0.000  -4.554   2.026  0.00  0.00    -0.076 C 
ATOM      9  N   UNL     1      -0.056  -4.247   0.588  0.00  0.00    +0.395 N 
ATOM     10  C   UNL     1       1.170  -3.486   0.200  0.00  0.00    +0.053 C 
ATOM     11  C   UNL     1       0.731  -2.091   0.304  0.00  0.00    +0.089 C 
ATOM     12  C   UNL     1       1.155  -0.749  -0.013  0.00  0.00    +0.229 C 
ATOM     13  O   UNL     1       2.282  -0.364  -0.242  0.00  0.00    -0.275 OA
ATOM     14  C   UNL     1       1.631  -3.917  -1.165  0.00  0.00    -0.024 A 
ATOM     15  C   UNL     1       1.065  -3.856  -2.419  0.00  0.00    +0.043 A 
ATOM     16  C   UNL     1       1.752  -4.350  -3.515  0.00  0.00    +0.124 A 
ATOM     17  C   UNL     1       3.010  -4.905  -3.347  0.00  0.00    +0.040 A 
ATOM     18  C   UNL     1       3.580  -4.967  -2.092  0.00  0.00    +0.026 A 
ATOM     19  C   UNL     1       2.895  -4.471  -0.986  0.00  0.00    +0.036 A 
ATOM     20  N   UNL     1       3.258  -4.420   0.363  0.00  0.00    -0.286 N 
ATOM     21  C   UNL     1       2.303  -3.857   1.125  0.00  0.00    +0.212 C 
ATOM     22  O   UNL     1       2.345  -3.681   2.324  0.00  0.00    -0.277 OA
ATOM     23  F   UNL     1       1.197  -4.291  -4.746  0.00  0.00    -0.205 F 
ATOM     24  H   UNL     1       4.233  -4.816   0.685  0.00  0.00    +0.155 HD
ATOM     25  H   UNL     1      -0.128  -5.190   0.025  0.00  0.00    -0.079 HD
ENDROOT
BRANCH   1  31
ATOM     26  C   UNL     1       1.175   2.110   0.002  0.00  0.00    +0.025 A 
ATOM     27  C   UNL     1       1.154   3.491   0.009  0.00  0.00    +0.024 A 
ATOM     28  C   UNL     1      -0.054   4.165   0.024  0.00  0.00    +0.071 A 
ATOM     29  C   UNL     1      -1.244   3.458   0.031  0.00  0.00    +0.146 A 
ATOM     30  C   UNL     1      -1.228   2.077   0.019  0.00  0.00    +0.058 A 
ATOM     31  C   UNL     1      -0.017   1.398   0.010  0.00  0.00    +0.046 A 
ATOM     32 CL   UNL     1      -0.078   5.901   0.033  0.00  0.00    -0.081 Cl
BRANCH  29  33
ATOM     33  N   UNL     1      -2.535   4.182   0.046  0.00  0.00    +0.058 N 
ATOM     34  O   UNL     1      -3.582   3.560   0.052  0.00  0.00    -0.126 OA
ATOM     35  O   UNL     1      -2.550   5.400   0.051  0.00  0.00    -0.126 OA
ENDBRANCH  29  33
ENDBRANCH   1  31
TORSDOF 2
