REMARK  Name = ZINC14161622
REMARK  9 active torsions:
REMARK  status: ('A' for Active; 'I' for Inactive)
REMARK    1  A    between atoms: C_1  and  C_2
REMARK    2  A    between atoms: C_4  and  C_33
REMARK    3  A    between atoms: N_10  and  C_11
REMARK    4  A    between atoms: N_13  and  C_14
REMARK    5  A    between atoms: N_20  and  C_21
REMARK    6  A    between atoms: C_21  and  C_22
REMARK    7  A    between atoms: C_22  and  C_23
REMARK    8  A    between atoms: C_26  and  S_29
REMARK    9  A    between atoms: S_29  and  N_32
REMARK                            x       y       z     vdW  Elec       q    Type
REMARK                         _______ _______ _______ _____ _____    ______ ____
ROOT
ATOM      1  C   UNL     1       0.494   1.075  -7.420  0.00  0.00    +0.066 C 
ATOM      2  C   UNL     1       1.309   0.637  -6.230  0.00  0.00    +0.044 A 
ATOM      3  C   UNL     1       2.452  -0.127  -6.405  0.00  0.00    +0.046 A 
ATOM      4  C   UNL     1       3.172  -0.508  -5.284  0.00  0.00    +0.044 A 
ATOM      5  N   UNL     1       2.750  -0.133  -4.088  0.00  0.00    -0.217 NA
ATOM      6  C   UNL     1       1.654   0.598  -3.955  0.00  0.00    +0.231 A 
ATOM      7  N   UNL     1       0.940   0.974  -5.005  0.00  0.00    -0.217 NA
ATOM      8  N   UNL     1       1.240   0.974  -2.684  0.00  0.00    -0.297 N 
ATOM      9  C   UNL     1       0.054   1.636  -2.519  0.00  0.00    +0.198 C 
ATOM     10  N   UNL     1      -0.647   2.011  -3.576  0.00  0.00    -0.129 NA
ATOM     11  N   UNL     1      -0.405   1.910  -1.264  0.00  0.00    -0.357 N 
ATOM     12  C   UNL     1       4.421  -1.340  -5.426  0.00  0.00    +0.066 C 
ATOM     13  H   UNL     1       1.791   0.767  -1.914  0.00  0.00    +0.171 HD
ATOM     14  H   UNL     1      -1.285   2.301  -1.145  0.00  0.00    +0.162 HD
ENDROOT
BRANCH  10  15
ATOM     15  C   UNL     1      -1.682   2.850  -3.431  0.00  0.00    +0.330 C 
ATOM     16  O   UNL     1      -1.911   3.353  -2.345  0.00  0.00    -0.250 OA
ATOM     17  N   UNL     1      -2.470   3.138  -4.486  0.00  0.00    -0.268 N 
ATOM     18  H   UNL     1      -2.330   2.686  -5.333  0.00  0.00    +0.156 HD
BRANCH  17  19
ATOM     19  C   UNL     1      -3.490   4.086  -4.360  0.00  0.00    +0.035 A 
ATOM     20  C   UNL     1      -4.197   4.194  -3.169  0.00  0.00    +0.023 A 
ATOM     21  C   UNL     1      -5.200   5.135  -3.046  0.00  0.00    +0.002 A 
ATOM     22  C   UNL     1      -5.508   5.963  -4.109  0.00  0.00    +0.000 A 
ATOM     23  C   UNL     1      -4.809   5.855  -5.298  0.00  0.00    +0.002 A 
ATOM     24  C   UNL     1      -3.802   4.920  -5.426  0.00  0.00    +0.023 A 
ENDBRANCH  17  19
ENDBRANCH  10  15
BRANCH  11  25
ATOM     25  C   UNL     1       0.430   1.613  -0.098  0.00  0.00    +0.120 C 
BRANCH  25  26
ATOM     26  C   UNL     1      -0.262   2.125   1.167  0.00  0.00    +0.056 C 
BRANCH  26  27
ATOM     27  C   UNL     1       0.650   1.929   2.352  0.00  0.00    -0.046 A 
ATOM     28  C   UNL     1       0.666   0.719   3.019  0.00  0.00    +0.005 A 
ATOM     29  C   UNL     1       1.505   0.538   4.103  0.00  0.00    +0.029 A 
ATOM     30  C   UNL     1       2.321   1.571   4.524  0.00  0.00    +0.105 A 
ATOM     31  C   UNL     1       2.301   2.783   3.860  0.00  0.00    +0.029 A 
ATOM     32  C   UNL     1       1.465   2.962   2.774  0.00  0.00    +0.005 A 
BRANCH  30  33
ATOM     33  S   UNL     1       3.388   1.342   5.908  0.00  0.00    +0.056 S 
ATOM     34  O   UNL     1       3.618  -0.056   6.017  0.00  0.00    -0.153 OA
ATOM     35  O   UNL     1       4.446   2.279   5.765  0.00  0.00    -0.153 OA
BRANCH  33  36
ATOM     36  N   UNL     1       2.540   1.789   7.259  0.00  0.00    -0.204 NA
ATOM     37  H   UNL     1       1.626   2.104   7.176  0.00  0.00    +0.144 HD
ATOM     38  H   UNL     1       2.957   1.735   8.133  0.00  0.00    +0.144 HD
ENDBRANCH  33  36
ENDBRANCH  30  33
ENDBRANCH  26  27
ENDBRANCH  25  26
ENDBRANCH  11  25
TORSDOF 7
