REMARK  Name = ZINC09832365
REMARK  3 active torsions:
REMARK  status: ('A' for Active; 'I' for Inactive)
REMARK    1  A    between atoms: C_12  and  C_14
REMARK    2  A    between atoms: C_17  and  S_20
REMARK    3  A    between atoms: S_20  and  N_23
REMARK                            x       y       z     vdW  Elec       q    Type
REMARK                         _______ _______ _______ _____ _____    ______ ____
ROOT
ATOM      1  C   UNL     1       6.057   0.116  -0.056  0.00  0.00    +0.037 A 
ATOM      2  C   UNL     1       6.337  -1.252  -0.060  0.00  0.00    +0.015 A 
ATOM      3  C   UNL     1       7.647  -1.684  -0.082  0.00  0.00    +0.029 A 
ATOM      4  C   UNL     1       8.682  -0.765  -0.086  0.00  0.00    +0.106 A 
ATOM      5  C   UNL     1       8.411   0.592  -0.076  0.00  0.00    +0.029 A 
ATOM      6  C   UNL     1       7.106   1.037  -0.061  0.00  0.00    +0.015 A 
ENDROOT
BRANCH   1  18
ATOM      7  C   UNL     1      -2.398   1.474   0.034  0.00  0.00    +0.002 A 
ATOM      8  C   UNL     1      -1.182   2.134   0.030  0.00  0.00    +0.017 A 
ATOM      9  C   UNL     1      -0.017   1.409   0.010  0.00  0.00    +0.042 A 
ATOM     10  C   UNL     1       0.002  -0.004   0.002  0.00  0.00    +0.094 A 
ATOM     11  C   UNL     1      -1.258  -0.646   0.011  0.00  0.00    +0.044 A 
ATOM     12  C   UNL     1      -2.417   0.087   0.026  0.00  0.00    +0.017 A 
ATOM     13 BR   UNL     1      -1.347  -2.535   0.002  0.00  0.00    -0.048 Br
ATOM     14  N   UNL     1       1.227  -0.573  -0.013  0.00  0.00    -0.223 NA
ATOM     15  C   UNL     1       2.333   0.135  -0.019  0.00  0.00    +0.166 A 
ATOM     16  S   UNL     1       1.714   1.811  -0.005  0.00  0.00    -0.052 S 
ATOM     17  N   UNL     1       3.646  -0.306  -0.035  0.00  0.00    -0.261 N 
ATOM     18  C   UNL     1       4.656   0.586  -0.040  0.00  0.00    +0.250 C 
ATOM     19  O   UNL     1       4.415   1.778  -0.030  0.00  0.00    -0.270 OA
ATOM     20  H   UNL     1       3.838  -1.256  -0.042  0.00  0.00    +0.157 HD
ENDBRANCH   1  18
BRANCH   4  21
ATOM     21  S   UNL     1      10.352  -1.326  -0.107  0.00  0.00    +0.061 S 
ATOM     22  O   UNL     1      10.335  -2.633  -0.665  0.00  0.00    -0.153 OA
ATOM     23  O   UNL     1      11.128  -0.272  -0.659  0.00  0.00    -0.153 OA
BRANCH  21  24
ATOM     24  N   UNL     1      10.832  -1.491   1.470  0.00  0.00    -0.172 NA
ATOM     25  C   UNL     1      11.459  -0.372   2.192  0.00  0.00    +0.137 C 
ATOM     26  C   UNL     1      10.723  -0.193   3.529  0.00  0.00    +0.177 C 
ATOM     27  O   UNL     1      10.683  -1.447   4.214  0.00  0.00    -0.377 OA
ATOM     28  C   UNL     1       9.959  -2.468   3.524  0.00  0.00    +0.177 C 
ATOM     29  C   UNL     1      10.650  -2.762   2.188  0.00  0.00    +0.137 C 
ENDBRANCH  21  24
ENDBRANCH   4  21
TORSDOF 3
