REMARK  Name = ZINC58974777
REMARK  9 active torsions:
REMARK  status: ('A' for Active; 'I' for Inactive)
REMARK    1  A    between atoms: C_1  and  C_2
REMARK    2  A    between atoms: C_2  and  N_3
REMARK    3  A    between atoms: C_9  and  C_11
REMARK    4  A    between atoms: C_11  and  C_12
REMARK    5  A    between atoms: C_12  and  C_13
REMARK    6  A    between atoms: C_13  and  S_14
REMARK    7  A    between atoms: S_14  and  C_15
REMARK    8  A    between atoms: C_17  and  C_25
REMARK    9  A    between atoms: C_19  and  C_21
REMARK                            x       y       z     vdW  Elec       q    Type
REMARK                         _______ _______ _______ _____ _____    ______ ____
ROOT
ATOM      1  C   UNL     1       5.654  -8.860  -4.308  0.00  0.00    +0.189 A 
ATOM      2  N   UNL     1       6.608  -9.736  -4.585  0.00  0.00    -0.222 NA
ATOM      3  C   UNL     1       6.315 -11.022  -4.763  0.00  0.00    +0.077 A 
ATOM      4  C   UNL     1       4.984 -11.435  -4.652  0.00  0.00    +0.060 A 
ATOM      5  C   UNL     1       4.021 -10.486  -4.360  0.00  0.00    +0.148 A 
ATOM      6  N   UNL     1       4.385  -9.225  -4.192  0.00  0.00    -0.218 NA
ENDROOT
BRANCH   3   7
ATOM      7  C   UNL     1       7.384 -12.001  -5.074  0.00  0.00    +0.019 A 
ATOM      8  C   UNL     1       7.067 -13.346  -5.264  0.00  0.00    +0.013 A 
ATOM      9  C   UNL     1       8.066 -14.253  -5.553  0.00  0.00    +0.021 A 
ATOM     10  C   UNL     1       9.381 -13.831  -5.655  0.00  0.00    +0.042 A 
ATOM     11  C   UNL     1       9.702 -12.498  -5.468  0.00  0.00    +0.040 A 
ATOM     12  C   UNL     1       8.709 -11.580  -5.183  0.00  0.00    +0.052 A 
ATOM     13 CL   UNL     1       9.111  -9.906  -4.956  0.00  0.00    -0.083 Cl
ATOM     14 CL   UNL     1      10.632 -14.978  -6.019  0.00  0.00    -0.083 Cl
ENDBRANCH   3   7
BRANCH   5  15
ATOM     15  C   UNL     1       2.574 -10.885  -4.231  0.00  0.00    +0.434 C 
ATOM     16  F   UNL     1       2.301 -11.226  -2.902  0.00  0.00    -0.164 F 
ATOM     17  F   UNL     1       1.759  -9.814  -4.614  0.00  0.00    -0.164 F 
ATOM     18  F   UNL     1       2.317 -11.985  -5.057  0.00  0.00    -0.164 F 
ENDBRANCH   5  15
BRANCH   1  19
ATOM     19  S   UNL     1       6.085  -7.166  -4.080  0.00  0.00    -0.086 S 
BRANCH  19  20
ATOM     20  C   UNL     1       4.502  -6.356  -3.719  0.00  0.00    +0.078 C 
BRANCH  20  21
ATOM     21  C   UNL     1       4.734  -4.860  -3.497  0.00  0.00    +0.020 C 
BRANCH  21  22
ATOM     22  C   UNL     1       3.399  -4.177  -3.193  0.00  0.00    +0.097 C 
BRANCH  22  29
ATOM     23  N   UNL     1       0.690  -0.478  -1.207  0.00  0.00    +0.382 N 
ATOM     24  C   UNL     1       2.097  -0.060  -1.163  0.00  0.00    -0.060 C 
ATOM     25  C   UNL     1       2.787  -0.454  -2.473  0.00  0.00    +0.089 C 
ATOM     26  N   UNL     1       2.587  -1.895  -2.691  0.00  0.00    -0.305 N 
ATOM     27  C   UNL     1       1.220  -2.429  -2.590  0.00  0.00    +0.089 C 
ATOM     28  C   UNL     1       0.604  -1.942  -1.274  0.00  0.00    -0.060 C 
ATOM     29  C   UNL     1       3.628  -2.703  -2.974  0.00  0.00    +0.215 C 
ATOM     30  O   UNL     1       4.748  -2.245  -3.054  0.00  0.00    -0.276 OA
ATOM     31  H   UNL     1       0.248  -0.079  -2.021  0.00  0.00    -0.082 HD
BRANCH  23  33
ATOM     32  C   UNL     1      -0.019   1.526   0.010  0.00  0.00    -0.017 C 
ATOM     33  C   UNL     1       0.002  -0.004   0.002  0.00  0.00    -0.082 C 
ENDBRANCH  23  33
ENDBRANCH  22  29
ENDBRANCH  21  22
ENDBRANCH  20  21
ENDBRANCH  19  20
ENDBRANCH   1  19
TORSDOF 8
