REMARK  Name = ZINC34927440
REMARK  3 active torsions:
REMARK  status: ('A' for Active; 'I' for Inactive)
REMARK    1  A    between atoms: C_1  and  C_2
REMARK    2  A    between atoms: C_2  and  N_3
REMARK    3  A    between atoms: N_12  and  C_17
REMARK                            x       y       z     vdW  Elec       q    Type
REMARK                         _______ _______ _______ _____ _____    ______ ____
ROOT
ATOM      1  N   UNL     1      -1.154  -0.863  -0.524  0.00  0.00    -0.300 N 
ATOM      2  C   UNL     1      -2.420  -0.406  -0.587  0.00  0.00    +0.302 C 
ATOM      3  O   UNL     1      -2.631   0.786  -0.711  0.00  0.00    -0.253 OA
ATOM      4  N   UNL     1      -3.453  -1.268  -0.513  0.00  0.00    -0.285 N 
ATOM      5  C   UNL     1      -4.833  -0.799  -0.700  0.00  0.00    +0.112 C 
ATOM      6  C   UNL     1      -5.666  -1.223   0.516  0.00  0.00    +0.056 C 
ATOM      7  C   UNL     1      -5.511  -2.719   0.739  0.00  0.00    +0.091 C 
ATOM      8  C   UNL     1      -4.060  -3.108   0.970  0.00  0.00    +0.056 C 
ATOM      9  C   UNL     1      -3.219  -2.694  -0.249  0.00  0.00    +0.112 C 
ATOM     10  N   UNL     1      -6.109  -3.492  -0.353  0.00  0.00    -0.255 N 
ATOM     11  C   UNL     1      -7.292  -4.069  -0.163  0.00  0.00    +0.231 C 
ATOM     12  O   UNL     1      -7.822  -4.720  -1.038  0.00  0.00    -0.274 OA
ATOM     13  C   UNL     1      -7.955  -3.881   1.193  0.00  0.00    +0.167 C 
ATOM     14  S   UNL     1      -6.531  -3.241   2.178  0.00  0.00    -0.125 S 
ATOM     15  H   UNL     1      -0.987  -1.803  -0.353  0.00  0.00    +0.150 HD
ENDROOT
BRANCH  10  16
ATOM     16  C   UNL     1      -5.445  -3.621  -1.579  0.00  0.00    +0.038 A 
ATOM     17  C   UNL     1      -4.531  -4.648  -1.771  0.00  0.00    +0.026 A 
ATOM     18  C   UNL     1      -3.877  -4.773  -2.981  0.00  0.00    +0.040 A 
ATOM     19  C   UNL     1      -4.132  -3.875  -4.003  0.00  0.00    +0.124 A 
ATOM     20  C   UNL     1      -5.044  -2.849  -3.814  0.00  0.00    +0.040 A 
ATOM     21  C   UNL     1      -5.704  -2.724  -2.608  0.00  0.00    +0.026 A 
ATOM     22  F   UNL     1      -3.491  -3.998  -5.185  0.00  0.00    -0.205 F 
ENDBRANCH  10  16
BRANCH   1  24
ATOM     23  C   UNL     1       1.286  -0.711  -0.594  0.00  0.00    +0.024 C 
ATOM     24  C   UNL     1      -0.032   0.059  -0.714  0.00  0.00    +0.102 C 
ENDBRANCH   1  24
TORSDOF 2
