REMARK  Name = ZINC13169252
REMARK  8 active torsions:
REMARK  status: ('A' for Active; 'I' for Inactive)
REMARK    1  A    between atoms: C_1  and  N_2
REMARK    2  A    between atoms: N_2  and  C_3
REMARK    3  A    between atoms: N_2  and  S_17
REMARK    4  A    between atoms: C_3  and  C_4
REMARK    5  A    between atoms: N_6  and  C_7
REMARK    6  A    between atoms: C_9  and  C_15
REMARK    7  A    between atoms: C_11  and  C_13
REMARK    8  A    between atoms: S_17  and  C_20
REMARK                            x       y       z     vdW  Elec       q    Type
REMARK                         _______ _______ _______ _____ _____    ______ ____
ROOT
ATOM      1  C   UNL     1       4.905   5.037   0.086  0.00  0.00    +0.233 C 
ATOM      2  O   UNL     1       4.860   3.825   0.079  0.00  0.00    -0.274 OA
ATOM      3  N   UNL     1       3.768   5.755  -0.001  0.00  0.00    -0.284 N 
ATOM      4  H   UNL     1       3.808   6.721  -0.072  0.00  0.00    +0.155 HD
ENDROOT
BRANCH   3   5
ATOM      5  C   UNL     1       2.528   5.105   0.011  0.00  0.00    +0.035 A 
ATOM      6  C   UNL     1       1.469   5.622  -0.721  0.00  0.00    +0.038 A 
ATOM      7  C   UNL     1       0.230   4.977  -0.711  0.00  0.00    +0.066 A 
ATOM      8  C   UNL     1       0.059   3.812   0.036  0.00  0.00    +0.030 A 
ATOM      9  C   UNL     1       1.125   3.296   0.770  0.00  0.00    +0.066 A 
ATOM     10  C   UNL     1       2.359   3.950   0.760  0.00  0.00    +0.038 A 
BRANCH   9  11
ATOM     11  C   UNL     1       0.948   2.063   1.564  0.00  0.00    +0.387 C 
ATOM     12  O   UNL     1       1.877   1.614   2.204  0.00  0.00    -0.241 OA
ATOM     13  O   UNL     1      -0.245   1.437   1.579  0.00  0.00    -0.241 OA
ENDBRANCH   9  11
BRANCH   7  14
ATOM     14  C   UNL     1      -0.897   5.528  -1.491  0.00  0.00    +0.387 C 
ATOM     15  O   UNL     1      -0.747   6.542  -2.142  0.00  0.00    -0.241 OA
ATOM     16  O   UNL     1      -2.091   4.905  -1.480  0.00  0.00    -0.241 OA
ENDBRANCH   7  14
ENDBRANCH   3   5
BRANCH   1  17
ATOM     17  C   UNL     1       6.234   5.740   0.192  0.00  0.00    +0.205 C 
BRANCH  17  19
ATOM     18  C   UNL     1       7.868   4.172  -0.953  0.00  0.00    +0.132 C 
ATOM     19  N   UNL     1       7.307   4.747   0.273  0.00  0.00    -0.171 NA
BRANCH  19  20
ATOM     20  S   UNL     1       7.887   4.274   1.750  0.00  0.00    +0.061 S 
ATOM     21  O   UNL     1       9.206   3.791   1.533  0.00  0.00    -0.153 OA
ATOM     22  O   UNL     1       7.602   5.331   2.656  0.00  0.00    -0.153 OA
BRANCH  20  23
ATOM     23  C   UNL     1       6.925   2.892   2.269  0.00  0.00    +0.106 A 
ATOM     24  C   UNL     1       5.779   3.090   3.018  0.00  0.00    +0.030 A 
ATOM     25  C   UNL     1       5.021   2.007   3.420  0.00  0.00    +0.022 A 
ATOM     26  C   UNL     1       5.415   0.724   3.084  0.00  0.00    +0.041 A 
ATOM     27  C   UNL     1       6.564   0.526   2.340  0.00  0.00    +0.022 A 
ATOM     28  C   UNL     1       7.319   1.610   1.933  0.00  0.00    +0.030 A 
ATOM     29 CL   UNL     1       4.466  -0.637   3.595  0.00  0.00    -0.084 Cl
ENDBRANCH  20  23
ENDBRANCH  19  20
ENDBRANCH  17  19
ENDBRANCH   1  17
TORSDOF 7
