REMARK  Name = ZINC04332947
REMARK  8 active torsions:
REMARK  status: ('A' for Active; 'I' for Inactive)
REMARK    1  A    between atoms: C_1  and  C_2
REMARK    2  A    between atoms: C_4  and  C_27
REMARK    3  A    between atoms: C_7  and  C_12
REMARK    4  A    between atoms: N_14  and  C_15
REMARK    5  A    between atoms: C_15  and  C_16
REMARK    6  A    between atoms: C_16  and  N_17
REMARK    7  A    between atoms: N_17  and  C_18
REMARK    8  A    between atoms: C_21  and  C_23
REMARK                            x       y       z     vdW  Elec       q    Type
REMARK                         _______ _______ _______ _____ _____    ______ ____
ROOT
ATOM      1  C   UNL     1      -3.029   4.646   9.208  0.00  0.00    +0.260 C 
ATOM      2  O   UNL     1      -4.231   4.817   9.141  0.00  0.00    -0.269 OA
ATOM      3  N   UNL     1      -2.349   4.212   8.129  0.00  0.00    -0.309 N 
ATOM      4  H   UNL     1      -1.390   4.075   8.182  0.00  0.00    +0.149 HD
ENDROOT
BRANCH   1  11
ATOM      5  C   UNL     1       1.792   5.558  14.800  0.00  0.00    +0.044 C 
ATOM      6  C   UNL     1       0.507   5.527  14.013  0.00  0.00    -0.048 A 
ATOM      7  C   UNL     1      -0.683   5.901  14.625  0.00  0.00    +0.007 A 
ATOM      8  C   UNL     1      -1.858   5.880  13.930  0.00  0.00    -0.041 A 
ATOM      9  C   UNL     1      -1.867   5.478  12.588  0.00  0.00    +0.003 A 
ATOM     10  C   UNL     1      -2.891   5.349  11.619  0.00  0.00    +0.041 A 
ATOM     11  C   UNL     1      -2.317   4.911  10.468  0.00  0.00    +0.103 A 
ATOM     12  N   UNL     1      -0.960   4.749  10.670  0.00  0.00    -0.351 N 
ATOM     13  H   UNL     1      -0.323   4.442  10.007  0.00  0.00    +0.166 HD
ATOM     14  C   UNL     1      -0.662   5.098  11.966  0.00  0.00    +0.048 A 
ATOM     15  C   UNL     1       0.524   5.128  12.696  0.00  0.00    +0.029 A 
ATOM     16  C   UNL     1      -3.142   6.288  14.606  0.00  0.00    +0.044 C 
ENDBRANCH   1  11
BRANCH   3  17
ATOM     17  C   UNL     1      -3.057   3.947   6.874  0.00  0.00    +0.123 C 
BRANCH  17  18
ATOM     18  C   UNL     1      -2.060   3.470   5.816  0.00  0.00    +0.121 C 
BRANCH  18  19
ATOM     19  N   UNL     1      -2.769   3.205   4.561  0.00  0.00    -0.329 N 
ATOM     20  H   UNL     1      -3.728   3.342   4.508  0.00  0.00    +0.147 HD
BRANCH  19  21
ATOM     21  C   UNL     1      -2.068   2.757   3.448  0.00  0.00    +0.096 A 
ATOM     22  C   UNL     1      -0.692   2.563   3.532  0.00  0.00    +0.042 A 
ATOM     23  C   UNL     1      -0.007   2.118   2.416  0.00  0.00    +0.017 A 
ATOM     24  C   UNL     1      -0.722   1.881   1.250  0.00  0.00    +0.071 A 
ATOM     25  C   UNL     1      -2.085   2.100   1.236  0.00  0.00    +0.096 A 
ATOM     26  N   UNL     1      -2.792   2.532   2.314  0.00  0.00    -0.349 N 
ATOM     27  H   UNL     1      -3.808   2.679   2.277  0.00  0.00    +0.167 HD
BRANCH  24  28
ATOM     28  C   UNL     1      -0.017   1.395   0.010  0.00  0.00    +0.419 C 
ATOM     29  F   UNL     1       0.002  -0.004   0.002  0.00  0.00    -0.166 F 
ATOM     30  F   UNL     1       1.296   1.879  -0.000  0.00  0.00    -0.166 F 
ATOM     31  F   UNL     1      -0.694   1.858  -1.124  0.00  0.00    -0.166 F 
ENDBRANCH  24  28
ENDBRANCH  19  21
ENDBRANCH  18  19
ENDBRANCH  17  18
ENDBRANCH   3  17
TORSDOF 6
