REMARK  Name = ZINC63138663
REMARK  5 active torsions:
REMARK  status: ('A' for Active; 'I' for Inactive)
REMARK    1  A    between atoms: C_1  and  C_2
REMARK    2  A    between atoms: C_5  and  C_8
REMARK    3  A    between atoms: C_8  and  N_9
REMARK    4  A    between atoms: C_29  and  C_31
REMARK    5  A    between atoms: C_35  and  C_37
REMARK                            x       y       z     vdW  Elec       q    Type
REMARK                         _______ _______ _______ _____ _____    ______ ____
ROOT
ATOM      1  N   UNL     1       1.447  -4.746  -0.032  0.00  0.00    -0.287 N 
ATOM      2  C   UNL     1       2.175  -4.982  -1.292  0.00  0.00    +0.204 C 
ATOM      3  C   UNL     1       3.551  -4.362  -1.175  0.00  0.00    +0.234 C 
ATOM      4  O   UNL     1       4.034  -3.713  -2.079  0.00  0.00    -0.274 OA
ATOM      5  N   UNL     1       4.228  -4.569   0.002  0.00  0.00    -0.279 N 
ATOM      6  C   UNL     1       3.563  -5.428   0.959  0.00  0.00    +0.167 C 
ATOM      7  C   UNL     1       2.132  -4.982   1.126  0.00  0.00    +0.237 C 
ATOM      8  O   UNL     1       1.622  -4.846   2.218  0.00  0.00    -0.274 OA
ATOM      9  C   UNL     1       4.240  -5.687   2.279  0.00  0.00    +0.065 C 
ATOM     10  C   UNL     1       5.430  -4.779   2.431  0.00  0.00    -0.034 C 
ATOM     11  C   UNL     1       5.902  -4.097   3.465  0.00  0.00    -0.001 A 
ATOM     12  C   UNL     1       5.461  -4.011   4.867  0.00  0.00    +0.010 A 
ATOM     13  C   UNL     1       6.184  -3.191   5.675  0.00  0.00    +0.001 A 
ATOM     14  C   UNL     1       7.290  -2.457   5.234  0.00  0.00    +0.002 A 
ATOM     15  C   UNL     1       7.768  -2.480   3.964  0.00  0.00    +0.026 A 
ATOM     16  C   UNL     1       7.092  -3.309   3.022  0.00  0.00    +0.043 A 
ATOM     17  N   UNL     1       7.338  -3.525   1.765  0.00  0.00    -0.375 N 
ATOM     18  C   UNL     1       6.359  -4.492   1.253  0.00  0.00    +0.131 C 
ATOM     19  C   UNL     1       5.494  -3.869   0.169  0.00  0.00    +0.133 C 
ATOM     20  H   UNL     1       8.050  -3.114   1.250  0.00  0.00    +0.160 HD
ENDROOT
BRANCH  19  21
ATOM     21  C   UNL     1       5.217  -2.444   0.574  0.00  0.00    -0.024 A 
ATOM     22  C   UNL     1       4.210  -2.166   1.480  0.00  0.00    +0.005 A 
ATOM     23  C   UNL     1       3.956  -0.860   1.851  0.00  0.00    +0.001 A 
ATOM     24  C   UNL     1       4.710   0.170   1.318  0.00  0.00    +0.003 A 
ATOM     25  C   UNL     1       5.718  -0.108   0.414  0.00  0.00    -0.050 A 
ATOM     26  C   UNL     1       5.974  -1.416   0.045  0.00  0.00    +0.009 A 
ATOM     27  C   UNL     1       6.539   1.013  -0.167  0.00  0.00    +0.044 C 
ENDBRANCH  19  21
BRANCH   1  28
ATOM     28  C   UNL     1       0.059  -4.275  -0.021  0.00  0.00    +0.143 C 
BRANCH  28  33
ATOM     29  C   UNL     1      -0.018   1.503   0.010  0.00  0.00    +0.044 C 
ATOM     30  C   UNL     1       0.002  -0.004   0.002  0.00  0.00    -0.050 A 
ATOM     31  C   UNL     1       0.006  -0.689  -1.199  0.00  0.00    +0.003 A 
ATOM     32  C   UNL     1       0.025  -2.071  -1.206  0.00  0.00    +0.005 A 
ATOM     33  C   UNL     1       0.040  -2.768  -0.013  0.00  0.00    -0.030 A 
ATOM     34  C   UNL     1       0.037  -2.084   1.188  0.00  0.00    +0.005 A 
ATOM     35  C   UNL     1       0.023  -0.702   1.195  0.00  0.00    +0.003 A 
ENDBRANCH  28  33
ENDBRANCH   1  28
TORSDOF 3
