REMARK  Name = ZINC32126660
REMARK  3 active torsions:
REMARK  status: ('A' for Active; 'I' for Inactive)
REMARK    1  A    between atoms: C_1  and  C_2
REMARK    2  A    between atoms: N_4  and  C_5
REMARK    3  A    between atoms: C_15  and  C_17
REMARK                            x       y       z     vdW  Elec       q    Type
REMARK                         _______ _______ _______ _____ _____    ______ ____
ROOT
ATOM      1  C   UNL     1       1.197  -0.731   0.079  0.00  0.00    +0.037 A 
ATOM      2  C   UNL     1       2.413  -0.058   0.171  0.00  0.00    +0.025 A 
ATOM      3  C   UNL     1       3.593  -0.762   0.248  0.00  0.00    +0.033 A 
ATOM      4  C   UNL     1       3.571  -2.158   0.234  0.00  0.00    +0.111 A 
ATOM      5  C   UNL     1       2.345  -2.835   0.142  0.00  0.00    +0.159 A 
ATOM      6  C   UNL     1       1.163  -2.116   0.070  0.00  0.00    +0.071 A 
ATOM      7  O   UNL     1       2.638  -4.155   0.150  0.00  0.00    -0.424 OA
ATOM      8  C   UNL     1       3.973  -4.289   0.243  0.00  0.00    +0.295 A 
ATOM      9  N   UNL     1       4.540  -3.113   0.294  0.00  0.00    -0.195 NA
ATOM     10  N   UNL     1       4.647  -5.495   0.280  0.00  0.00    -0.236 N 
ATOM     11  C   UNL     1       5.991  -5.513   0.376  0.00  0.00    +0.253 C 
ATOM     12  O   UNL     1       6.610  -4.468   0.429  0.00  0.00    -0.270 OA
ATOM     13  H   UNL     1       4.086  -6.440   0.232  0.00  0.00    +0.160 HD
ENDROOT
BRANCH  11  14
ATOM     14  C   UNL     1       6.712  -6.802   0.415  0.00  0.00    +0.050 A 
ATOM     15  C   UNL     1       6.003  -8.004   0.359  0.00  0.00    +0.014 A 
ATOM     16  C   UNL     1       6.682  -9.204   0.391  0.00  0.00    +0.001 A 
ATOM     17  C   UNL     1       8.062  -9.219   0.489  0.00  0.00    +0.001 A 
ATOM     18  C   UNL     1       8.771  -8.033   0.550  0.00  0.00    +0.015 A 
ATOM     19  C   UNL     1       8.104  -6.824   0.514  0.00  0.00    +0.025 A 
ATOM     20  I   UNL     1       9.180  -5.029   0.607  0.00  0.00    -0.043 I 
ENDBRANCH  11  14
BRANCH   1  24
ATOM     21  C   UNL     1      -2.357   0.235  -0.701  0.00  0.00    +0.109 C 
ATOM     22  C   UNL     1      -1.032  -0.482  -0.719  0.00  0.00    +0.214 C 
ATOM     23  O   UNL     1      -0.897  -1.491  -1.377  0.00  0.00    -0.276 OA
ATOM     24  N   UNL     1       0.002  -0.004   0.002  0.00  0.00    -0.286 N 
ATOM     25  H   UNL     1      -0.093   0.957   0.529  0.00  0.00    +0.155 HD
ENDBRANCH   1  24
TORSDOF 2
