REMARK  Name = ZINC56541415
REMARK  2 active torsions:
REMARK  status: ('A' for Active; 'I' for Inactive)
REMARK    1  A    between atoms: C_6  and  C_7
REMARK    2  A    between atoms: N_16  and  C_17
REMARK                            x       y       z     vdW  Elec       q    Type
REMARK                         _______ _______ _______ _____ _____    ______ ____
ROOT
ATOM      1  C   UNL     1      -2.087  -0.744   0.944  0.00  0.00    +0.166 C 
ATOM      2  C   UNL     1      -2.273  -0.742  -0.577  0.00  0.00    +0.145 C 
ATOM      3  N   UNL     1      -3.092  -1.907  -0.946  0.00  0.00    -0.280 N 
ATOM      4  C   UNL     1      -2.694  -3.225  -0.427  0.00  0.00    +0.137 C 
ATOM      5  C   UNL     1      -2.488  -3.106   1.087  0.00  0.00    +0.179 C 
ATOM      6  O   UNL     1      -1.597  -2.022   1.358  0.00  0.00    -0.369 OA
ATOM      7  C   UNL     1      -4.176  -1.771  -1.736  0.00  0.00    +0.307 C 
ATOM      8  O   UNL     1      -4.544  -0.664  -2.078  0.00  0.00    -0.252 OA
ATOM      9  N   UNL     1      -4.851  -2.863  -2.148  0.00  0.00    -0.269 N 
ATOM     10  H   UNL     1      -4.605  -3.740  -1.815  0.00  0.00    +0.156 HD
ENDROOT
BRANCH   9  11
ATOM     11  C   UNL     1      -5.908  -2.731  -3.057  0.00  0.00    +0.038 A 
ATOM     12  C   UNL     1      -5.867  -1.744  -4.033  0.00  0.00    +0.026 A 
ATOM     13  C   UNL     1      -6.909  -1.614  -4.929  0.00  0.00    +0.043 A 
ATOM     14  C   UNL     1      -7.997  -2.467  -4.856  0.00  0.00    +0.159 A 
ATOM     15  C   UNL     1      -8.042  -3.454  -3.883  0.00  0.00    +0.160 A 
ATOM     16  C   UNL     1      -6.996  -3.590  -2.987  0.00  0.00    +0.064 A 
ATOM     17  F   UNL     1      -9.104  -4.286  -3.812  0.00  0.00    -0.202 F 
ATOM     18  F   UNL     1      -9.016  -2.339  -5.734  0.00  0.00    -0.202 F 
ENDBRANCH   9  11
BRANCH   1  24
ATOM     19  C   UNL     1      -1.546   1.537   1.820  0.00  0.00    +0.007 A 
ATOM     20  C   UNL     1      -0.639   2.518   2.176  0.00  0.00    +0.020 A 
ATOM     21  C   UNL     1       0.718   2.284   2.044  0.00  0.00    +0.041 A 
ATOM     22  C   UNL     1       1.166   1.070   1.556  0.00  0.00    +0.020 A 
ATOM     23  C   UNL     1       0.258   0.091   1.200  0.00  0.00    +0.007 A 
ATOM     24  C   UNL     1      -1.098   0.324   1.332  0.00  0.00    -0.017 A 
ATOM     25 CL   UNL     1       1.858   3.515   2.491  0.00  0.00    -0.084 Cl
ENDBRANCH   1  24
TORSDOF 2
