REMARK  Name = ZINC62214226
REMARK  6 active torsions:
REMARK  status: ('A' for Active; 'I' for Inactive)
REMARK    1  A    between atoms: C_1  and  N_2
REMARK    2  A    between atoms: N_5  and  C_8
REMARK    3  A    between atoms: C_11  and  N_14
REMARK    4  A    between atoms: C_15  and  C_17
REMARK    5  A    between atoms: C_17  and  N_18
REMARK    6  A    between atoms: C_19  and  C_21
REMARK                            x       y       z     vdW  Elec       q    Type
REMARK                         _______ _______ _______ _____ _____    ______ ____
ROOT
ATOM      1  N   UNL     1       5.019  -6.555  -0.101  0.00  0.00    -0.284 N 
ATOM      2  C   UNL     1       5.499  -7.050   1.058  0.00  0.00    +0.234 C 
ATOM      3  O   UNL     1       5.024  -6.690   2.114  0.00  0.00    -0.274 OA
ATOM      4  H   UNL     1       5.343  -6.901  -0.947  0.00  0.00    +0.155 HD
ENDROOT
BRANCH   1   8
ATOM      5  C   UNL     1       2.137  -3.541  -0.046  0.00  0.00    +0.030 A 
ATOM      6  C   UNL     1       3.124  -3.575   0.930  0.00  0.00    +0.025 A 
ATOM      7  C   UNL     1       4.078  -4.574   0.912  0.00  0.00    +0.025 A 
ATOM      8  C   UNL     1       4.050  -5.542  -0.082  0.00  0.00    +0.034 A 
ATOM      9  C   UNL     1       3.063  -5.508  -1.058  0.00  0.00    +0.025 A 
ATOM     10  C   UNL     1       2.106  -4.513  -1.036  0.00  0.00    +0.025 A 
BRANCH   5  15
ATOM     11  C   UNL     1      -0.162   1.326  -0.960  0.00  0.00    -0.096 C 
ATOM     12  N   UNL     1      -0.050  -0.054  -0.470  0.00  0.00    +0.380 N 
ATOM     13  C   UNL     1       0.180  -0.957  -1.605  0.00  0.00    -0.060 C 
ATOM     14  C   UNL     1       0.183  -2.407  -1.111  0.00  0.00    +0.086 C 
ATOM     15  N   UNL     1       1.171  -2.529  -0.028  0.00  0.00    -0.333 N 
ATOM     16  C   UNL     1       1.114  -1.557   1.075  0.00  0.00    +0.086 C 
ATOM     17  C   UNL     1       1.067  -0.147   0.478  0.00  0.00    -0.060 C 
ATOM     18  H   UNL     1      -0.907  -0.315  -0.005  0.00  0.00    -0.082 HD
ENDBRANCH   5  15
ENDBRANCH   1   8
BRANCH   2  19
ATOM     19  C   UNL     1       6.625  -8.050   1.040  0.00  0.00    +0.200 C 
BRANCH  19  20
ATOM     20  N   UNL     1       6.963  -8.430   2.414  0.00  0.00    -0.301 N 
ATOM     21  C   UNL     1       7.948  -9.320   2.645  0.00  0.00    +0.265 C 
ATOM     22  O   UNL     1       8.558  -9.807   1.713  0.00  0.00    -0.268 OA
ATOM     23  H   UNL     1       6.476  -8.042   3.158  0.00  0.00    +0.150 HD
BRANCH  21  24
ATOM     24  C   UNL     1       8.288  -9.703   4.030  0.00  0.00    +0.150 A 
ATOM     25  C   UNL     1       9.287 -10.607   4.430  0.00  0.00    +0.005 A 
ATOM     26  C   UNL     1       9.234 -10.645   5.785  0.00  0.00    +0.040 A 
ATOM     27  N   UNL     1       8.258  -9.806   6.168  0.00  0.00    -0.281 N 
ATOM     28  H   UNL     1       8.002  -9.635   7.088  0.00  0.00    +0.189 HD
ATOM     29  N   UNL     1       7.715  -9.258   5.136  0.00  0.00    -0.169 NA
ATOM     30  C   UNL     1      10.137 -11.499   6.637  0.00  0.00    +0.055 C 
ATOM     31  C   UNL     1      10.778 -12.567   5.741  0.00  0.00    +0.006 C 
ATOM     32  C   UNL     1      11.379 -11.903   4.499  0.00  0.00    +0.005 C 
ATOM     33  C   UNL     1      10.250 -11.399   3.590  0.00  0.00    +0.039 C 
ENDBRANCH  21  24
ENDBRANCH  19  20
ENDBRANCH   2  19
TORSDOF 5
