REMARK  Name = ZINC36637383
REMARK  12 active torsions:
REMARK  status: ('A' for Active; 'I' for Inactive)
REMARK    1  A    between atoms: C_1  and  C_2
REMARK    2  A    between atoms: C_2  and  C_3
REMARK    3  A    between atoms: N_12  and  C_13
REMARK    4  A    between atoms: C_13  and  C_14
REMARK    5  A    between atoms: C_14  and  N_15
REMARK    6  A    between atoms: N_15  and  C_16
REMARK    7  A    between atoms: N_15  and  C_17
REMARK    8  A    between atoms: C_18  and  C_20
REMARK    9  A    between atoms: C_23  and  S_26
REMARK   10  A    between atoms: S_26  and  N_29
REMARK   11  A    between atoms: C_31  and  C_38
REMARK   12  A    between atoms: C_34  and  C_37
REMARK                            x       y       z     vdW  Elec       q    Type
REMARK                         _______ _______ _______ _____ _____    ______ ____
ROOT
ATOM      1  C   UNL     1       0.396  -0.933  -1.603  0.00  0.00    -0.046 A 
ATOM      2  C   UNL     1      -0.213  -1.614  -2.648  0.00  0.00    +0.006 A 
ATOM      3  C   UNL     1       0.519  -2.158  -3.670  0.00  0.00    +0.029 A 
ATOM      4  C   UNL     1       1.928  -2.043  -3.692  0.00  0.00    +0.080 A 
ATOM      5  C   UNL     1       2.513  -1.344  -2.611  0.00  0.00    +0.041 A 
ATOM      6  C   UNL     1       1.772  -0.797  -1.594  0.00  0.00    +0.021 A 
ATOM      7  S   UNL     1       4.244  -1.421  -3.004  0.00  0.00    -0.052 S 
ATOM      8  C   UNL     1       4.088  -2.345  -4.526  0.00  0.00    +0.168 A 
ATOM      9  N   UNL     1       2.790  -2.518  -4.617  0.00  0.00    -0.224 NA
ATOM     10  N   UNL     1       5.083  -2.771  -5.389  0.00  0.00    -0.248 N 
ATOM     11  C   UNL     1       6.374  -2.492  -5.119  0.00  0.00    +0.252 C 
ATOM     12  O   UNL     1       6.670  -1.921  -4.088  0.00  0.00    -0.270 OA
ENDROOT
BRANCH  11  13
ATOM     13  C   UNL     1       7.430  -2.881  -6.078  0.00  0.00    +0.037 A 
ATOM     14  C   UNL     1       7.120  -3.063  -7.427  0.00  0.00    +0.015 A 
ATOM     15  C   UNL     1       8.110  -3.426  -8.316  0.00  0.00    +0.029 A 
ATOM     16  C   UNL     1       9.408  -3.609  -7.874  0.00  0.00    +0.106 A 
ATOM     17  C   UNL     1       9.722  -3.430  -6.538  0.00  0.00    +0.029 A 
ATOM     18  C   UNL     1       8.743  -3.062  -5.639  0.00  0.00    +0.015 A 
BRANCH  16  19
ATOM     19  S   UNL     1      10.667  -4.073  -9.016  0.00  0.00    +0.061 S 
ATOM     20  O   UNL     1      11.685  -4.714  -8.260  0.00  0.00    -0.153 OA
ATOM     21  O   UNL     1      10.012  -4.709 -10.105  0.00  0.00    -0.153 OA
BRANCH  19  22
ATOM     22  N   UNL     1      11.327  -2.676  -9.611  0.00  0.00    -0.176 NA
ATOM     23  C   UNL     1      10.772  -2.039 -10.814  0.00  0.00    +0.112 C 
ATOM     24  C   UNL     1      10.452  -0.575 -10.493  0.00  0.00    +0.002 C 
ATOM     25  C   UNL     1      11.705   0.108  -9.941  0.00  0.00    +0.009 C 
ATOM     26  C   UNL     1      12.139  -0.586  -8.648  0.00  0.00    +0.002 C 
ATOM     27  C   UNL     1      12.474  -2.046  -8.944  0.00  0.00    +0.112 C 
ATOM     28  C   UNL     1      13.372   0.118  -8.079  0.00  0.00    +0.009 C 
ATOM     29  C   UNL     1       9.334  -0.514  -9.449  0.00  0.00    +0.009 C 
ENDBRANCH  19  22
ENDBRANCH  16  19
ENDBRANCH  11  13
BRANCH   1  31
ATOM     30  C   UNL     1      -0.834   1.087  -0.857  0.00  0.00    +0.009 C 
ATOM     31  C   UNL     1      -0.435  -0.344  -0.492  0.00  0.00    +0.032 C 
ENDBRANCH   1  31
BRANCH  10  32
ATOM     32  C   UNL     1       4.733  -3.524  -6.596  0.00  0.00    +0.097 C 
BRANCH  32  33
ATOM     33  C   UNL     1       4.100  -2.580  -7.620  0.00  0.00    -0.060 C 
BRANCH  33  34
ATOM     34  N   UNL     1       3.629  -3.356  -8.775  0.00  0.00    +0.377 N 
ATOM     35  C   UNL     1       2.895  -2.474  -9.691  0.00  0.00    -0.097 C 
ATOM     36  C   UNL     1       4.781  -3.940  -9.476  0.00  0.00    -0.097 C 
ATOM     37  H   UNL     1       3.019  -4.095  -8.458  0.00  0.00    -0.083 HD
ENDBRANCH  33  34
ENDBRANCH  32  33
ENDBRANCH  10  32
TORSDOF 7
