REMARK  Name = ZINC45794899
REMARK  10 active torsions:
REMARK  status: ('A' for Active; 'I' for Inactive)
REMARK    1  A    between atoms: C_1  and  C_2
REMARK    2  A    between atoms: C_5  and  C_9
REMARK    3  A    between atoms: C_11  and  C_14
REMARK    4  A    between atoms: C_14  and  C_16
REMARK    5  A    between atoms: C_14  and  N_17
REMARK    6  A    between atoms: N_17  and  C_18
REMARK    7  A    between atoms: N_17  and  C_19
REMARK    8  A    between atoms: C_19  and  C_20
REMARK    9  A    between atoms: N_22  and  C_23
REMARK   10  A    between atoms: C_28  and  C_29
REMARK                            x       y       z     vdW  Elec       q    Type
REMARK                         _______ _______ _______ _____ _____    ______ ____
ROOT
ATOM      1  N   UNL     1       1.101  -8.468   1.182  0.00  0.00    +0.391 N 
ATOM      2  C   UNL     1       1.122  -9.629   2.083  0.00  0.00    -0.094 C 
ATOM      3  H   UNL     1       0.855  -8.769   0.251  0.00  0.00    -0.080 HD
ENDROOT
BRANCH   1   4
ATOM      4  C   UNL     1       0.111  -7.494   1.661  0.00  0.00    +0.019 C 
ATOM      5  C   UNL     1      -1.274  -8.145   1.685  0.00  0.00    -0.003 C 
BRANCH   4   8
ATOM      6  C   UNL     1       0.059  -4.255   0.025  0.00  0.00    +0.202 A 
ATOM      7  N   UNL     1       0.074  -5.055   1.106  0.00  0.00    -0.193 NA
ATOM      8  C   UNL     1       0.090  -6.304   0.737  0.00  0.00    +0.214 A 
ATOM      9  O   UNL     1       0.084  -6.351  -0.601  0.00  0.00    -0.339 OA
ATOM     10  N   UNL     1       0.058  -5.005  -1.050  0.00  0.00    -0.056 NA
BRANCH   6  15
ATOM     11  C   UNL     1      -0.021   1.505   0.099  0.00  0.00    +0.047 C 
ATOM     12  C   UNL     1      -0.000  -0.002   0.080  0.00  0.00    -0.015 A 
ATOM     13  C   UNL     1      -0.002  -0.676  -1.128  0.00  0.00    +0.007 A 
ATOM     14  C   UNL     1       0.017  -2.056  -1.151  0.00  0.00    +0.012 A 
ATOM     15  C   UNL     1       0.038  -2.771   0.045  0.00  0.00    +0.025 A 
ATOM     16  C   UNL     1       0.040  -2.089   1.259  0.00  0.00    +0.050 A 
ATOM     17  C   UNL     1       0.026  -0.707   1.272  0.00  0.00    +0.127 A 
ATOM     18  F   UNL     1       0.033  -0.043   2.449  0.00  0.00    -0.205 F 
ENDBRANCH   6  15
ENDBRANCH   4   8
ENDBRANCH   1   4
BRANCH   1  19
ATOM     19  C   UNL     1       2.430  -7.843   1.159  0.00  0.00    +0.020 C 
BRANCH  19  20
ATOM     20  C   UNL     1       3.425  -8.800   0.553  0.00  0.00    +0.201 C 
ATOM     21  O   UNL     1       3.062  -9.895   0.178  0.00  0.00    -0.278 OA
ATOM     22  N   UNL     1       4.717  -8.439   0.429  0.00  0.00    -0.287 N 
ATOM     23  H   UNL     1       4.993  -7.536   0.654  0.00  0.00    +0.155 HD
BRANCH  22  24
ATOM     24  C   UNL     1       5.662  -9.366  -0.026  0.00  0.00    +0.036 A 
ATOM     25  C   UNL     1       5.435 -10.727   0.137  0.00  0.00    +0.024 A 
ATOM     26  C   UNL     1       6.369 -11.639  -0.313  0.00  0.00    +0.017 A 
ATOM     27  C   UNL     1       7.530 -11.199  -0.924  0.00  0.00    +0.018 A 
ATOM     28  C   UNL     1       7.758  -9.845  -1.087  0.00  0.00    +0.020 A 
ATOM     29  C   UNL     1       6.825  -8.928  -0.644  0.00  0.00    -0.028 A 
ATOM     30  C   UNL     1       7.072  -7.452  -0.828  0.00  0.00    +0.046 C 
ATOM     31 BR   UNL     1       8.807 -12.452  -1.538  0.00  0.00    -0.050 Br
ENDBRANCH  22  24
ENDBRANCH  19  20
ENDBRANCH   1  19
TORSDOF 6
