REMARK  Name = ZINC13340992
REMARK  6 active torsions:
REMARK  status: ('A' for Active; 'I' for Inactive)
REMARK    1  A    between atoms: C_4  and  C_21
REMARK    2  A    between atoms: C_6  and  S_7
REMARK    3  A    between atoms: S_7  and  N_10
REMARK    4  A    between atoms: N_10  and  C_11
REMARK    5  A    between atoms: C_13  and  C_19
REMARK    6  A    between atoms: C_15  and  C_17
REMARK                            x       y       z     vdW  Elec       q    Type
REMARK                         _______ _______ _______ _____ _____    ______ ____
ROOT
ATOM      1  S   UNL     1       3.981   2.424   0.008  0.00  0.00    +0.072 S 
ATOM      2  O   UNL     1       3.937   3.777   0.441  0.00  0.00    -0.150 OA
ATOM      3  O   UNL     1       4.832   1.459   0.611  0.00  0.00    -0.150 OA
ENDROOT
BRANCH   1   9
ATOM      4  C   UNL     1       1.272   2.675   0.218  0.00  0.00    +0.030 A 
ATOM      5  C   UNL     1      -0.017   2.186   0.321  0.00  0.00    +0.022 A 
ATOM      6  C   UNL     1      -0.239   0.821   0.344  0.00  0.00    +0.053 A 
ATOM      7  C   UNL     1       0.830  -0.054   0.264  0.00  0.00    +0.075 A 
ATOM      8  C   UNL     1       2.118   0.436   0.161  0.00  0.00    +0.042 A 
ATOM      9  C   UNL     1       2.339   1.800   0.139  0.00  0.00    +0.109 A 
ATOM     10 CL   UNL     1      -1.857   0.206   0.472  0.00  0.00    -0.083 Cl
BRANCH   7  11
ATOM     11  C   UNL     1       0.589  -1.542   0.289  0.00  0.00    +0.419 C 
ATOM     12  F   UNL     1       1.812  -2.214   0.196  0.00  0.00    -0.166 F 
ATOM     13  F   UNL     1      -0.045  -1.891   1.486  0.00  0.00    -0.166 F 
ATOM     14  F   UNL     1      -0.224  -1.901  -0.791  0.00  0.00    -0.166 F 
ENDBRANCH   7  11
ENDBRANCH   1   9
BRANCH   1  15
ATOM     15  N   UNL     1       4.367   2.455  -1.602  0.00  0.00    -0.216 N 
ATOM     16  H   UNL     1       5.089   1.902  -1.938  0.00  0.00    +0.174 HD
BRANCH  15  17
ATOM     17  C   UNL     1       3.651   3.277  -2.477  0.00  0.00    +0.050 A 
ATOM     18  C   UNL     1       2.737   2.720  -3.359  0.00  0.00    +0.039 A 
ATOM     19  C   UNL     1       2.016   3.539  -4.230  0.00  0.00    +0.066 A 
ATOM     20  C   UNL     1       2.224   4.917  -4.220  0.00  0.00    +0.030 A 
ATOM     21  C   UNL     1       3.147   5.473  -3.336  0.00  0.00    +0.066 A 
ATOM     22  C   UNL     1       3.861   4.649  -2.464  0.00  0.00    +0.039 A 
BRANCH  21  23
ATOM     23  C   UNL     1       3.371   6.934  -3.322  0.00  0.00    +0.387 C 
ATOM     24  O   UNL     1       4.175   7.418  -2.551  0.00  0.00    -0.241 OA
ATOM     25  O   UNL     1       2.682   7.729  -4.164  0.00  0.00    -0.241 OA
ENDBRANCH  21  23
BRANCH  19  26
ATOM     26  C   UNL     1       1.039   2.945  -5.166  0.00  0.00    +0.387 C 
ATOM     27  O   UNL     1       0.858   1.744  -5.174  0.00  0.00    -0.241 OA
ATOM     28  O   UNL     1       0.348   3.736  -6.010  0.00  0.00    -0.241 OA
ENDBRANCH  19  26
ENDBRANCH  15  17
ENDBRANCH   1  15
TORSDOF 6
