REMARK  Name = ZINC06898926
REMARK  5 active torsions:
REMARK  status: ('A' for Active; 'I' for Inactive)
REMARK    1  A    between atoms: C_4  and  C_7
REMARK    2  A    between atoms: C_7  and  C_9
REMARK    3  A    between atoms: C_7  and  S_24
REMARK    4  A    between atoms: N_11  and  C_12
REMARK    5  A    between atoms: S_24  and  C_25
REMARK                            x       y       z     vdW  Elec       q    Type
REMARK                         _______ _______ _______ _____ _____    ______ ____
ROOT
ATOM      1  C   UNL     1       3.782  -1.561  -1.276  0.00  0.00    +0.267 C 
ATOM      2  O   UNL     1       3.429  -2.857  -1.216  0.00  0.00    -0.269 OA
ATOM      3  N   UNL     1       4.198  -1.050  -2.402  0.00  0.00    -0.176 NA
ENDROOT
BRANCH   3   4
ATOM      4  C   UNL     1       4.274  -1.829  -3.515  0.00  0.00    +0.227 C 
ATOM      5  N   UNL     1       3.931  -3.088  -3.456  0.00  0.00    -0.266 NA
ATOM      6  N   UNL     1       4.715  -1.287  -4.708  0.00  0.00    -0.279 N 
ATOM      7  C   UNL     1       5.179   0.012  -4.747  0.00  0.00    +0.304 A 
ATOM      8  N   UNL     1       5.339   0.782  -3.702  0.00  0.00    -0.193 NA
ATOM      9  C   UNL     1       5.812   1.988  -4.117  0.00  0.00    +0.111 A 
ATOM     10  C   UNL     1       6.158   3.168  -3.455  0.00  0.00    +0.031 A 
ATOM     11  C   UNL     1       6.619   4.246  -4.177  0.00  0.00    +0.002 A 
ATOM     12  C   UNL     1       6.740   4.167  -5.556  0.00  0.00    +0.004 A 
ATOM     13  C   UNL     1       6.402   3.007  -6.223  0.00  0.00    +0.048 A 
ATOM     14  C   UNL     1       5.937   1.913  -5.512  0.00  0.00    +0.157 A 
ATOM     15  O   UNL     1       5.539   0.668  -5.864  0.00  0.00    -0.423 OA
ATOM     16  H   UNL     1       3.915  -3.624  -4.264  0.00  0.00    +0.190 HD
ATOM     17  H   UNL     1       4.698  -1.821  -5.518  0.00  0.00    +0.173 HD
ENDBRANCH   3   4
BRANCH   1  18
ATOM     18  C   UNL     1       3.698  -0.699  -0.043  0.00  0.00    +0.172 C 
BRANCH  18  22
ATOM     19  C   UNL     1      -0.036   1.375  -0.011  0.00  0.00    +0.000 A 
ATOM     20  C   UNL     1       1.149   2.086  -0.017  0.00  0.00    +0.000 A 
ATOM     21  C   UNL     1       2.358   1.415  -0.028  0.00  0.00    +0.005 A 
ATOM     22  C   UNL     1       2.381   0.033  -0.031  0.00  0.00    -0.025 A 
ATOM     23  C   UNL     1       1.195  -0.678  -0.023  0.00  0.00    +0.005 A 
ATOM     24  C   UNL     1      -0.013  -0.007  -0.014  0.00  0.00    +0.000 A 
ENDBRANCH  18  22
BRANCH  18  25
ATOM     25  S   UNL     1       3.823  -1.743   1.435  0.00  0.00    -0.107 S 
BRANCH  25  26
ATOM     26  C   UNL     1       3.858  -0.592   2.769  0.00  0.00    +0.009 A 
ATOM     27  C   UNL     1       3.787   0.772   2.513  0.00  0.00    +0.015 A 
ATOM     28  C   UNL     1       3.815   1.671   3.561  0.00  0.00    +0.001 A 
ATOM     29  C   UNL     1       3.913   1.216   4.863  0.00  0.00    +0.000 A 
ATOM     30  C   UNL     1       3.985  -0.141   5.121  0.00  0.00    +0.001 A 
ATOM     31  C   UNL     1       3.952  -1.047   4.079  0.00  0.00    +0.015 A 
ENDBRANCH  25  26
ENDBRANCH  18  25
ENDBRANCH   1  18
TORSDOF 5
