REMARK  Name = ZINC01765102
REMARK  7 active torsions:
REMARK  status: ('A' for Active; 'I' for Inactive)
REMARK    1  A    between atoms: N_9  and  C_27
REMARK    2  A    between atoms: C_10  and  S_12
REMARK    3  A    between atoms: S_12  and  C_13
REMARK    4  A    between atoms: C_13  and  C_14
REMARK    5  A    between atoms: N_16  and  N_17
REMARK    6  A    between atoms: C_18  and  C_19
REMARK    7  A    between atoms: C_24  and  O_25
REMARK                            x       y       z     vdW  Elec       q    Type
REMARK                         _______ _______ _______ _____ _____    ______ ____
ROOT
ATOM      1  C   UNL     1       0.382   1.393   1.241  0.00  0.00    +0.001 A 
ATOM      2  C   UNL     1       1.336   2.102   0.522  0.00  0.00    +0.002 A 
ATOM      3  C   UNL     1       2.336   1.455  -0.147  0.00  0.00    +0.028 A 
ATOM      4  C   UNL     1       2.403   0.059  -0.109  0.00  0.00    +0.079 A 
ATOM      5  C   UNL     1       1.430  -0.659   0.623  0.00  0.00    +0.065 A 
ATOM      6  C   UNL     1       0.420   0.028   1.297  0.00  0.00    +0.015 A 
ATOM      7  C   UNL     1       1.522  -2.125   0.648  0.00  0.00    +0.267 A 
ATOM      8  O   UNL     1       0.713  -2.797   1.261  0.00  0.00    -0.267 OA
ATOM      9  N   UNL     1       2.538  -2.699  -0.036  0.00  0.00    -0.255 N 
ATOM     10  C   UNL     1       3.437  -1.927  -0.720  0.00  0.00    +0.177 A 
ATOM     11  N   UNL     1       3.374  -0.619  -0.754  0.00  0.00    -0.223 NA
ENDROOT
BRANCH   9  12
ATOM     12  C   UNL     1       2.670  -4.094  -0.045  0.00  0.00    +0.052 A 
ATOM     13  C   UNL     1       2.045  -4.846  -1.031  0.00  0.00    +0.028 A 
ATOM     14  C   UNL     1       2.177  -6.221  -1.037  0.00  0.00    +0.022 A 
ATOM     15  C   UNL     1       2.931  -6.849  -0.062  0.00  0.00    +0.041 A 
ATOM     16  C   UNL     1       3.555  -6.102   0.922  0.00  0.00    +0.022 A 
ATOM     17  C   UNL     1       3.431  -4.727   0.929  0.00  0.00    +0.028 A 
ATOM     18 CL   UNL     1       3.095  -8.577  -0.073  0.00  0.00    -0.084 Cl
ENDBRANCH   9  12
BRANCH  10  19
ATOM     19  S   UNL     1       4.740  -2.729  -1.592  0.00  0.00    -0.078 S 
BRANCH  19  20
ATOM     20  C   UNL     1       5.675  -1.364  -2.337  0.00  0.00    +0.174 C 
BRANCH  20  21
ATOM     21  C   UNL     1       6.835  -1.919  -3.123  0.00  0.00    +0.242 C 
ATOM     22  O   UNL     1       7.013  -3.118  -3.176  0.00  0.00    -0.273 OA
ATOM     23  N   UNL     1       7.673  -1.084  -3.767  0.00  0.00    -0.206 N 
ATOM     24  H   UNL     1       7.530  -0.125  -3.725  0.00  0.00    +0.177 HD
BRANCH  23  25
ATOM     25  N   UNL     1       8.752  -1.599  -4.498  0.00  0.00    -0.188 NA
ATOM     26  C   UNL     1       9.559  -0.795  -5.119  0.00  0.00    +0.142 C 
BRANCH  26  27
ATOM     27  C   UNL     1      10.693  -1.338  -5.888  0.00  0.00    +0.037 A 
ATOM     28  C   UNL     1      11.568  -0.475  -6.552  0.00  0.00    +0.028 A 
ATOM     29  C   UNL     1      12.628  -0.990  -7.269  0.00  0.00    +0.019 A 
ATOM     30  C   UNL     1      12.828  -2.359  -7.334  0.00  0.00    +0.019 A 
ATOM     31  C   UNL     1      11.969  -3.222  -6.681  0.00  0.00    +0.047 A 
ATOM     32  C   UNL     1      10.903  -2.722  -5.951  0.00  0.00    +0.126 A 
ATOM     33 BR   UNL     1      13.812   0.178  -8.169  0.00  0.00    -0.050 Br
BRANCH  32  34
ATOM     34  O   UNL     1      10.062  -3.570  -5.305  0.00  0.00    -0.506 OA
ATOM     35  H   UNL     1       9.309  -3.859  -5.838  0.00  0.00    +0.292 HD
ENDBRANCH  32  34
ENDBRANCH  26  27
ENDBRANCH  23  25
ENDBRANCH  20  21
ENDBRANCH  19  20
ENDBRANCH  10  19
TORSDOF 7
