REMARK  Name = ZINC32525787
REMARK  9 active torsions:
REMARK  status: ('A' for Active; 'I' for Inactive)
REMARK    1  A    between atoms: C_1  and  C_2
REMARK    2  A    between atoms: C_2  and  O_3
REMARK    3  A    between atoms: O_3  and  C_4
REMARK    4  A    between atoms: C_7  and  S_10
REMARK    5  A    between atoms: S_10  and  C_13
REMARK    6  A    between atoms: C_13  and  C_15
REMARK    7  A    between atoms: C_13  and  C_26
REMARK    8  A    between atoms: C_15  and  N_16
REMARK    9  A    between atoms: C_17  and  C_19
REMARK                            x       y       z     vdW  Elec       q    Type
REMARK                         _______ _______ _______ _____ _____    ______ ____
ROOT
ATOM      1  C   UNL     1      -0.013   1.086   0.008  0.00  0.00    +0.184 C 
ENDROOT
BRANCH   1   2
ATOM      2  C   UNL     1       1.401   1.607  -0.003  0.00  0.00    -0.003 A 
ATOM      3  C   UNL     1       2.474   0.729  -0.012  0.00  0.00    +0.008 A 
ATOM      4  C   UNL     1       3.757   1.253  -0.026  0.00  0.00    +0.020 A 
ATOM      5  C   UNL     1       3.923   2.626  -0.021  0.00  0.00    +0.111 A 
ATOM      6  N   UNL     1       2.880   3.432  -0.007  0.00  0.00    -0.263 NA
ATOM      7  C   UNL     1       1.645   2.967   0.002  0.00  0.00    +0.116 A 
ENDBRANCH   1   2
BRANCH   1   8
ATOM      8  S   UNL     1      -0.862   1.671   1.500  0.00  0.00    +0.005 S 
ATOM      9  O   UNL     1      -0.834   3.091   1.555  0.00  0.00    -0.169 OA
ATOM     10  O   UNL     1      -2.081   0.963   1.679  0.00  0.00    -0.169 OA
BRANCH   8  14
ATOM     11  C   UNL     1       1.768   0.331   4.935  0.00  0.00    +0.121 A 
ATOM     12  C   UNL     1       1.971   1.572   4.348  0.00  0.00    +0.047 A 
ATOM     13  C   UNL     1       1.167   1.978   3.300  0.00  0.00    +0.030 A 
ATOM     14  C   UNL     1       0.161   1.150   2.837  0.00  0.00    +0.089 A 
ATOM     15  C   UNL     1      -0.047  -0.084   3.425  0.00  0.00    +0.030 A 
ATOM     16  C   UNL     1       0.758  -0.498   4.469  0.00  0.00    +0.047 A 
BRANCH  11  17
ATOM     17  O   UNL     1       2.557  -0.070   5.966  0.00  0.00    -0.492 OA
BRANCH  17  19
ATOM     18  C   UNL     1       3.272  -1.635   7.663  0.00  0.00    +0.048 C 
ATOM     19  C   UNL     1       2.291  -1.359   6.523  0.00  0.00    +0.225 C 
ENDBRANCH  17  19
ENDBRANCH  11  17
ENDBRANCH   8  14
ENDBRANCH   1   8
BRANCH   1  20
ATOM     20  C   UNL     1      -0.753   1.593  -1.232  0.00  0.00    +0.136 C 
BRANCH  20  21
ATOM     21  N   UNL     1      -2.127   1.086  -1.221  0.00  0.00    -0.309 N 
ATOM     22  C   UNL     1      -2.971   1.405  -2.222  0.00  0.00    +0.244 C 
ATOM     23  O   UNL     1      -2.592   2.114  -3.134  0.00  0.00    -0.270 OA
ATOM     24  H   UNL     1      -2.470   0.444  -0.396  0.00  0.00    +0.149 HD
BRANCH  22  25
ATOM     25  C   UNL     1      -4.357   0.894  -2.212  0.00  0.00    +0.037 A 
ATOM     26  C   UNL     1      -4.794   0.074  -1.169  0.00  0.00    +0.014 A 
ATOM     27  C   UNL     1      -6.091  -0.395  -1.161  0.00  0.00    +0.021 A 
ATOM     28  C   UNL     1      -6.956  -0.065  -2.192  0.00  0.00    +0.041 A 
ATOM     29  C   UNL     1      -6.526   0.743  -3.232  0.00  0.00    +0.021 A 
ATOM     30  C   UNL     1      -5.234   1.223  -3.247  0.00  0.00    +0.014 A 
ATOM     31 CL   UNL     1      -8.585  -0.664  -2.179  0.00  0.00    -0.084 Cl
ENDBRANCH  22  25
ENDBRANCH  20  21
ENDBRANCH   1  20
TORSDOF 8
