REMARK  Name = ZINC13169443
REMARK  9 active torsions:
REMARK  status: ('A' for Active; 'I' for Inactive)
REMARK    1  A    between atoms: C_1  and  C_2
REMARK    2  A    between atoms: C_5  and  S_8
REMARK    3  A    between atoms: S_8  and  N_11
REMARK    4  A    between atoms: N_11  and  C_12
REMARK    5  A    between atoms: N_11  and  C_13
REMARK    6  A    between atoms: C_16  and  C_19
REMARK    7  A    between atoms: N_21  and  C_22
REMARK    8  A    between atoms: C_24  and  C_30
REMARK    9  A    between atoms: C_26  and  C_28
REMARK                            x       y       z     vdW  Elec       q    Type
REMARK                         _______ _______ _______ _____ _____    ______ ____
ROOT
ATOM      1  C   UNL     1       9.097   6.827   0.518  0.00  0.00    +0.051 A 
ATOM      2  C   UNL     1       9.315   5.454   0.440  0.00  0.00    +0.025 A 
ATOM      3  C   UNL     1       8.246   4.588   0.399  0.00  0.00    +0.015 A 
ATOM      4  C   UNL     1       6.941   5.087   0.436  0.00  0.00    +0.037 A 
ATOM      5  C   UNL     1       6.726   6.466   0.509  0.00  0.00    +0.015 A 
ATOM      6  C   UNL     1       7.798   7.327   0.555  0.00  0.00    +0.025 A 
ENDROOT
BRANCH   4   7
ATOM      7  C   UNL     1       5.794   4.161   0.393  0.00  0.00    +0.248 C 
ATOM      8  O   UNL     1       5.983   2.962   0.325  0.00  0.00    -0.270 OA
ATOM      9  N   UNL     1       4.536   4.644   0.429  0.00  0.00    -0.281 N 
ATOM     10  H   UNL     1       4.384   5.602   0.420  0.00  0.00    +0.155 HD
BRANCH   9  11
ATOM     11  C   UNL     1       3.450   3.764   0.478  0.00  0.00    +0.035 A 
ATOM     12  C   UNL     1       2.268   4.087  -0.171  0.00  0.00    +0.038 A 
ATOM     13  C   UNL     1       1.181   3.210  -0.124  0.00  0.00    +0.066 A 
ATOM     14  C   UNL     1       1.286   2.010   0.576  0.00  0.00    +0.030 A 
ATOM     15  C   UNL     1       2.476   1.688   1.227  0.00  0.00    +0.066 A 
ATOM     16  C   UNL     1       3.556   2.572   1.181  0.00  0.00    +0.038 A 
BRANCH  15  17
ATOM     17  C   UNL     1       2.592   0.417   1.971  0.00  0.00    +0.387 C 
ATOM     18  O   UNL     1       3.629   0.138   2.538  0.00  0.00    -0.241 OA
ATOM     19  O   UNL     1       1.548  -0.433   2.020  0.00  0.00    -0.241 OA
ENDBRANCH  15  17
BRANCH  13  20
ATOM     20  C   UNL     1      -0.078   3.555  -0.816  0.00  0.00    +0.387 C 
ATOM     21  O   UNL     1      -0.169   4.601  -1.426  0.00  0.00    -0.241 OA
ATOM     22  O   UNL     1      -1.125   2.709  -0.770  0.00  0.00    -0.241 OA
ENDBRANCH  13  20
ENDBRANCH   9  11
ENDBRANCH   4   7
BRANCH   1  23
ATOM     23  N   UNL     1      10.178   7.700   0.558  0.00  0.00    -0.206 N 
ATOM     24  C   UNL     1      11.463   7.250   1.100  0.00  0.00    +0.157 C 
BRANCH  23  25
ATOM     25  S   UNL     1      10.014   9.248  -0.006  0.00  0.00    +0.074 S 
ATOM     26  O   UNL     1      11.313   9.682  -0.386  0.00  0.00    -0.150 OA
ATOM     27  O   UNL     1       8.919   9.236  -0.912  0.00  0.00    -0.150 OA
BRANCH  25  32
ATOM     28  C   UNL     1       8.348  12.684   4.666  0.00  0.00    +0.044 C 
ATOM     29  C   UNL     1       8.764  11.826   3.499  0.00  0.00    -0.050 A 
ATOM     30  C   UNL     1      10.101  11.535   3.296  0.00  0.00    +0.005 A 
ATOM     31  C   UNL     1      10.482  10.748   2.226  0.00  0.00    +0.029 A 
ATOM     32  C   UNL     1       9.527  10.251   1.358  0.00  0.00    +0.109 A 
ATOM     33  C   UNL     1       8.192  10.546   1.558  0.00  0.00    +0.029 A 
ATOM     34  C   UNL     1       7.810  11.329   2.631  0.00  0.00    +0.005 A 
ENDBRANCH  25  32
ENDBRANCH  23  25
ENDBRANCH   1  23
TORSDOF 7
