REMARK  Name = ZINC40245049
REMARK  3 active torsions:
REMARK  status: ('A' for Active; 'I' for Inactive)
REMARK    1  A    between atoms: C_6  and  C_7
REMARK    2  A    between atoms: C_7  and  C_9
REMARK    3  A    between atoms: C_7  and  O_15
REMARK                            x       y       z     vdW  Elec       q    Type
REMARK                         _______ _______ _______ _____ _____    ______ ____
ROOT
ATOM      1  C   UNL     1      -0.017   1.378   0.010  0.00  0.00    +0.010 A 
ATOM      2  C   UNL     1       1.170   2.091   0.002  0.00  0.00    +0.050 A 
ATOM      3  C   UNL     1       2.377   1.413  -0.013  0.00  0.00    +0.162 A 
ATOM      4  C   UNL     1       2.396   0.025  -0.020  0.00  0.00    +0.162 A 
ATOM      5  C   UNL     1       1.207  -0.684  -0.013  0.00  0.00    +0.056 A 
ATOM      6  C   UNL     1       0.002  -0.004   0.002  0.00  0.00    -0.011 A 
ATOM      7  O   UNL     1       3.591  -0.632  -0.034  0.00  0.00    -0.488 OA
ATOM      8  C   UNL     1       4.358  -0.510  -1.234  0.00  0.00    +0.232 C 
ATOM      9  C   UNL     1       5.186   0.764  -1.217  0.00  0.00    +0.082 C 
ATOM     10  C   UNL     1       4.323   2.016  -1.220  0.00  0.00    +0.232 C 
ATOM     11  O   UNL     1       3.554   2.104  -0.019  0.00  0.00    -0.488 OA
ENDROOT
BRANCH   6  12
ATOM     12  C   UNL     1      -1.294  -0.773   0.010  0.00  0.00    +0.181 C 
BRANCH  12  13
ATOM     13  C   UNL     1      -1.803  -0.915  -1.401  0.00  0.00    +0.024 A 
ATOM     14  C   UNL     1      -1.715  -1.978  -2.237  0.00  0.00    +0.015 A 
ATOM     15  C   UNL     1      -2.260  -1.882  -3.504  0.00  0.00    +0.023 A 
ATOM     16  C   UNL     1      -2.867  -0.727  -3.872  0.00  0.00    +0.055 A 
ATOM     17  S   UNL     1      -2.685   0.271  -2.403  0.00  0.00    -0.083 S 
ATOM     18 BR   UNL     1      -3.698  -0.289  -5.513  0.00  0.00    -0.043 Br
ENDBRANCH  12  13
BRANCH  12  19
ATOM     19  O   UNL     1      -2.259  -0.071   0.796  0.00  0.00    -0.382 OA
ATOM     20  H   UNL     1      -2.457   0.819   0.473  0.00  0.00    +0.211 HD
ENDBRANCH  12  19
ENDBRANCH   6  12
TORSDOF 3
