REMARK  Name = ZINC12736728
REMARK  9 active torsions:
REMARK  status: ('A' for Active; 'I' for Inactive)
REMARK    1  A    between atoms: C_1  and  C_2
REMARK    2  A    between atoms: C_2  and  C_3
REMARK    3  A    between atoms: C_2  and  C_4
REMARK    4  A    between atoms: C_4  and  C_6
REMARK    5  A    between atoms: C_4  and  N_18
REMARK    6  A    between atoms: N_8  and  C_9
REMARK    7  A    between atoms: C_11  and  C_14
REMARK    8  A    between atoms: N_18  and  C_19
REMARK    9  A    between atoms: C_22  and  C_26
REMARK                            x       y       z     vdW  Elec       q    Type
REMARK                         _______ _______ _______ _____ _____    ______ ____
ROOT
ATOM      1  C   UNL     1      -1.415  -0.544   0.033  0.00  0.00    +0.164 C 
ENDROOT
BRANCH   1   3
ATOM      2  C   UNL     1      -0.094   1.554  -0.275  0.00  0.00    +0.009 C 
ATOM      3  C   UNL     1      -0.005   0.049  -0.015  0.00  0.00    +0.012 C 
ATOM      4  C   UNL     1       0.697  -0.197   1.322  0.00  0.00    +0.009 C 
ENDBRANCH   1   3
BRANCH   1   5
ATOM      5  C   UNL     1      -2.089  -0.344  -1.300  0.00  0.00    +0.270 C 
ATOM      6  O   UNL     1      -2.892   0.720  -1.495  0.00  0.00    -0.269 OA
ATOM      7  N   UNL     1      -1.897  -1.200  -2.262  0.00  0.00    -0.174 NA
BRANCH   7   8
ATOM      8  C   UNL     1      -2.507  -1.019  -3.468  0.00  0.00    +0.249 A 
ATOM      9  N   UNL     1      -3.313  -0.024  -3.791  0.00  0.00    -0.186 NA
ATOM     10  C   UNL     1      -3.723  -0.170  -5.049  0.00  0.00    +0.256 A 
ATOM     11  N   UNL     1      -3.192  -1.252  -5.553  0.00  0.00    -0.147 NA
ATOM     12  N   UNL     1      -2.391  -1.823  -4.551  0.00  0.00    -0.243 N 
ATOM     13  H   UNL     1      -1.862  -2.633  -4.620  0.00  0.00    +0.192 HD
BRANCH  10  14
ATOM     14  C   UNL     1      -4.654   0.766  -5.777  0.00  0.00    +0.454 C 
ATOM     15  F   UNL     1      -3.922   1.539  -6.685  0.00  0.00    -0.163 F 
ATOM     16  F   UNL     1      -5.616   0.022  -6.468  0.00  0.00    -0.163 F 
ATOM     17  F   UNL     1      -5.287   1.606  -4.854  0.00  0.00    -0.163 F 
ENDBRANCH  10  14
ENDBRANCH   7   8
ENDBRANCH   1   5
BRANCH   1  18
ATOM     18  N   UNL     1      -2.191   0.125   1.079  0.00  0.00    -0.331 N 
ATOM     19  H   UNL     1      -1.978   1.036   1.334  0.00  0.00    +0.147 HD
BRANCH  18  20
ATOM     20  C   UNL     1      -3.240  -0.549   1.710  0.00  0.00    +0.046 A 
ATOM     21  C   UNL     1      -3.631  -1.804   1.262  0.00  0.00    +0.025 A 
ATOM     22  C   UNL     1      -4.667  -2.468   1.888  0.00  0.00    +0.014 A 
ATOM     23  C   UNL     1      -5.317  -1.884   2.961  0.00  0.00    +0.056 A 
ATOM     24  C   UNL     1      -4.932  -0.635   3.410  0.00  0.00    +0.034 A 
ATOM     25  C   UNL     1      -3.892   0.033   2.792  0.00  0.00    +0.062 A 
ATOM     26 CL   UNL     1      -3.404   1.599   3.360  0.00  0.00    -0.082 Cl
BRANCH  23  27
ATOM     27  C   UNL     1      -6.449  -2.612   3.640  0.00  0.00    +0.417 C 
ATOM     28  F   UNL     1      -5.939  -3.400   4.678  0.00  0.00    -0.166 F 
ATOM     29  F   UNL     1      -7.354  -1.682   4.162  0.00  0.00    -0.166 F 
ATOM     30  F   UNL     1      -7.102  -3.429   2.712  0.00  0.00    -0.166 F 
ENDBRANCH  23  27
ENDBRANCH  18  20
ENDBRANCH   1  18
TORSDOF 7
