REMARK  Name = ZINC03411078
REMARK  5 active torsions:
REMARK  status: ('A' for Active; 'I' for Inactive)
REMARK    1  A    between atoms: C_3  and  S_20
REMARK    2  A    between atoms: C_6  and  N_7
REMARK    3  A    between atoms: N_7  and  S_8
REMARK    4  A    between atoms: S_8  and  C_11
REMARK    5  A    between atoms: S_20  and  N_23
REMARK                            x       y       z     vdW  Elec       q    Type
REMARK                         _______ _______ _______ _____ _____    ______ ____
ROOT
ATOM      1  N   UNL     1       3.066   1.629  -1.626  0.00  0.00    -0.216 N 
ATOM      2  H   UNL     1       2.968   0.781  -2.087  0.00  0.00    +0.174 HD
ENDROOT
BRANCH   1   8
ATOM      3  C   UNL     1       2.669   3.957  -2.125  0.00  0.00    +0.026 A 
ATOM      4  C   UNL     1       2.984   5.098  -2.837  0.00  0.00    +0.030 A 
ATOM      5  C   UNL     1       3.997   5.070  -3.777  0.00  0.00    +0.105 A 
ATOM      6  C   UNL     1       4.702   3.903  -4.005  0.00  0.00    +0.030 A 
ATOM      7  C   UNL     1       4.396   2.760  -3.293  0.00  0.00    +0.026 A 
ATOM      8  C   UNL     1       3.379   2.783  -2.347  0.00  0.00    +0.048 A 
BRANCH   5   9
ATOM      9  S   UNL     1       4.391   6.527  -4.688  0.00  0.00    +0.056 S 
ATOM     10  O   UNL     1       3.953   7.627  -3.903  0.00  0.00    -0.153 OA
ATOM     11  O   UNL     1       5.739   6.386  -5.116  0.00  0.00    -0.153 OA
BRANCH   9  12
ATOM     12  N   UNL     1       3.457   6.517  -6.055  0.00  0.00    -0.204 NA
ATOM     13  H   UNL     1       2.840   5.787  -6.215  0.00  0.00    +0.144 HD
ATOM     14  H   UNL     1       3.527   7.243  -6.695  0.00  0.00    +0.144 HD
ENDBRANCH   9  12
ENDBRANCH   5   9
ENDBRANCH   1   8
BRANCH   1  15
ATOM     15  S   UNL     1       2.864   1.708   0.016  0.00  0.00    +0.076 S 
ATOM     16  O   UNL     1       2.566   0.389   0.452  0.00  0.00    -0.150 OA
ATOM     17  O   UNL     1       1.999   2.807   0.266  0.00  0.00    -0.150 OA
BRANCH  15  18
ATOM     18  C   UNL     1       4.427   2.128   0.714  0.00  0.00    +0.158 A 
ATOM     19  C   UNL     1       5.347   1.133   0.999  0.00  0.00    +0.154 A 
ATOM     20  C   UNL     1       6.574   1.463   1.548  0.00  0.00    +0.078 A 
ATOM     21  C   UNL     1       6.881   2.787   1.810  0.00  0.00    +0.127 A 
ATOM     22  C   UNL     1       5.962   3.781   1.519  0.00  0.00    +0.055 A 
ATOM     23  C   UNL     1       4.734   3.450   0.976  0.00  0.00    +0.050 A 
ATOM     24 BR   UNL     1       3.477   4.808   0.586  0.00  0.00    -0.048 Br
ATOM     25  F   UNL     1       8.079   3.110   2.345  0.00  0.00    -0.205 F 
ATOM     26  F   UNL     1       5.047  -0.159   0.742  0.00  0.00    -0.203 F 
ENDBRANCH  15  18
ENDBRANCH   1  15
TORSDOF 5
