REMARK  Name = ZINC19659334
REMARK  6 active torsions:
REMARK  status: ('A' for Active; 'I' for Inactive)
REMARK    1  A    between atoms: C_6  and  C_7
REMARK    2  A    between atoms: C_7  and  C_9
REMARK    3  A    between atoms: C_7  and  N_24
REMARK    4  A    between atoms: C_9  and  N_10
REMARK    5  A    between atoms: C_11  and  C_13
REMARK    6  A    between atoms: C_16  and  N_19
REMARK                            x       y       z     vdW  Elec       q    Type
REMARK                         _______ _______ _______ _____ _____    ______ ____
ROOT
ATOM      1  C   UNL     1       3.459   7.551   0.073  0.00  0.00    -0.020 C 
ENDROOT
BRANCH   1   2
ATOM      2  N   UNL     1       2.695   7.887   1.282  0.00  0.00    +0.385 N 
ATOM      3  C   UNL     1       1.521   6.998   1.433  0.00  0.00    -0.078 C 
ATOM      4  C   UNL     1       0.564   7.469   2.493  0.00  0.00    -0.019 C 
ATOM      5  C   UNL     1      -0.525   8.331   1.821  0.00  0.00    -0.002 C 
ATOM      6  C   UNL     1      -0.058   9.681   1.529  0.00  0.00    -0.002 C 
ATOM      7  C   UNL     1       1.140   9.686   0.556  0.00  0.00    -0.019 C 
ATOM      8  C   UNL     1       2.383   9.333   1.327  0.00  0.00    -0.078 C 
ATOM      9  H   UNL     1       3.323   7.695   2.164  0.00  0.00    -0.081 HD
ENDBRANCH   1   2
BRANCH   1  15
ATOM     10  C   UNL     1       5.482   8.390   1.283  0.00  0.00    +0.003 A 
ATOM     11  C   UNL     1       6.698   9.048   1.305  0.00  0.00    +0.020 A 
ATOM     12  C   UNL     1       7.207   9.598   0.143  0.00  0.00    +0.041 A 
ATOM     13  C   UNL     1       6.503   9.485  -1.042  0.00  0.00    +0.020 A 
ATOM     14  C   UNL     1       5.290   8.822  -1.064  0.00  0.00    +0.003 A 
ATOM     15  C   UNL     1       4.781   8.273   0.098  0.00  0.00    -0.059 A 
ATOM     16 CL   UNL     1       8.730  10.431   0.171  0.00  0.00    -0.084 Cl
ENDBRANCH   1  15
BRANCH   1  17
ATOM     17  C   UNL     1       3.702   6.041   0.027  0.00  0.00    +0.094 C 
BRANCH  17  18
ATOM     18  N   UNL     1       4.381   5.693  -1.224  0.00  0.00    -0.313 N 
ATOM     19  C   UNL     1       4.799   4.429  -1.435  0.00  0.00    +0.244 C 
ATOM     20  O   UNL     1       4.612   3.578  -0.588  0.00  0.00    -0.270 OA
ATOM     21  H   UNL     1       4.550   6.464  -1.990  0.00  0.00    +0.149 HD
BRANCH  19  22
ATOM     22  C   UNL     1       5.483   4.079  -2.696  0.00  0.00    +0.037 A 
ATOM     23  C   UNL     1       5.916   2.770  -2.917  0.00  0.00    +0.015 A 
ATOM     24  C   UNL     1       6.555   2.447  -4.094  0.00  0.00    +0.027 A 
ATOM     25  C   UNL     1       6.773   3.424  -5.059  0.00  0.00    +0.049 A 
ATOM     26  C   UNL     1       6.338   4.727  -4.845  0.00  0.00    +0.027 A 
ATOM     27  C   UNL     1       5.699   5.057  -3.670  0.00  0.00    +0.015 A 
BRANCH  25  28
ATOM     28  N   UNL     1       7.427   3.094  -6.251  0.00  0.00    -0.288 N 
ATOM     29  C   UNL     1       7.913   1.871  -6.612  0.00  0.00    +0.229 A 
ATOM     30  N   UNL     1       8.443   2.002  -7.797  0.00  0.00    -0.138 NA
ATOM     31  N   UNL     1       8.330   3.218  -8.197  0.00  0.00    -0.138 NA
ATOM     32  C   UNL     1       7.717   3.928  -7.290  0.00  0.00    +0.229 A 
ENDBRANCH  25  28
ENDBRANCH  19  22
ENDBRANCH  17  18
ENDBRANCH   1  17
TORSDOF 6
