REMARK  Name = ZINC06276610
REMARK  3 active torsions:
REMARK  status: ('A' for Active; 'I' for Inactive)
REMARK    1  A    between atoms: C_3  and  C_7
REMARK    2  A    between atoms: C_9  and  O_21
REMARK    3  A    between atoms: N_12  and  C_13
REMARK                            x       y       z     vdW  Elec       q    Type
REMARK                         _______ _______ _______ _____ _____    ______ ____
ROOT
ATOM      1  C   UNL     1      -3.035   8.879  -2.816  0.00  0.00    +0.030 C 
ATOM      2  C   UNL     1      -2.208   7.885  -2.396  0.00  0.00    +0.078 C 
ATOM      3  C   UNL     1      -2.334   6.424  -2.549  0.00  0.00    +0.229 C 
ATOM      4  N   UNL     1      -1.388   5.696  -2.053  0.00  0.00    -0.186 NA
ATOM      5  C   UNL     1      -0.332   6.231  -1.412  0.00  0.00    +0.197 C 
ATOM      6  N   UNL     1       0.696   5.613  -0.857  0.00  0.00    -0.222 NA
ATOM      7  S   UNL     1      -0.661   7.986  -1.503  0.00  0.00    -0.045 S 
ENDROOT
BRANCH   6   8
ATOM      8  C   UNL     1       0.771   4.250  -0.889  0.00  0.00    +0.067 A 
ATOM      9  C   UNL     1       1.975   3.621  -1.221  0.00  0.00    +0.030 A 
ATOM     10  C   UNL     1       2.044   2.244  -1.251  0.00  0.00    +0.040 A 
ATOM     11  C   UNL     1       0.924   1.484  -0.953  0.00  0.00    +0.124 A 
ATOM     12  C   UNL     1      -0.274   2.102  -0.628  0.00  0.00    +0.040 A 
ATOM     13  C   UNL     1      -0.355   3.478  -0.590  0.00  0.00    +0.030 A 
ATOM     14  F   UNL     1       0.999   0.136  -0.984  0.00  0.00    -0.205 F 
ENDBRANCH   6   8
BRANCH   1  17
ATOM     15  C   UNL     1      -1.629  11.879  -1.068  0.00  0.00    +0.020 A 
ATOM     16  C   UNL     1      -1.817  10.557  -1.428  0.00  0.00    +0.011 A 
ATOM     17  C   UNL     1      -2.792  10.265  -2.395  0.00  0.00    -0.006 A 
ATOM     18  C   UNL     1      -3.525  11.319  -2.955  0.00  0.00    +0.118 A 
ATOM     19  N   UNL     1      -3.309  12.559  -2.572  0.00  0.00    -0.263 NA
ATOM     20  C   UNL     1      -2.399  12.862  -1.665  0.00  0.00    +0.111 A 
ENDBRANCH   1  17
BRANCH   3  21
ATOM     21  O   UNL     1      -3.391   5.869  -3.186  0.00  0.00    -0.492 OA
ATOM     22  H   UNL     1      -3.365   4.904  -3.224  0.00  0.00    +0.294 HD
ENDBRANCH   3  21
TORSDOF 3
