REMARK  Name = ZINC64045088
REMARK  5 active torsions:
REMARK  status: ('A' for Active; 'I' for Inactive)
REMARK    1  A    between atoms: C_1  and  C_2
REMARK    2  A    between atoms: C_4  and  C_8
REMARK    3  A    between atoms: N_5  and  C_7
REMARK    4  A    between atoms: C_23  and  C_25
REMARK    5  A    between atoms: C_29  and  C_31
REMARK                            x       y       z     vdW  Elec       q    Type
REMARK                         _______ _______ _______ _____ _____    ______ ____
ROOT
ATOM      1  C   UNL     1      -0.184  -3.158  -1.405  0.00  0.00    +0.265 C 
ATOM      2  O   UNL     1      -0.361  -2.822  -2.561  0.00  0.00    -0.268 OA
ATOM      3  N   UNL     1      -0.211  -4.463  -1.070  0.00  0.00    -0.287 N 
ATOM      4  C   UNL     1      -0.091  -4.853   0.339  0.00  0.00    +0.113 C 
ATOM      5  C   UNL     1       1.116  -5.794   0.508  0.00  0.00    +0.052 C 
ATOM      6  C   UNL     1       1.037  -6.805  -0.609  0.00  0.00    -0.035 C 
ATOM      7  C   UNL     1       1.072  -8.132  -0.596  0.00  0.00    -0.001 A 
ATOM      8  C   UNL     1       1.309  -9.095   0.491  0.00  0.00    +0.010 A 
ATOM      9  C   UNL     1       1.253 -10.410   0.150  0.00  0.00    +0.001 A 
ATOM     10  C   UNL     1       0.989 -10.857  -1.149  0.00  0.00    +0.002 A 
ATOM     11  C   UNL     1       0.767 -10.041  -2.210  0.00  0.00    +0.026 A 
ATOM     12  C   UNL     1       0.808  -8.636  -1.978  0.00  0.00    +0.043 A 
ATOM     13  N   UNL     1       0.658  -7.642  -2.803  0.00  0.00    -0.375 N 
ATOM     14  C   UNL     1       0.867  -6.395  -2.067  0.00  0.00    +0.131 C 
ATOM     15  C   UNL     1      -0.367  -5.481  -2.121  0.00  0.00    +0.133 C 
ATOM     16  H   UNL     1       0.444  -7.715  -3.747  0.00  0.00    +0.160 HD
ENDROOT
BRANCH   1  20
ATOM     17  C   UNL     1      -0.372  -0.359   2.821  0.00  0.00    +0.067 C 
ATOM     18  C   UNL     1      -0.011  -0.908   1.465  0.00  0.00    +0.061 A 
ATOM     19  C   UNL     1      -0.588  -2.019   0.846  0.00  0.00    +0.057 A 
ATOM     20  C   UNL     1       0.058  -2.138  -0.372  0.00  0.00    +0.123 A 
ATOM     21  N   UNL     1       0.967  -1.119  -0.423  0.00  0.00    -0.262 N 
ATOM     22  N   UNL     1       0.896  -0.424   0.655  0.00  0.00    -0.176 NA
ATOM     23  C   UNL     1       1.878  -0.856  -1.539  0.00  0.00    +0.173 C 
ENDBRANCH   1  20
BRANCH  15  24
ATOM     24  C   UNL     1      -1.615  -6.287  -1.870  0.00  0.00    -0.024 A 
ATOM     25  C   UNL     1      -1.776  -6.956  -0.671  0.00  0.00    +0.005 A 
ATOM     26  C   UNL     1      -2.921  -7.696  -0.440  0.00  0.00    +0.001 A 
ATOM     27  C   UNL     1      -3.906  -7.766  -1.409  0.00  0.00    +0.012 A 
ATOM     28  C   UNL     1      -3.745  -7.096  -2.607  0.00  0.00    +0.055 A 
ATOM     29  C   UNL     1      -2.602  -6.352  -2.836  0.00  0.00    +0.018 A 
BRANCH  28  30
ATOM     30  C   UNL     1      -4.818  -7.172  -3.662  0.00  0.00    +0.417 C 
ATOM     31  F   UNL     1      -5.869  -7.973  -3.202  0.00  0.00    -0.166 F 
ATOM     32  F   UNL     1      -5.296  -5.886  -3.935  0.00  0.00    -0.166 F 
ATOM     33  F   UNL     1      -4.285  -7.728  -4.830  0.00  0.00    -0.166 F 
ENDBRANCH  28  30
ENDBRANCH  15  24
TORSDOF 3
