REMARK  Name = ZINC01666410
REMARK  2 active torsions:
REMARK  status: ('A' for Active; 'I' for Inactive)
REMARK    1  A    between atoms: C_6  and  C_7
REMARK    2  A    between atoms: C_13  and  C_15
REMARK                            x       y       z     vdW  Elec       q    Type
REMARK                         _______ _______ _______ _____ _____    ______ ____
ROOT
ATOM      1  C   UNL     1      -2.326   1.338   0.032  0.00  0.00    +0.112 A 
ATOM      2  N   UNL     1      -1.190   2.010   0.029  0.00  0.00    -0.230 NA
ATOM      3  C   UNL     1      -0.017   1.406   0.010  0.00  0.00    +0.136 A 
ATOM      4  C   UNL     1       0.002  -0.004   0.002  0.00  0.00    +0.136 A 
ATOM      5  S   UNL     1      -1.754  -0.354   0.017  0.00  0.00    -0.047 S 
ATOM      6  N   UNL     1       1.175  -0.608  -0.012  0.00  0.00    -0.230 NA
ATOM      7  C   UNL     1       2.311   0.064  -0.019  0.00  0.00    +0.112 A 
ATOM      8  S   UNL     1       1.740   1.756  -0.005  0.00  0.00    -0.047 S 
ENDROOT
BRANCH   1  14
ATOM      9  C   UNL     1      -4.804   0.976   0.046  0.00  0.00    +0.030 A 
ATOM     10  C   UNL     1      -6.080   1.500   0.066  0.00  0.00    +0.111 A 
ATOM     11  N   UNL     1      -6.277   2.804   0.075  0.00  0.00    -0.263 NA
ATOM     12  C   UNL     1      -5.277   3.664   0.071  0.00  0.00    +0.111 A 
ATOM     13  C   UNL     1      -3.968   3.228   0.057  0.00  0.00    +0.030 A 
ATOM     14  C   UNL     1      -3.711   1.852   0.047  0.00  0.00    +0.010 A 
ENDBRANCH   1  14
BRANCH   7  15
ATOM     15  C   UNL     1       3.696  -0.450  -0.034  0.00  0.00    +0.010 A 
ATOM     16  C   UNL     1       3.953  -1.827  -0.038  0.00  0.00    +0.030 A 
ATOM     17  C   UNL     1       5.262  -2.262  -0.058  0.00  0.00    +0.111 A 
ATOM     18  N   UNL     1       6.262  -1.402  -0.062  0.00  0.00    -0.263 NA
ATOM     19  C   UNL     1       6.065  -0.098  -0.054  0.00  0.00    +0.111 A 
ATOM     20  C   UNL     1       4.789   0.426  -0.040  0.00  0.00    +0.030 A 
ENDBRANCH   7  15
TORSDOF 2
