REMARK  Name = ZINC16713431
REMARK  10 active torsions:
REMARK  status: ('A' for Active; 'I' for Inactive)
REMARK    1  A    between atoms: C_1  and  C_2
REMARK    2  A    between atoms: C_4  and  C_32
REMARK    3  A    between atoms: C_5  and  N_9
REMARK    4  A    between atoms: C_10  and  C_12
REMARK    5  A    between atoms: C_12  and  S_13
REMARK    6  A    between atoms: S_13  and  C_14
REMARK    7  A    between atoms: C_18  and  C_22
REMARK    8  A    between atoms: C_19  and  C_21
REMARK    9  A    between atoms: N_25  and  C_26
REMARK   10  A    between atoms: C_26  and  C_27
REMARK                            x       y       z     vdW  Elec       q    Type
REMARK                         _______ _______ _______ _____ _____    ______ ____
ROOT
ATOM      1  C   UNL     1       1.014   3.055  -4.264  0.00  0.00    +0.173 A 
ATOM      2  N   UNL     1      -0.246   3.438  -4.288  0.00  0.00    -0.216 NA
ATOM      3  C   UNL     1      -1.207   2.598  -4.651  0.00  0.00    +0.117 A 
ATOM      4  C   UNL     1      -0.934   1.270  -5.030  0.00  0.00    +0.075 A 
ATOM      5  C   UNL     1      -2.101   0.485  -5.398  0.00  0.00    -0.026 A 
ATOM      6  C   UNL     1      -3.314   1.056  -5.355  0.00  0.00    -0.008 A 
ATOM      7  S   UNL     1      -2.971   2.717  -4.806  0.00  0.00    -0.073 S 
ATOM      8  C   UNL     1      -4.648   0.440  -5.689  0.00  0.00    +0.052 C 
ATOM      9  C   UNL     1      -1.950  -0.952  -5.824  0.00  0.00    +0.045 C 
ATOM     10  C   UNL     1       0.443   0.884  -5.000  0.00  0.00    +0.264 A 
ATOM     11  O   UNL     1       0.775  -0.247  -5.312  0.00  0.00    -0.267 OA
ATOM     12  N   UNL     1       1.367   1.786  -4.622  0.00  0.00    -0.280 N 
ENDROOT
BRANCH   1  13
ATOM     13  S   UNL     1       2.261   4.197  -3.770  0.00  0.00    -0.078 S 
BRANCH  13  14
ATOM     14  C   UNL     1       1.237   5.651  -3.428  0.00  0.00    +0.173 C 
BRANCH  14  16
ATOM     15  N   UNL     1       1.568   7.980  -2.663  0.00  0.00    -0.283 N 
ATOM     16  C   UNL     1       2.116   6.788  -2.975  0.00  0.00    +0.228 C 
ATOM     17  O   UNL     1       3.316   6.632  -2.892  0.00  0.00    -0.275 OA
ATOM     18  H   UNL     1       0.619   8.128  -2.799  0.00  0.00    +0.155 HD
BRANCH  15  23
ATOM     19  C   UNL     1       4.814  12.129  -0.553  0.00  0.00    +0.044 C 
ATOM     20  C   UNL     1       3.952  11.027  -1.113  0.00  0.00    -0.049 A 
ATOM     21  C   UNL     1       3.711  10.962  -2.473  0.00  0.00    +0.008 A 
ATOM     22  C   UNL     1       2.922   9.954  -2.990  0.00  0.00    -0.028 A 
ATOM     23  C   UNL     1       2.369   9.003  -2.142  0.00  0.00    +0.055 A 
ATOM     24  C   UNL     1       2.607   9.073  -0.775  0.00  0.00    +0.063 A 
ATOM     25  C   UNL     1       3.403  10.082  -0.265  0.00  0.00    +0.025 A 
ATOM     26 CL   UNL     1       1.912   7.892   0.290  0.00  0.00    -0.082 Cl
ATOM     27  C   UNL     1       2.661   9.885  -4.473  0.00  0.00    +0.046 C 
ENDBRANCH  15  23
ENDBRANCH  14  16
ENDBRANCH  13  14
ENDBRANCH   1  13
BRANCH  12  28
ATOM     28  C   UNL     1       2.779   1.397  -4.589  0.00  0.00    +0.201 C 
BRANCH  28  29
ATOM     29  C   UNL     1       3.410   1.679  -5.928  0.00  0.00    +0.125 A 
ATOM     30  C   UNL     1       4.002   2.830  -6.292  0.00  0.00    +0.046 A 
ATOM     31  C   UNL     1       4.446   2.660  -7.624  0.00  0.00    +0.041 A 
ATOM     32  C   UNL     1       4.097   1.415  -7.994  0.00  0.00    +0.195 A 
ATOM     33  O   UNL     1       3.470   0.825  -6.963  0.00  0.00    -0.466 OA
ENDBRANCH  28  29
ENDBRANCH  12  28
TORSDOF 6
