REMARK  Name = ZINC63270793
REMARK  3 active torsions:
REMARK  status: ('A' for Active; 'I' for Inactive)
REMARK    1  A    between atoms: N_17  and  C_18
REMARK    2  A    between atoms: C_18  and  C_19
REMARK    3  A    between atoms: N_21  and  C_22
REMARK                            x       y       z     vdW  Elec       q    Type
REMARK                         _______ _______ _______ _____ _____    ______ ____
ROOT
ATOM      1  C   UNL     1      -0.005   1.376   0.214  0.00  0.00    +0.001 A 
ATOM      2  C   UNL     1       1.178   2.127   0.215  0.00  0.00    +0.002 A 
ATOM      3  C   UNL     1       2.401   1.557   0.181  0.00  0.00    +0.026 A 
ATOM      4  C   UNL     1       2.537   0.143   0.140  0.00  0.00    +0.043 A 
ATOM      5  N   UNL     1       3.598  -0.632   0.123  0.00  0.00    -0.376 N 
ATOM      6  C   UNL     1       3.157  -2.019   0.004  0.00  0.00    +0.124 C 
ATOM      7  C   UNL     1       3.679  -2.885   1.157  0.00  0.00    +0.138 C 
ATOM      8  N   UNL     1       2.883  -4.122   1.189  0.00  0.00    -0.283 N 
ATOM      9  C   UNL     1       1.430  -4.069   1.386  0.00  0.00    +0.114 C 
ATOM     10  C   UNL     1       0.796  -3.214   0.274  0.00  0.00    +0.052 C 
ATOM     11  C   UNL     1       1.642  -1.972   0.115  0.00  0.00    -0.036 C 
ATOM     12  C   UNL     1       1.300  -0.676   0.145  0.00  0.00    -0.001 A 
ATOM     13  C   UNL     1       0.010   0.024   0.180  0.00  0.00    +0.010 A 
ATOM     14  C   UNL     1       3.493  -5.314   1.036  0.00  0.00    +0.303 C 
ATOM     15  O   UNL     1       4.679  -5.360   0.770  0.00  0.00    -0.253 OA
ATOM     16  N   UNL     1       2.789  -6.454   1.177  0.00  0.00    -0.291 N 
ATOM     17  H   UNL     1       1.830  -6.418   1.317  0.00  0.00    +0.151 HD
ATOM     18  H   UNL     1       4.519  -0.333   0.179  0.00  0.00    +0.160 HD
ENDROOT
BRANCH  16  19
ATOM     19  C   UNL     1       3.473  -7.749   1.120  0.00  0.00    +0.202 C 
BRANCH  19  20
ATOM     20  C   UNL     1       2.468  -8.856   1.304  0.00  0.00    +0.234 C 
ATOM     21  O   UNL     1       1.296  -8.591   1.467  0.00  0.00    -0.274 OA
ATOM     22  N   UNL     1       2.872 -10.142   1.288  0.00  0.00    -0.284 N 
ATOM     23  H   UNL     1       3.817 -10.353   1.229  0.00  0.00    +0.155 HD
BRANCH  22  24
ATOM     24  C   UNL     1       1.936 -11.164   1.355  0.00  0.00    +0.034 C 
ATOM     25  C   UNL     1       1.859 -12.097   0.344  0.00  0.00    +0.029 C 
ATOM     26  C   UNL     1       0.841 -13.047   0.488  0.00  0.00    -0.016 C 
ATOM     27  C   UNL     1       0.729 -14.335   0.104  0.00  0.00    +0.025 C 
ATOM     28  C   UNL     1      -0.380 -14.918   0.747  0.00  0.00    +0.106 C 
ATOM     29  N   UNL     1      -1.052 -14.052   1.454  0.00  0.00    -0.279 NA
ATOM     30  C   UNL     1      -0.445 -12.746   1.240  0.00  0.00    +0.158 C 
ATOM     31  C   UNL     1      -0.079 -12.002   2.489  0.00  0.00    +0.006 C 
ATOM     32  C   UNL     1       1.030 -11.257   2.503  0.00  0.00    +0.021 C 
ENDBRANCH  22  24
ENDBRANCH  19  20
ENDBRANCH  16  19
TORSDOF 3
