REMARK  Name = ZINC39012401
REMARK  8 active torsions:
REMARK  status: ('A' for Active; 'I' for Inactive)
REMARK    1  A    between atoms: C_1  and  C_2
REMARK    2  A    between atoms: C_6  and  N_8
REMARK    3  A    between atoms: C_9  and  C_11
REMARK    4  A    between atoms: C_11  and  S_12
REMARK    5  A    between atoms: S_12  and  C_13
REMARK    6  A    between atoms: C_17  and  C_21
REMARK    7  A    between atoms: N_19  and  N_20
REMARK    8  A    between atoms: C_24  and  C_27
REMARK                            x       y       z     vdW  Elec       q    Type
REMARK                         _______ _______ _______ _____ _____    ______ ____
ROOT
ATOM      1  C   UNL     1      -0.343  -7.158   5.212  0.00  0.00    +0.214 C 
ATOM      2  N   UNL     1      -1.494  -6.570   5.945  0.00  0.00    -0.228 NA
ATOM      3  N   UNL     1      -1.143  -6.718   7.359  0.00  0.00    -0.234 NA
ATOM      4  C   UNL     1       0.329  -6.819   7.427  0.00  0.00    +0.185 C 
ATOM      5  N   UNL     1       0.825  -6.737   6.031  0.00  0.00    -0.197 NA
ATOM      6  H   UNL     1      -1.619  -5.599   5.703  0.00  0.00    +0.143 HD
ATOM      7  H   UNL     1      -1.477  -5.934   7.899  0.00  0.00    +0.143 HD
ENDROOT
BRANCH   4   8
ATOM      8  C   UNL     1       0.896  -5.665   8.256  0.00  0.00    +0.187 C 
ATOM      9  C   UNL     1       0.424  -5.757   9.697  0.00  0.00    +0.034 C 
ATOM     10  C   UNL     1      -0.277  -4.621   9.880  0.00  0.00    +0.091 C 
ATOM     11  N   UNL     1      -0.279  -3.877   8.743  0.00  0.00    -0.154 NA
ATOM     12  N   UNL     1       0.346  -4.378   7.801  0.00  0.00    -0.176 NA
BRANCH  10  13
ATOM     13  C   UNL     1      -0.952  -4.237  11.144  0.00  0.00    +0.002 A 
ATOM     14  C   UNL     1      -0.882  -5.075  12.256  0.00  0.00    +0.013 A 
ATOM     15  C   UNL     1      -1.510  -4.714  13.430  0.00  0.00    +0.039 A 
ATOM     16  C   UNL     1      -2.211  -3.521  13.504  0.00  0.00    +0.123 A 
ATOM     17  C   UNL     1      -2.283  -2.685  12.401  0.00  0.00    +0.039 A 
ATOM     18  C   UNL     1      -1.652  -3.035  11.225  0.00  0.00    +0.013 A 
ATOM     19  F   UNL     1      -2.825  -3.171  14.656  0.00  0.00    -0.205 F 
ENDBRANCH  10  13
ENDBRANCH   4   8
BRANCH   5  20
ATOM     20  N   UNL     1       1.956  -7.627   5.823  0.00  0.00    -0.264 NA
ATOM     21  H   UNL     1       2.239  -7.630   4.855  0.00  0.00    +0.137 HD
ATOM     22  H   UNL     1       2.726  -7.379   6.425  0.00  0.00    +0.137 HD
ENDBRANCH   5  20
BRANCH   1  23
ATOM     23  S   UNL     1      -0.231  -6.473   3.536  0.00  0.00    -0.115 S 
BRANCH  23  24
ATOM     24  C   UNL     1      -0.133  -4.681   3.800  0.00  0.00    +0.168 C 
BRANCH  24  26
ATOM     25  N   UNL     1       0.049  -2.638   2.417  0.00  0.00    -0.270 N 
ATOM     26  C   UNL     1      -0.035  -3.982   2.468  0.00  0.00    +0.228 C 
ATOM     27  O   UNL     1      -0.031  -4.629   1.442  0.00  0.00    -0.275 OA
ATOM     28  H   UNL     1       0.120  -2.125   3.238  0.00  0.00    +0.156 HD
BRANCH  25  34
ATOM     29  C   UNL     1       0.029  -2.966  -2.361  0.00  0.00    +0.065 C 
ATOM     30  C   UNL     1       0.023  -2.114  -1.118  0.00  0.00    +0.040 A 
ATOM     31  C   UNL     1       0.003  -0.738  -1.234  0.00  0.00    +0.023 A 
ATOM     32  C   UNL     1      -0.003   0.041  -0.085  0.00  0.00    +0.005 A 
ATOM     33  C   UNL     1       0.013  -0.595   1.144  0.00  0.00    +0.044 A 
ATOM     34  C   UNL     1       0.033  -1.984   1.186  0.00  0.00    +0.125 A 
ATOM     35  N   UNL     1       0.032  -2.693   0.068  0.00  0.00    -0.237 NA
ENDBRANCH  25  34
ENDBRANCH  24  26
ENDBRANCH  23  24
ENDBRANCH   1  23
TORSDOF 7
