REMARK  Name = ZINC39437903
REMARK  5 active torsions:
REMARK  status: ('A' for Active; 'I' for Inactive)
REMARK    1  A    between atoms: C_1  and  C_2
REMARK    2  A    between atoms: C_5  and  C_13
REMARK    3  A    between atoms: C_11  and  C_12
REMARK    4  A    between atoms: C_18  and  N_21
REMARK    5  A    between atoms: C_29  and  C_31
REMARK                            x       y       z     vdW  Elec       q    Type
REMARK                         _______ _______ _______ _____ _____    ______ ____
ROOT
ATOM      1  C   UNL     1      -4.585  -1.445   1.103  0.00  0.00    +0.247 C 
ATOM      2  O   UNL     1      -3.411  -1.589   0.822  0.00  0.00    -0.270 OA
ATOM      3  N   UNL     1      -5.222  -2.381   1.834  0.00  0.00    -0.297 N 
ATOM      4  C   UNL     1      -4.485  -3.519   2.400  0.00  0.00    +0.110 C 
ATOM      5  C   UNL     1      -5.174  -4.817   1.968  0.00  0.00    +0.041 C 
ATOM      6  C   UNL     1      -6.651  -4.763   2.368  0.00  0.00    +0.080 C 
ATOM      7  C   UNL     1      -7.332  -3.594   1.653  0.00  0.00    +0.041 C 
ATOM      8  C   UNL     1      -6.666  -2.279   2.087  0.00  0.00    +0.110 C 
ENDROOT
BRANCH   1  13
ATOM      9  C   UNL     1      -5.601   3.864   2.336  0.00  0.00    +0.046 C 
ATOM     10  C   UNL     1      -6.314   3.173   1.203  0.00  0.00    -0.024 C 
ATOM     11  C   UNL     1      -6.331   1.852   0.983  0.00  0.00    -0.014 C 
ATOM     12  C   UNL     1      -5.612   0.775   1.537  0.00  0.00    +0.019 C 
ATOM     13  C   UNL     1      -5.312  -0.247   0.642  0.00  0.00    +0.037 C 
ATOM     14  C   UNL     1      -5.723  -0.127  -0.764  0.00  0.00    +0.011 C 
ATOM     15  C   UNL     1      -6.634   0.756  -1.174  0.00  0.00    +0.005 C 
ATOM     16  C   UNL     1      -7.307   1.637  -0.164  0.00  0.00    +0.159 C 
ATOM     17  N   UNL     1      -7.642   2.970  -0.639  0.00  0.00    -0.276 NA
ATOM     18  C   UNL     1      -7.105   3.835   0.168  0.00  0.00    +0.037 C 
ATOM     19  C   UNL     1      -7.273   5.328   0.049  0.00  0.00    +0.065 C 
ENDBRANCH   1  13
BRANCH   6  20
ATOM     20  N   UNL     1      -7.305  -6.017   1.985  0.00  0.00    -0.293 N 
ATOM     21  C   UNL     1      -7.404  -6.536   0.694  0.00  0.00    +0.122 A 
ATOM     22  C   UNL     1      -8.097  -7.745   0.725  0.00  0.00    +0.067 A 
ATOM     23  C   UNL     1      -8.309  -8.437  -0.461  0.00  0.00    +0.028 A 
ATOM     24  C   UNL     1      -7.819  -7.893  -1.641  0.00  0.00    +0.019 A 
ATOM     25  C   UNL     1      -7.142  -6.692  -1.600  0.00  0.00    +0.084 A 
ATOM     26  N   UNL     1      -6.954  -6.056  -0.459  0.00  0.00    -0.348 N 
ATOM     27  N   UNL     1      -8.469  -8.047   2.041  0.00  0.00    -0.323 N 
ATOM     28  C   UNL     1      -7.973  -6.958   2.892  0.00  0.00    +0.163 C 
ATOM     29  H   UNL     1      -8.960  -8.830   2.335  0.00  0.00    +0.148 HD
ATOM     30  H   UNL     1      -6.474  -5.213  -0.463  0.00  0.00    +0.167 HD
BRANCH  28  31
ATOM     31  C   UNL     1      -9.141  -6.271   3.601  0.00  0.00    +0.028 C 
ATOM     32  C   UNL     1      -9.546  -6.950   4.920  0.00  0.00    +0.007 C 
ATOM     33  C   UNL     1      -9.735  -5.537   5.497  0.00  0.00    +0.001 C 
ATOM     34  C   UNL     1      -8.721  -5.057   4.446  0.00  0.00    +0.007 C 
ENDBRANCH  28  31
ENDBRANCH   6  20
TORSDOF 3
