REMARK  Name = ZINC32102501
REMARK  4 active torsions:
REMARK  status: ('A' for Active; 'I' for Inactive)
REMARK    1  A    between atoms: C_3  and  N_11
REMARK    2  A    between atoms: C_6  and  C_7
REMARK    3  A    between atoms: C_12  and  C_14
REMARK    4  A    between atoms: C_27  and  C_30
REMARK                            x       y       z     vdW  Elec       q    Type
REMARK                         _______ _______ _______ _____ _____    ______ ____
ROOT
ATOM      1  C   UNL     1       2.084   1.570   1.264  0.00  0.00    +0.093 C 
ATOM      2  C   UNL     1       2.124   0.041   1.314  0.00  0.00    +0.016 C 
ATOM      3  C   UNL     1       0.692  -0.501   1.279  0.00  0.00    +0.020 C 
ATOM      4  C   UNL     1      -0.009   0.004   0.016  0.00  0.00    +0.106 C 
ATOM      5  N   UNL     1      -0.021   1.473   0.016  0.00  0.00    -0.313 N 
ATOM      6  C   UNL     1       1.343   2.016   0.002  0.00  0.00    +0.119 C 
ATOM      7  C   UNL     1      -0.765   1.965  -1.052  0.00  0.00    +0.142 A 
ATOM      8  C   UNL     1      -2.104   1.559  -1.212  0.00  0.00    +0.049 A 
ATOM      9  C   UNL     1      -2.842   2.038  -2.249  0.00  0.00    +0.053 A 
ATOM     10  C   UNL     1      -2.246   2.931  -3.159  0.00  0.00    +0.178 A 
ATOM     11  N   UNL     1      -2.676   3.556  -4.244  0.00  0.00    -0.128 NA
ATOM     12  N   UNL     1      -1.722   4.274  -4.726  0.00  0.00    -0.123 NA
ATOM     13  C   UNL     1      -0.647   4.150  -3.989  0.00  0.00    +0.258 A 
ATOM     14  N   UNL     1      -0.937   3.303  -2.979  0.00  0.00    -0.187 N 
ATOM     15  N   UNL     1      -0.208   2.797  -1.900  0.00  0.00    -0.148 NA
ENDROOT
BRANCH   1  17
ATOM     16  N   UNL     1       4.334   1.840   2.255  0.00  0.00    -0.285 N 
ATOM     17  C   UNL     1       3.490   2.110   1.239  0.00  0.00    +0.222 C 
ATOM     18  O   UNL     1       3.863   2.788   0.305  0.00  0.00    -0.275 OA
ATOM     19  H   UNL     1       3.975   1.290   3.137  0.00  0.00    +0.155 HD
BRANCH  16  22
ATOM     20  C   UNL     1       7.307   3.870   1.505  0.00  0.00    +0.014 A 
ATOM     21  C   UNL     1       5.989   3.461   1.571  0.00  0.00    +0.024 A 
ATOM     22  C   UNL     1       5.668   2.258   2.186  0.00  0.00    +0.033 A 
ATOM     23  C   UNL     1       6.672   1.474   2.739  0.00  0.00    +0.024 A 
ATOM     24  C   UNL     1       7.988   1.887   2.665  0.00  0.00    +0.014 A 
ATOM     25  C   UNL     1       8.305   3.085   2.052  0.00  0.00    +0.055 A 
BRANCH  25  26
ATOM     26  C   UNL     1       9.741   3.536   1.979  0.00  0.00    +0.417 C 
ATOM     27  F   UNL     1      10.047   4.302   3.108  0.00  0.00    -0.166 F 
ATOM     28  F   UNL     1      10.579   2.416   1.933  0.00  0.00    -0.166 F 
ATOM     29  F   UNL     1       9.930   4.307   0.827  0.00  0.00    -0.166 F 
ENDBRANCH  25  26
ENDBRANCH  16  22
ENDBRANCH   1  17
BRANCH  13  30
ATOM     30  C   UNL     1       0.677   4.831  -4.225  0.00  0.00    +0.454 C 
ATOM     31  F   UNL     1       0.507   5.875  -5.141  0.00  0.00    -0.163 F 
ATOM     32  F   UNL     1       1.160   5.344  -3.017  0.00  0.00    -0.163 F 
ATOM     33  F   UNL     1       1.592   3.906  -4.738  0.00  0.00    -0.163 F 
ENDBRANCH  13  30
TORSDOF 4
