REMARK  Name = ZINC54730793
REMARK  5 active torsions:
REMARK  status: ('A' for Active; 'I' for Inactive)
REMARK    1  A    between atoms: C_1  and  N_2
REMARK    2  A    between atoms: C_6  and  S_7
REMARK    3  A    between atoms: S_7  and  C_8
REMARK    4  A    between atoms: C_11  and  N_14
REMARK    5  A    between atoms: C_15  and  C_17
REMARK                            x       y       z     vdW  Elec       q    Type
REMARK                         _______ _______ _______ _____ _____    ______ ____
ROOT
ATOM      1  C   UNL     1       0.082  -1.783   3.799  0.00  0.00    +0.016 A 
ATOM      2  C   UNL     1       0.171  -3.037   3.208  0.00  0.00    +0.017 A 
ATOM      3  C   UNL     1       0.190  -4.171   3.994  0.00  0.00    +0.024 A 
ATOM      4  C   UNL     1       0.119  -4.059   5.376  0.00  0.00    +0.034 A 
ATOM      5  C   UNL     1       0.029  -2.806   5.968  0.00  0.00    +0.024 A 
ATOM      6  C   UNL     1       0.017  -1.671   5.183  0.00  0.00    +0.017 A 
ENDROOT
BRANCH   4   7
ATOM      7  N   UNL     1       0.138  -5.210   6.174  0.00  0.00    -0.282 N 
ATOM      8  C   UNL     1      -0.587  -5.255   7.310  0.00  0.00    +0.248 C 
ATOM      9  O   UNL     1      -1.189  -4.268   7.686  0.00  0.00    -0.270 OA
ATOM     10  H   UNL     1       0.672  -5.975   5.909  0.00  0.00    +0.155 HD
BRANCH   8  11
ATOM     11  C   UNL     1      -0.649  -6.504   8.098  0.00  0.00    +0.038 A 
ATOM     12  C   UNL     1       0.046  -7.637   7.671  0.00  0.00    +0.013 A 
ATOM     13  C   UNL     1      -0.015  -8.799   8.412  0.00  0.00    +0.002 A 
ATOM     14  C   UNL     1      -0.763  -8.844   9.575  0.00  0.00    +0.015 A 
ATOM     15  C   UNL     1      -1.456  -7.725  10.003  0.00  0.00    +0.019 A 
ATOM     16  C   UNL     1      -1.398  -6.553   9.274  0.00  0.00    +0.028 A 
ATOM     17 BR   UNL     1      -2.476  -7.798  11.593  0.00  0.00    -0.050 Br
ENDBRANCH   8  11
ENDBRANCH   4   7
BRANCH   1  18
ATOM     18  S   UNL     1       0.058  -0.334   2.796  0.00  0.00    -0.050 S 
BRANCH  18  24
ATOM     19  C   UNL     1      -1.468   2.214   1.342  0.00  0.00    +0.152 C 
ATOM     20  N   UNL     1      -2.194   1.112   1.980  0.00  0.00    -0.311 N 
ATOM     21  C   UNL     1      -3.550   0.959   2.070  0.00  0.00    +0.225 A 
ATOM     22  N   UNL     1      -3.773  -0.152   2.712  0.00  0.00    -0.137 NA
ATOM     23  N   UNL     1      -2.659  -0.709   3.031  0.00  0.00    -0.122 NA
ATOM     24  C   UNL     1      -1.657   0.022   2.602  0.00  0.00    +0.196 A 
ENDBRANCH  18  24
ENDBRANCH   1  18
TORSDOF 4
