REMARK  Name = ZINC03282981
REMARK  8 active torsions:
REMARK  status: ('A' for Active; 'I' for Inactive)
REMARK    1  A    between atoms: C_1  and  O_2
REMARK    2  A    between atoms: O_2  and  C_3
REMARK    3  A    between atoms: C_8  and  O_9
REMARK    4  A    between atoms: O_9  and  C_10
REMARK    5  A    between atoms: C_11  and  C_32
REMARK    6  A    between atoms: C_16  and  C_18
REMARK    7  A    between atoms: C_22  and  S_24
REMARK    8  A    between atoms: S_24  and  N_27
REMARK                            x       y       z     vdW  Elec       q    Type
REMARK                         _______ _______ _______ _____ _____    ______ ____
ROOT
ATOM      1  C   UNL     1       3.440   2.198   3.342  0.00  0.00    +0.162 A 
ATOM      2  C   UNL     1       4.242   1.271   3.982  0.00  0.00    +0.053 A 
ATOM      3  C   UNL     1       3.806   0.636   5.139  0.00  0.00    -0.037 A 
ATOM      4  C   UNL     1       2.562   0.933   5.651  0.00  0.00    -0.015 A 
ATOM      5  C   UNL     1       1.749   1.856   5.008  0.00  0.00    +0.055 A 
ATOM      6  C   UNL     1       2.180   2.490   3.857  0.00  0.00    +0.162 A 
ATOM      7  C   UNL     1       2.038   0.298   6.915  0.00  0.00    +0.144 C 
ATOM      8  N   UNL     1       2.903  -0.822   7.301  0.00  0.00    -0.286 N 
ATOM      9  C   UNL     1       4.358  -0.607   7.235  0.00  0.00    +0.114 C 
ATOM     10  C   UNL     1       4.732  -0.368   5.773  0.00  0.00    +0.054 C 
ATOM     11  C   UNL     1       2.386  -2.001   7.699  0.00  0.00    +0.247 C 
ATOM     12  O   UNL     1       1.186  -2.118   7.854  0.00  0.00    -0.270 OA
ENDROOT
BRANCH  11  13
ATOM     13  C   UNL     1       3.279  -3.153   7.949  0.00  0.00    +0.039 A 
ATOM     14  C   UNL     1       4.330  -3.428   7.072  0.00  0.00    +0.013 A 
ATOM     15  C   UNL     1       5.162  -4.502   7.314  0.00  0.00    +0.003 A 
ATOM     16  C   UNL     1       4.951  -5.311   8.416  0.00  0.00    +0.028 A 
ATOM     17  C   UNL     1       3.909  -5.046   9.287  0.00  0.00    +0.106 A 
ATOM     18  C   UNL     1       3.072  -3.973   9.059  0.00  0.00    +0.041 A 
BRANCH  17  19
ATOM     19  S   UNL     1       3.648  -6.082  10.688  0.00  0.00    +0.061 S 
ATOM     20  O   UNL     1       4.897  -6.696  10.977  0.00  0.00    -0.153 OA
ATOM     21  O   UNL     1       2.943  -5.303  11.644  0.00  0.00    -0.153 OA
BRANCH  19  22
ATOM     22  N   UNL     1       2.624  -7.295  10.216  0.00  0.00    -0.177 NA
ATOM     23  C   UNL     1       1.156  -7.257  10.298  0.00  0.00    +0.109 C 
ATOM     24  C   UNL     1       0.633  -8.610   9.772  0.00  0.00    +0.018 C 
ATOM     25  C   UNL     1       1.853  -9.549   9.960  0.00  0.00    +0.018 C 
ATOM     26  C   UNL     1       3.032  -8.594   9.651  0.00  0.00    +0.109 C 
ENDBRANCH  19  22
ENDBRANCH  17  19
ENDBRANCH  11  13
BRANCH   7  27
ATOM     27  C   UNL     1       0.638  -0.207   6.679  0.00  0.00    +0.015 A 
ATOM     28  C   UNL     1      -0.520   0.185   7.264  0.00  0.00    +0.013 A 
ATOM     29  C   UNL     1      -1.702  -0.424   6.884  0.00  0.00    +0.008 A 
ATOM     30  C   UNL     1      -1.666  -1.402   5.946  0.00  0.00    +0.045 A 
ATOM     31  S   UNL     1       0.076  -1.482   5.564  0.00  0.00    -0.099 S 
ENDBRANCH   7  27
BRANCH   1  33
ATOM     32  C   UNL     1       5.181   2.466   1.745  0.00  0.00    +0.277 C 
ATOM     33  O   UNL     1       3.877   2.817   2.213  0.00  0.00    -0.491 OA
ENDBRANCH   1  33
BRANCH   6  34
ATOM     34  O   UNL     1       1.378   3.393   3.231  0.00  0.00    -0.491 OA
ATOM     35  C   UNL     1       0.099   3.641   3.819  0.00  0.00    +0.277 C 
ENDBRANCH   6  34
TORSDOF 6
