REMARK  Name = ZINC01326524
REMARK  6 active torsions:
REMARK  status: ('A' for Active; 'I' for Inactive)
REMARK    1  A    between atoms: C_1  and  C_2
REMARK    2  A    between atoms: C_6  and  C_8
REMARK    3  A    between atoms: N_10  and  N_11
REMARK    4  A    between atoms: C_12  and  C_14
REMARK    5  A    between atoms: C_19  and  C_30
REMARK    6  A    between atoms: C_22  and  C_25
REMARK                            x       y       z     vdW  Elec       q    Type
REMARK                         _______ _______ _______ _____ _____    ______ ____
ROOT
ATOM      1  C   UNL     1       0.118  -7.003   4.912  0.00  0.00    +0.150 A 
ATOM      2  C   UNL     1       0.143  -8.409   5.044  0.00  0.00    +0.078 A 
ATOM      3  C   UNL     1       0.151  -8.694   6.362  0.00  0.00    +0.119 A 
ATOM      4  N   UNL     1       0.134  -7.515   7.051  0.00  0.00    -0.238 N 
ATOM      5  N   UNL     1       0.117  -6.475   6.123  0.00  0.00    -0.164 NA
ATOM      6  C   UNL     1       0.141  -7.429   8.515  0.00  0.00    +0.215 C 
ATOM      7  C   UNL     1       0.647  -8.758   9.087  0.00  0.00    +0.066 C 
ATOM      8  C   UNL     1      -0.114  -9.925   8.450  0.00  0.00    +0.140 C 
ATOM      9  N   UNL     1       0.171  -9.936   7.001  0.00  0.00    -0.319 N 
ATOM     10  H   UNL     1       0.361 -10.758   6.522  0.00  0.00    +0.148 HD
ENDROOT
BRANCH   8  11
ATOM     11  C   UNL     1      -1.593  -9.748   8.677  0.00  0.00    +0.125 A 
ATOM     12  C   UNL     1      -2.323 -10.364   9.624  0.00  0.00    +0.046 A 
ATOM     13  C   UNL     1      -3.654  -9.910   9.476  0.00  0.00    +0.041 A 
ATOM     14  C   UNL     1      -3.658  -9.043   8.448  0.00  0.00    +0.195 A 
ATOM     15  O   UNL     1      -2.406  -8.945   7.971  0.00  0.00    -0.466 OA
ENDBRANCH   8  11
BRANCH   1  17
ATOM     16  N   UNL     1       0.085  -4.905   3.652  0.00  0.00    -0.229 N 
ATOM     17  C   UNL     1       0.103  -6.252   3.639  0.00  0.00    +0.280 C 
ATOM     18  O   UNL     1       0.106  -6.850   2.581  0.00  0.00    -0.267 OA
ATOM     19  H   UNL     1       0.082  -4.428   4.496  0.00  0.00    +0.173 HD
BRANCH  16  22
ATOM     20  C   UNL     1       0.052  -2.845   2.458  0.00  0.00    +0.260 C 
ATOM     21  O   UNL     1       0.049  -2.248   3.516  0.00  0.00    -0.269 OA
ATOM     22  N   UNL     1       0.070  -4.193   2.445  0.00  0.00    -0.230 N 
ATOM     23  H   UNL     1       0.072  -4.670   1.601  0.00  0.00    +0.173 HD
BRANCH  20  29
ATOM     24  C   UNL     1      -0.018   1.503   0.010  0.00  0.00    +0.044 C 
ATOM     25  C   UNL     1       0.002  -0.004   0.002  0.00  0.00    -0.050 A 
ATOM     26  C   UNL     1       0.006  -0.688  -1.201  0.00  0.00    +0.003 A 
ATOM     27  C   UNL     1       0.025  -2.071  -1.218  0.00  0.00    +0.001 A 
ATOM     28  C   UNL     1       0.040  -2.778  -0.033  0.00  0.00    +0.013 A 
ATOM     29  C   UNL     1       0.036  -2.095   1.184  0.00  0.00    +0.038 A 
ATOM     30  C   UNL     1       0.023  -0.699   1.194  0.00  0.00    +0.016 A 
ENDBRANCH  20  29
ENDBRANCH  16  22
ENDBRANCH   1  17
BRANCH   6  31
ATOM     31  C   UNL     1       1.064  -6.292   8.957  0.00  0.00    +0.412 C 
ATOM     32  F   UNL     1       0.606  -5.084   8.422  0.00  0.00    -0.168 F 
ATOM     33  F   UNL     1       1.069  -6.212  10.354  0.00  0.00    -0.168 F 
ATOM     34  F   UNL     1       2.363  -6.541   8.499  0.00  0.00    -0.168 F 
ENDBRANCH   6  31
TORSDOF 5
