REMARK  Name = ZINC13195391
REMARK  14 active torsions:
REMARK  status: ('A' for Active; 'I' for Inactive)
REMARK    1  A    between atoms: C_1  and  C_2
REMARK    2  A    between atoms: C_2  and  O_3
REMARK    3  A    between atoms: O_3  and  C_4
REMARK    4  A    between atoms: C_7  and  C_10
REMARK    5  A    between atoms: C_13  and  S_18
REMARK    6  A    between atoms: N_14  and  C_15
REMARK    7  A    between atoms: C_15  and  C_16
REMARK    8  A    between atoms: S_18  and  C_19
REMARK    9  A    between atoms: C_19  and  C_20
REMARK   10  A    between atoms: N_25  and  C_26
REMARK   11  A    between atoms: C_26  and  C_27
REMARK   12  A    between atoms: C_27  and  C_28
REMARK   13  A    between atoms: C_28  and  C_29
REMARK   14  A    between atoms: C_28  and  C_30
REMARK                            x       y       z     vdW  Elec       q    Type
REMARK                         _______ _______ _______ _____ _____    ______ ____
ROOT
ATOM      1  C   UNL     1      -3.679  -1.320   0.083  0.00  0.00    +0.165 A 
ATOM      2  N   UNL     1      -3.831  -0.017   0.074  0.00  0.00    -0.128 NA
ATOM      3  N   UNL     1      -2.683   0.558   0.008  0.00  0.00    -0.122 NA
ATOM      4  C   UNL     1      -1.729  -0.344  -0.037  0.00  0.00    +0.193 A 
ATOM      5  N   UNL     1      -2.328  -1.570   0.012  0.00  0.00    -0.291 N 
ENDROOT
BRANCH   1   9
ATOM      6  C   UNL     1      -6.777  -4.221   0.292  0.00  0.00    +0.121 A 
ATOM      7  C   UNL     1      -5.478  -4.569   0.640  0.00  0.00    +0.046 A 
ATOM      8  C   UNL     1      -4.470  -3.631   0.574  0.00  0.00    +0.015 A 
ATOM      9  C   UNL     1      -4.757  -2.330   0.155  0.00  0.00    +0.020 A 
ATOM     10  C   UNL     1      -6.065  -1.983  -0.189  0.00  0.00    +0.015 A 
ATOM     11  C   UNL     1      -7.066  -2.929  -0.124  0.00  0.00    +0.046 A 
BRANCH   6  12
ATOM     12  O   UNL     1      -7.767  -5.149   0.360  0.00  0.00    -0.492 OA
BRANCH  12  14
ATOM     13  C   UNL     1     -10.054  -5.896   0.127  0.00  0.00    +0.048 C 
ATOM     14  C   UNL     1      -9.080  -4.724  -0.013  0.00  0.00    +0.225 C 
ENDBRANCH  12  14
ENDBRANCH   6  12
ENDBRANCH   1   9
BRANCH   5  15
ATOM     15  C   UNL     1      -1.670  -2.879  -0.007  0.00  0.00    +0.250 C 
BRANCH  15  16
ATOM     16  C   UNL     1      -1.316  -3.284   1.401  0.00  0.00    +0.375 C 
ATOM     17  O   UNL     1      -1.587  -2.554   2.326  0.00  0.00    -0.244 OA
ATOM     18  O   UNL     1      -0.701  -4.455   1.628  0.00  0.00    -0.244 OA
ENDBRANCH  15  16
ENDBRANCH   5  15
BRANCH   4  19
ATOM     19  S   UNL     1       0.002  -0.029  -0.135  0.00  0.00    -0.077 S 
BRANCH  19  20
ATOM     20  C   UNL     1      -0.008   1.781  -0.159  0.00  0.00    +0.173 C 
BRANCH  20  21
ATOM     21  C   UNL     1       1.408   2.290  -0.243  0.00  0.00    +0.231 C 
ATOM     22  O   UNL     1       2.333   1.506  -0.282  0.00  0.00    -0.274 OA
ATOM     23  N   UNL     1       1.647   3.616  -0.274  0.00  0.00    -0.240 N 
ATOM     24  C   UNL     1       2.913   4.071  -0.349  0.00  0.00    +0.306 C 
ATOM     25  O   UNL     1       3.840   3.286  -0.388  0.00  0.00    -0.252 OA
ATOM     26  N   UNL     1       3.151   5.397  -0.380  0.00  0.00    -0.299 N 
ATOM     27  H   UNL     1       0.907   4.243  -0.242  0.00  0.00    +0.159 HD
ATOM     28  H   UNL     1       2.412   6.024  -0.348  0.00  0.00    +0.150 HD
BRANCH  26  29
ATOM     29  C   UNL     1       4.528   5.892  -0.461  0.00  0.00    +0.106 C 
BRANCH  29  30
ATOM     30  C   UNL     1       4.519   7.422  -0.482  0.00  0.00    +0.022 C 
BRANCH  30  31
ATOM     31  C   UNL     1       5.957   7.939  -0.567  0.00  0.00    -0.016 C 
ATOM     32  C   UNL     1       6.571   7.520  -1.904  0.00  0.00    +0.007 C 
ATOM     33  C   UNL     1       5.957   9.466  -0.462  0.00  0.00    +0.007 C 
ENDBRANCH  30  31
ENDBRANCH  29  30
ENDBRANCH  26  29
ENDBRANCH  20  21
ENDBRANCH  19  20
ENDBRANCH   4  19
TORSDOF 11
