REMARK  Name = ZINC13252298
REMARK  6 active torsions:
REMARK  status: ('A' for Active; 'I' for Inactive)
REMARK    1  A    between atoms: C_6  and  N_7
REMARK    2  A    between atoms: N_7  and  S_8
REMARK    3  A    between atoms: S_8  and  C_11
REMARK    4  A    between atoms: C_13  and  N_18
REMARK    5  A    between atoms: C_19  and  C_21
REMARK    6  A    between atoms: C_27  and  C_29
REMARK                            x       y       z     vdW  Elec       q    Type
REMARK                         _______ _______ _______ _____ _____    ______ ____
ROOT
ATOM      1  C   UNL     1       2.177  -0.093   0.067  0.00  0.00    +0.130 A 
ATOM      2  C   UNL     1       2.321   1.231  -0.303  0.00  0.00    +0.053 A 
ATOM      3  C   UNL     1       1.226   2.083  -0.269  0.00  0.00    +0.035 A 
ATOM      4  C   UNL     1      -0.012   1.603   0.137  0.00  0.00    +0.025 A 
ATOM      5  C   UNL     1      -0.151   0.280   0.506  0.00  0.00    +0.024 A 
ATOM      6  C   UNL     1       0.942  -0.568   0.471  0.00  0.00    +0.068 A 
ATOM      7 CL   UNL     1       0.764  -2.232   0.935  0.00  0.00    -0.082 Cl
ENDROOT
BRANCH   3   8
ATOM      8  N   UNL     1       1.370   3.424  -0.644  0.00  0.00    -0.285 N 
ATOM      9  C   UNL     1       0.640   4.377  -0.030  0.00  0.00    +0.221 C 
ATOM     10  O   UNL     1      -0.068   4.087   0.910  0.00  0.00    -0.275 OA
ATOM     11  H   UNL     1       2.078   3.700  -1.439  0.00  0.00    +0.155 HD
BRANCH   9  12
ATOM     12  C   UNL     1       0.705   5.803  -0.513  0.00  0.00    +0.093 C 
ATOM     13  C   UNL     1       0.238   5.875  -1.969  0.00  0.00    +0.040 C 
ATOM     14  C   UNL     1       0.039   7.306  -2.377  0.00  0.00    -0.030 C 
ATOM     15  C   UNL     1      -0.067   8.291  -1.544  0.00  0.00    -0.030 C 
ATOM     16  C   UNL     1      -0.000   8.142  -0.052  0.00  0.00    +0.042 C 
ATOM     17  C   UNL     1      -0.220   6.679   0.341  0.00  0.00    +0.118 C 
BRANCH  17  18
ATOM     18  C   UNL     1       0.110   6.492   1.800  0.00  0.00    +0.360 C 
ATOM     19  O   UNL     1       0.994   5.736   2.127  0.00  0.00    -0.246 OA
ATOM     20  O   UNL     1      -0.578   7.165   2.735  0.00  0.00    -0.246 OA
ENDBRANCH  17  18
ENDBRANCH   9  12
ENDBRANCH   3   8
BRANCH   1  21
ATOM     21  S   UNL     1       3.566  -1.175   0.024  0.00  0.00    +0.093 S 
ATOM     22  O   UNL     1       3.149  -2.344  -0.669  0.00  0.00    -0.148 OA
ATOM     23  O   UNL     1       4.676  -0.395  -0.398  0.00  0.00    -0.148 OA
BRANCH  21  24
ATOM     24  N   UNL     1       3.877  -1.636   1.584  0.00  0.00    -0.098 NA
BRANCH  24  30
ATOM     25  C   UNL     1       5.254   0.246   2.206  0.00  0.00    +0.028 A 
ATOM     26  C   UNL     1       5.642   1.188   3.139  0.00  0.00    +0.022 A 
ATOM     27  C   UNL     1       5.062   1.199   4.395  0.00  0.00    +0.041 A 
ATOM     28  C   UNL     1       4.089   0.270   4.719  0.00  0.00    +0.022 A 
ATOM     29  C   UNL     1       3.694  -0.672   3.789  0.00  0.00    +0.028 A 
ATOM     30  C   UNL     1       4.274  -0.685   2.527  0.00  0.00    +0.074 A 
ATOM     31 CL   UNL     1       5.556   2.381   5.567  0.00  0.00    -0.084 Cl
ENDBRANCH  24  30
ENDBRANCH  21  24
ENDBRANCH   1  21
TORSDOF 6
