REMARK  Name = ZINC47549448
REMARK  10 active torsions:
REMARK  status: ('A' for Active; 'I' for Inactive)
REMARK    1  A    between atoms: C_1  and  C_2
REMARK    2  A    between atoms: C_2  and  C_3
REMARK    3  A    between atoms: C_3  and  C_5
REMARK    4  A    between atoms: C_3  and  N_6
REMARK    5  A    between atoms: N_6  and  C_7
REMARK    6  A    between atoms: N_6  and  C_17
REMARK    7  A    between atoms: C_7  and  C_8
REMARK    8  A    between atoms: N_13  and  C_14
REMARK    9  A    between atoms: C_17  and  C_18
REMARK   10  A    between atoms: N_23  and  C_24
REMARK                            x       y       z     vdW  Elec       q    Type
REMARK                         _______ _______ _______ _____ _____    ______ ____
ROOT
ATOM      1  N   UNL     1      -1.985   0.061  -0.677  0.00  0.00    +0.393 N 
ATOM      2  H   UNL     1      -1.315  -0.518  -1.162  0.00  0.00    -0.080 HD
ENDROOT
BRANCH   1   3
ATOM      3  C   UNL     1      -1.827  -0.117   0.772  0.00  0.00    -0.071 C 
ATOM      4  C   UNL     1      -3.167   0.139   1.466  0.00  0.00    -0.013 C 
BRANCH   3   6
ATOM      5  C   UNL     1       0.041  -1.754   0.503  0.00  0.00    +0.002 C 
ATOM      6  C   UNL     1      -1.367  -1.547   1.063  0.00  0.00    -0.019 C 
ENDBRANCH   3   6
ENDBRANCH   1   3
BRANCH   1   7
ATOM      7  C   UNL     1      -3.345  -0.326  -1.073  0.00  0.00    +0.020 C 
BRANCH   7   8
ATOM      8  C   UNL     1      -3.429  -1.827  -1.179  0.00  0.00    +0.204 C 
ATOM      9  O   UNL     1      -2.417  -2.493  -1.171  0.00  0.00    -0.277 OA
ATOM     10  N   UNL     1      -4.631  -2.429  -1.283  0.00  0.00    -0.242 N 
ATOM     11  C   UNL     1      -4.706  -3.772  -1.377  0.00  0.00    +0.306 C 
ATOM     12  O   UNL     1      -3.691  -4.439  -1.369  0.00  0.00    -0.252 OA
ATOM     13  N   UNL     1      -5.908  -4.373  -1.481  0.00  0.00    -0.296 N 
ATOM     14  H   UNL     1      -5.441  -1.896  -1.289  0.00  0.00    +0.159 HD
ATOM     15  H   UNL     1      -6.718  -3.841  -1.487  0.00  0.00    +0.151 HD
BRANCH  13  16
ATOM     16  C   UNL     1      -5.989  -5.832  -1.583  0.00  0.00    +0.075 C 
ATOM     17  C   UNL     1      -6.960  -6.415  -2.613  0.00  0.00    +0.024 C 
ATOM     18  C   UNL     1      -7.285  -6.502  -1.121  0.00  0.00    +0.024 C 
ENDBRANCH  13  16
ENDBRANCH   7   8
ENDBRANCH   1   7
BRANCH   1  19
ATOM     19  C   UNL     1      -1.756   1.470  -1.025  0.00  0.00    +0.020 C 
BRANCH  19  20
ATOM     20  C   UNL     1      -0.322   1.832  -0.737  0.00  0.00    +0.204 C 
ATOM     21  O   UNL     1       0.462   0.974  -0.391  0.00  0.00    -0.277 OA
ATOM     22  N   UNL     1       0.090   3.109  -0.865  0.00  0.00    -0.242 N 
ATOM     23  C   UNL     1       1.372   3.433  -0.607  0.00  0.00    +0.306 C 
ATOM     24  O   UNL     1       2.158   2.573  -0.260  0.00  0.00    -0.252 OA
ATOM     25  N   UNL     1       1.784   4.710  -0.735  0.00  0.00    -0.296 N 
ATOM     26  H   UNL     1      -0.537   3.795  -1.142  0.00  0.00    +0.159 HD
ATOM     27  H   UNL     1       1.157   5.396  -1.012  0.00  0.00    +0.151 HD
BRANCH  25  28
ATOM     28  C   UNL     1       3.178   5.062  -0.455  0.00  0.00    +0.075 C 
ATOM     29  C   UNL     1       3.437   6.331   0.359  0.00  0.00    +0.024 C 
ATOM     30  C   UNL     1       3.743   6.308  -1.139  0.00  0.00    +0.024 C 
ENDBRANCH  25  28
ENDBRANCH  19  20
ENDBRANCH   1  19
TORSDOF 8
