REMARK  Name = ZINC40014208
REMARK  6 active torsions:
REMARK  status: ('A' for Active; 'I' for Inactive)
REMARK    1  A    between atoms: C_1  and  C_2
REMARK    2  A    between atoms: C_4  and  C_38
REMARK    3  A    between atoms: C_12  and  C_28
REMARK    4  A    between atoms: C_31  and  O_34
REMARK    5  A    between atoms: O_34  and  C_35
REMARK    6  A    between atoms: C_35  and  C_36
REMARK                            x       y       z     vdW  Elec       q    Type
REMARK                         _______ _______ _______ _____ _____    ______ ____
ROOT
ATOM      1  C   UNL     1      -0.018   1.503   0.010  0.00  0.00    +0.044 C 
ATOM      2  C   UNL     1       0.002  -0.004   0.002  0.00  0.00    -0.049 A 
ATOM      3  C   UNL     1       0.006  -0.698  -1.199  0.00  0.00    +0.009 A 
ATOM      4  C   UNL     1       0.024  -2.068  -1.235  0.00  0.00    -0.024 A 
ATOM      5  C   UNL     1       0.039  -2.822  -0.038  0.00  0.00    +0.083 A 
ATOM      6  C   UNL     1       0.035  -2.081   1.166  0.00  0.00    +0.041 A 
ATOM      7  C   UNL     1       0.023  -0.709   1.192  0.00  0.00    +0.020 A 
ATOM      8  S   UNL     1       0.058  -3.361   2.397  0.00  0.00    -0.052 S 
ATOM      9  C   UNL     1       0.071  -4.752   1.275  0.00  0.00    +0.169 A 
ATOM     10  N   UNL     1       0.058  -4.165   0.101  0.00  0.00    -0.224 NA
ATOM     11  N   UNL     1       0.090  -6.104   1.569  0.00  0.00    -0.232 N 
ATOM     12  C   UNL     1       0.098  -6.697   2.916  0.00  0.00    +0.151 C 
ATOM     13  C   UNL     1       0.122  -8.176   2.711  0.00  0.00    +0.072 A 
ATOM     14  C   UNL     1       0.148  -9.284   3.670  0.00  0.00    +0.199 A 
ATOM     15  O   UNL     1      -0.022  -9.135   4.867  0.00  0.00    -0.287 OA
ATOM     16  C   UNL     1       0.402 -10.607   3.043  0.00  0.00    +0.067 A 
ATOM     17  C   UNL     1       0.654 -11.726   3.836  0.00  0.00    +0.053 A 
ATOM     18  C   UNL     1       0.893 -12.945   3.238  0.00  0.00    +0.124 A 
ATOM     19  C   UNL     1       0.883 -13.053   1.852  0.00  0.00    +0.042 A 
ATOM     20  C   UNL     1       0.634 -11.955   1.061  0.00  0.00    +0.050 A 
ATOM     21  C   UNL     1       0.387 -10.712   1.643  0.00  0.00    +0.140 A 
ATOM     22  O   UNL     1       0.135  -9.651   0.842  0.00  0.00    -0.450 OA
ATOM     23  C   UNL     1       0.122  -8.409   1.364  0.00  0.00    +0.199 A 
ATOM     24  C   UNL     1       0.099  -7.110   0.670  0.00  0.00    +0.289 C 
ATOM     25  O   UNL     1       0.092  -6.966  -0.536  0.00  0.00    -0.266 OA
ATOM     26  F   UNL     1       1.137 -14.035   3.998  0.00  0.00    -0.205 F 
ATOM     27  C   UNL     1       0.027  -2.779  -2.564  0.00  0.00    +0.046 C 
ENDROOT
BRANCH  12  28
ATOM     28  C   UNL     1      -1.145  -6.295   3.668  0.00  0.00    -0.022 A 
ATOM     29  C   UNL     1      -2.358  -6.226   3.009  0.00  0.00    +0.009 A 
ATOM     30  C   UNL     1      -3.498  -5.857   3.696  0.00  0.00    +0.046 A 
ATOM     31  C   UNL     1      -3.426  -5.557   5.048  0.00  0.00    +0.121 A 
ATOM     32  C   UNL     1      -2.207  -5.628   5.708  0.00  0.00    +0.046 A 
ATOM     33  C   UNL     1      -1.070  -6.002   5.017  0.00  0.00    +0.009 A 
BRANCH  31  34
ATOM     34  O   UNL     1      -4.546  -5.194   5.726  0.00  0.00    -0.488 OA
BRANCH  34  35
ATOM     35  C   UNL     1      -4.397  -4.899   7.116  0.00  0.00    +0.256 C 
BRANCH  35  36
ATOM     36  C   UNL     1      -5.735  -4.519   7.696  0.00  0.00    +0.006 C 
ATOM     37  C   UNL     1      -6.117  -5.019   8.845  0.00  0.00    +0.007 C 
ENDBRANCH  35  36
ENDBRANCH  34  35
ENDBRANCH  31  34
ENDBRANCH  12  28
TORSDOF 4
