REMARK  Name = ZINC38740196
REMARK  6 active torsions:
REMARK  status: ('A' for Active; 'I' for Inactive)
REMARK    1  A    between atoms: C_5  and  O_7
REMARK    2  A    between atoms: O_7  and  C_8
REMARK    3  A    between atoms: C_8  and  C_9
REMARK    4  A    between atoms: C_9  and  N_10
REMARK    5  A    between atoms: C_11  and  C_13
REMARK    6  A    between atoms: C_19  and  C_21
REMARK                            x       y       z     vdW  Elec       q    Type
REMARK                         _______ _______ _______ _____ _____    ______ ____
ROOT
ATOM      1  C   UNL     1       1.805  -6.329   2.700  0.00  0.00    +0.087 C 
ATOM      2  C   UNL     1       0.940  -5.963   3.907  0.00  0.00    +0.013 C 
ATOM      3  C   UNL     1       1.655  -6.381   5.193  0.00  0.00    +0.001 C 
ATOM      4  C   UNL     1       1.893  -7.892   5.176  0.00  0.00    +0.001 C 
ATOM      5  C   UNL     1       2.758  -8.258   3.969  0.00  0.00    +0.013 C 
ATOM      6  C   UNL     1       2.043  -7.840   2.683  0.00  0.00    +0.087 C 
ENDROOT
BRANCH   6   7
ATOM      7  C   UNL     1       0.720  -8.556   2.588  0.00  0.00    +0.219 C 
ATOM      8  O   UNL     1      -0.257  -8.099   3.142  0.00  0.00    -0.275 OA
ATOM      9  N   UNL     1       0.624  -9.704   1.888  0.00  0.00    -0.298 N 
ATOM     10  C   UNL     1       1.822 -10.336   1.318  0.00  0.00    +0.126 C 
ATOM     11  C   UNL     1       1.901 -11.781   1.824  0.00  0.00    +0.125 C 
ATOM     12  N   UNL     1       0.595 -12.423   1.617  0.00  0.00    -0.314 N 
ATOM     13  C   UNL     1      -0.603 -11.791   2.186  0.00  0.00    +0.125 C 
ATOM     14  C   UNL     1      -0.681 -10.348   1.685  0.00  0.00    +0.126 C 
ATOM     15  C   UNL     1       0.496 -13.607   0.895  0.00  0.00    +0.099 A 
ATOM     16  C   UNL     1       1.651 -14.253   0.468  0.00  0.00    +0.042 A 
ATOM     17  C   UNL     1       1.537 -15.430  -0.250  0.00  0.00    +0.005 A 
ATOM     18  C   UNL     1       0.267 -15.923  -0.517  0.00  0.00    +0.018 A 
ATOM     19  C   UNL     1      -0.837 -15.230  -0.062  0.00  0.00    +0.084 A 
ATOM     20  N   UNL     1      -0.698 -14.112   0.625  0.00  0.00    -0.350 N 
ATOM     21  H   UNL     1      -1.490 -13.647   0.936  0.00  0.00    +0.166 HD
ENDBRANCH   6   7
BRANCH   1  23
ATOM     22  N   UNL     1       0.786  -4.623   1.227  0.00  0.00    -0.312 N 
ATOM     23  C   UNL     1       1.101  -5.917   1.433  0.00  0.00    +0.217 C 
ATOM     24  O   UNL     1       0.817  -6.750   0.598  0.00  0.00    -0.275 OA
ATOM     25  H   UNL     1       1.013  -3.956   1.894  0.00  0.00    +0.149 HD
BRANCH  22  26
ATOM     26  C   UNL     1       0.102  -4.222  -0.005  0.00  0.00    +0.145 C 
BRANCH  26  27
ATOM     27  C   UNL     1      -0.136  -2.711   0.012  0.00  0.00    +0.248 C 
BRANCH  27  28
ATOM     28  O   UNL     1       1.120  -2.031  -0.016  0.00  0.00    -0.489 OA
BRANCH  28  33
ATOM     29  C   UNL     1      -0.162   1.374   0.041  0.00  0.00    +0.004 A 
ATOM     30  C   UNL     1       1.018   2.094   0.016  0.00  0.00    +0.002 A 
ATOM     31  C   UNL     1       2.232   1.435  -0.020  0.00  0.00    +0.023 A 
ATOM     32  C   UNL     1       2.270   0.053  -0.030  0.00  0.00    +0.083 A 
ATOM     33  C   UNL     1       1.086  -0.672  -0.005  0.00  0.00    +0.139 A 
ATOM     34  C   UNL     1      -0.131  -0.007   0.030  0.00  0.00    +0.047 A 
ATOM     35 CL   UNL     1       3.795  -0.774  -0.076  0.00  0.00    -0.080 Cl
ENDBRANCH  28  33
ENDBRANCH  27  28
ENDBRANCH  26  27
ENDBRANCH  22  26
ENDBRANCH   1  23
TORSDOF 6
