REMARK  Name = ZINC39990261
REMARK  11 active torsions:
REMARK  status: ('A' for Active; 'I' for Inactive)
REMARK    1  A    between atoms: C_1  and  C_2
REMARK    2  A    between atoms: C_2  and  C_3
REMARK    3  A    between atoms: C_3  and  N_4
REMARK    4  A    between atoms: C_5  and  N_29
REMARK    5  A    between atoms: C_6  and  C_14
REMARK    6  A    between atoms: C_7  and  C_13
REMARK    7  A    between atoms: C_8  and  C_11
REMARK    8  A    between atoms: N_18  and  C_22
REMARK    9  A    between atoms: C_22  and  C_23
REMARK   10  A    between atoms: C_31  and  C_38
REMARK   11  A    between atoms: C_34  and  C_37
REMARK                            x       y       z     vdW  Elec       q    Type
REMARK                         _______ _______ _______ _____ _____    ______ ____
ROOT
ATOM      1  N   UNL     1       0.331  -2.180  -1.304  0.00  0.00    -0.295 N 
ATOM      2  C   UNL     1       1.461  -2.713  -0.771  0.00  0.00    +0.112 A 
ATOM      3  C   UNL     1       1.831  -4.037  -1.061  0.00  0.00    +0.019 A 
ATOM      4  C   UNL     1       1.020  -4.811  -1.909  0.00  0.00    -0.017 A 
ATOM      5  C   UNL     1      -0.133  -4.242  -2.442  0.00  0.00    +0.120 A 
ATOM      6  C   UNL     1      -0.464  -2.902  -2.114  0.00  0.00    +0.270 A 
ATOM      7  O   UNL     1      -1.474  -2.400  -2.574  0.00  0.00    -0.266 OA
ATOM      8  C   UNL     1       1.394  -6.234  -2.236  0.00  0.00    +0.046 C 
ENDROOT
BRANCH   3   9
ATOM      9  C   UNL     1       3.050  -4.606  -0.484  0.00  0.00    +0.032 C 
ATOM     10  C   UNL     1       2.968  -5.640   0.397  0.00  0.00    +0.077 C 
ATOM     11  C   UNL     1       4.013  -6.373   1.038  0.00  0.00    +0.258 C 
ATOM     12  O   UNL     1       5.184  -6.109   0.829  0.00  0.00    -0.269 OA
ATOM     13  N   UNL     1       3.672  -7.346   1.864  0.00  0.00    -0.253 N 
ATOM     14  C   UNL     1       2.373  -7.639   2.095  0.00  0.00    +0.121 C 
ATOM     15  S   UNL     1       1.710  -8.844   3.115  0.00  0.00    -0.027 S 
ATOM     16  S   UNL     1       1.523  -6.446   1.074  0.00  0.00    -0.061 S 
BRANCH  13  17
ATOM     17  C   UNL     1       4.717  -8.119   2.539  0.00  0.00    +0.146 C 
BRANCH  17  18
ATOM     18  C   UNL     1       5.066  -7.452   3.871  0.00  0.00    +0.136 C 
ATOM     19  C   UNL     1       6.249  -8.190   4.533  0.00  0.00    +0.035 C 
ATOM     20  C   UNL     1       5.847  -8.178   6.033  0.00  0.00    +0.031 C 
ATOM     21  C   UNL     1       4.306  -8.302   5.926  0.00  0.00    +0.160 C 
ATOM     22  O   UNL     1       3.948  -7.534   4.763  0.00  0.00    -0.375 OA
ENDBRANCH  17  18
ENDBRANCH  13  17
ENDBRANCH   3   9
BRANCH   2  23
ATOM     23  N   UNL     1       2.243  -1.957   0.051  0.00  0.00    -0.311 N 
ATOM     24  C   UNL     1       3.289  -1.077  -0.495  0.00  0.00    +0.137 C 
ATOM     25  C   UNL     1       4.598  -1.362   0.249  0.00  0.00    +0.133 C 
ATOM     26  O   UNL     1       4.368  -1.275   1.657  0.00  0.00    -0.371 OA
ATOM     27  C   UNL     1       3.436  -2.236   2.158  0.00  0.00    +0.133 C 
ATOM     28  C   UNL     1       2.063  -1.992   1.512  0.00  0.00    +0.137 C 
ATOM     29  C   UNL     1       3.318  -2.090   3.677  0.00  0.00    +0.039 C 
ATOM     30  C   UNL     1       5.654  -0.333  -0.162  0.00  0.00    +0.039 C 
ENDBRANCH   2  23
BRANCH   5  31
ATOM     31  C   UNL     1      -0.980  -5.003  -3.310  0.00  0.00    +0.105 C 
ATOM     32  N   UNL     1      -1.651  -5.607  -3.998  0.00  0.00    -0.191 NA
ENDBRANCH   5  31
BRANCH   1  33
ATOM     33  C   UNL     1      -0.031  -0.797  -0.986  0.00  0.00    +0.126 C 
BRANCH  33  35
ATOM     34  C   UNL     1      -1.392   0.661   0.518  0.00  0.00    +0.005 C 
ATOM     35  C   UNL     1      -1.014  -0.784   0.186  0.00  0.00    +0.018 C 
ENDBRANCH  33  35
ENDBRANCH   1  33
TORSDOF 7
