REMARK  Name = ZINC30798692
REMARK  7 active torsions:
REMARK  status: ('A' for Active; 'I' for Inactive)
REMARK    1  A    between atoms: C_1  and  N_2
REMARK    2  A    between atoms: N_2  and  C_3
REMARK    3  A    between atoms: C_3  and  C_4
REMARK    4  A    between atoms: N_6  and  C_7
REMARK    5  A    between atoms: C_15  and  C_17
REMARK    6  A    between atoms: C_20  and  O_27
REMARK    7  A    between atoms: O_27  and  C_28
REMARK                            x       y       z     vdW  Elec       q    Type
REMARK                         _______ _______ _______ _____ _____    ______ ____
ROOT
ATOM      1  C   UNL     1      -4.205   6.669  -0.008  0.00  0.00    +0.133 C 
ATOM      2  N   UNL     1      -3.204   7.739  -0.019  0.00  0.00    -0.291 N 
ATOM      3  C   UNL     1      -1.922   7.466   0.294  0.00  0.00    +0.253 C 
ATOM      4  O   UNL     1      -1.097   8.360   0.313  0.00  0.00    -0.269 OA
ENDROOT
BRANCH   3   5
ATOM      5  C   UNL     1      -1.522   6.091   0.613  0.00  0.00    +0.077 A 
ATOM      6  C   UNL     1      -0.270   5.597   0.813  0.00  0.00    +0.036 A 
ATOM      7  C   UNL     1      -0.095   4.239   1.112  0.00  0.00    +0.070 A 
ATOM      8  C   UNL     1       1.112   3.519   1.357  0.00  0.00    +0.227 A 
ATOM      9  N   UNL     1       1.052   2.228   1.623  0.00  0.00    -0.179 NA
ATOM     10  C   UNL     1      -0.100   1.568   1.673  0.00  0.00    +0.217 A 
ATOM     11  N   UNL     1      -1.255   2.181   1.450  0.00  0.00    -0.207 NA
ATOM     12  C   UNL     1      -1.283   3.470   1.182  0.00  0.00    +0.118 A 
ATOM     13  S   UNL     1      -2.558   4.654   0.835  0.00  0.00    -0.064 S 
ATOM     14  N   UNL     1      -0.094   0.215   1.957  0.00  0.00    -0.327 N 
ATOM     15  H   UNL     1      -1.042  -0.342   2.001  0.00  0.00    +0.145 HD
ATOM     16  H   UNL     1       0.858  -0.304   2.140  0.00  0.00    +0.145 HD
BRANCH   8  17
ATOM     17  O   UNL     1       2.306   4.153   1.315  0.00  0.00    -0.479 OA
ATOM     18  C   UNL     1       3.470   3.363   1.570  0.00  0.00    +0.279 C 
ENDBRANCH   8  17
ENDBRANCH   3   5
BRANCH   2  19
ATOM     19  C   UNL     1      -3.597   9.105  -0.372  0.00  0.00    +0.203 C 
BRANCH  19  20
ATOM     20  C   UNL     1      -3.456   9.301  -1.859  0.00  0.00    +0.235 C 
ATOM     21  O   UNL     1      -3.065   8.389  -2.557  0.00  0.00    -0.274 OA
ATOM     22  N   UNL     1      -3.763  10.490  -2.414  0.00  0.00    -0.284 N 
ATOM     23  H   UNL     1      -4.189  11.293  -1.795  0.00  0.00    +0.155 HD
BRANCH  22  24
ATOM     24  C   UNL     1      -3.540  10.703  -3.780  0.00  0.00    +0.035 A 
ATOM     25  C   UNL     1      -3.144  11.955  -4.233  0.00  0.00    +0.025 A 
ATOM     26  C   UNL     1      -2.918  12.162  -5.579  0.00  0.00    +0.023 A 
ATOM     27  C   UNL     1      -3.098  11.126  -6.479  0.00  0.00    +0.059 A 
ATOM     28  C   UNL     1      -3.499   9.879  -6.032  0.00  0.00    +0.061 A 
ATOM     29  C   UNL     1      -3.720   9.665  -4.684  0.00  0.00    +0.044 A 
ATOM     30 CL   UNL     1      -3.723   8.582  -7.164  0.00  0.00    -0.082 Cl
ATOM     31 CL   UNL     1      -2.821  11.392  -8.172  0.00  0.00    -0.082 Cl
ENDBRANCH  22  24
ENDBRANCH  19  20
ENDBRANCH   2  19
TORSDOF 5
