REMARK  Name = ZINC13078665
REMARK  8 active torsions:
REMARK  status: ('A' for Active; 'I' for Inactive)
REMARK    1  A    between atoms: C_1  and  C_2
REMARK    2  A    between atoms: C_4  and  C_27
REMARK    3  A    between atoms: C_6  and  S_9
REMARK    4  A    between atoms: C_7  and  C_8
REMARK    5  A    between atoms: S_9  and  N_12
REMARK    6  A    between atoms: N_12  and  C_13
REMARK    7  A    between atoms: C_14  and  C_24
REMARK    8  A    between atoms: C_19  and  C_23
REMARK                            x       y       z     vdW  Elec       q    Type
REMARK                         _______ _______ _______ _____ _____    ______ ____
ROOT
ATOM      1  N   UNL     1      -1.141   1.232  -4.957  0.00  0.00    -0.209 N 
ATOM      2  H   UNL     1      -0.630   0.511  -5.355  0.00  0.00    +0.174 HD
ENDROOT
BRANCH   1   3
ATOM      3  C   UNL     1      -0.865   1.645  -3.667  0.00  0.00    +0.098 A 
ATOM      4  C   UNL     1       0.029   1.096  -2.758  0.00  0.00    +0.069 A 
ATOM      5  C   UNL     1       0.131   1.728  -1.452  0.00  0.00    -0.023 A 
ATOM      6  C   UNL     1      -0.670   2.798  -1.266  0.00  0.00    -0.004 A 
ATOM      7  S   UNL     1      -1.551   2.974  -2.792  0.00  0.00    -0.076 S 
ATOM      8  C   UNL     1      -0.779   3.642  -0.034  0.00  0.00    +0.046 C 
ATOM      9  C   UNL     1       0.428   3.343   0.866  0.00  0.00    -0.009 C 
ATOM     10  C   UNL     1       0.594   1.825   0.987  0.00  0.00    +0.008 C 
ATOM     11  C   UNL     1       1.064   1.245  -0.348  0.00  0.00    +0.037 C 
ATOM     12  C   UNL     1       0.196   3.946   2.253  0.00  0.00    +0.008 C 
BRANCH   4  13
ATOM     13  C   UNL     1       0.840  -0.074  -3.101  0.00  0.00    +0.244 C 
ATOM     14  O   UNL     1       0.417  -1.194  -2.878  0.00  0.00    -0.270 OA
ATOM     15  N   UNL     1       2.054   0.088  -3.664  0.00  0.00    -0.325 N 
ATOM     16  H   UNL     1       2.391   0.980  -3.841  0.00  0.00    +0.145 HD
ATOM     17  H   UNL     1       2.591  -0.687  -3.891  0.00  0.00    +0.145 HD
ENDBRANCH   4  13
ENDBRANCH   1   3
BRANCH   1  18
ATOM     18  S   UNL     1      -2.346   1.969  -5.822  0.00  0.00    +0.073 S 
ATOM     19  O   UNL     1      -2.378   1.336  -7.094  0.00  0.00    -0.150 OA
ATOM     20  O   UNL     1      -3.482   2.024  -4.970  0.00  0.00    -0.150 OA
BRANCH  18  26
ATOM     21  C   UNL     1       0.901   5.481  -7.927  0.00  0.00    +0.044 C 
ATOM     22  C   UNL     1      -0.322   5.204  -7.091  0.00  0.00    -0.045 A 
ATOM     23  C   UNL     1      -1.038   6.251  -6.551  0.00  0.00    +0.018 A 
ATOM     24  C   UNL     1      -2.171   5.992  -5.776  0.00  0.00    +0.065 A 
ATOM     25  C   UNL     1      -2.573   4.673  -5.559  0.00  0.00    +0.044 A 
ATOM     26  C   UNL     1      -1.844   3.635  -6.101  0.00  0.00    +0.112 A 
ATOM     27  C   UNL     1      -0.723   3.898  -6.867  0.00  0.00    -0.021 A 
ATOM     28  C   UNL     1       0.066   2.759  -7.460  0.00  0.00    +0.046 C 
BRANCH  24  29
ATOM     29  C   UNL     1      -2.943   7.109  -5.195  0.00  0.00    +0.387 C 
ATOM     30  O   UNL     1      -3.928   6.880  -4.521  0.00  0.00    -0.241 OA
ATOM     31  O   UNL     1      -2.556   8.381  -5.412  0.00  0.00    -0.241 OA
ENDBRANCH  24  29
ENDBRANCH  18  26
ENDBRANCH   1  18
TORSDOF 5
