REMARK  Name = ZINC64002127
REMARK  5 active torsions:
REMARK  status: ('A' for Active; 'I' for Inactive)
REMARK    1  A    between atoms: C_1  and  C_2
REMARK    2  A    between atoms: C_2  and  C_3
REMARK    3  A    between atoms: C_3  and  N_4
REMARK    4  A    between atoms: C_7  and  C_9
REMARK    5  A    between atoms: C_18  and  N_22
REMARK                            x       y       z     vdW  Elec       q    Type
REMARK                         _______ _______ _______ _____ _____    ______ ____
ROOT
ATOM      1  N   UNL     1       0.637  -2.120  -1.376  0.00  0.00    -0.267 N 
ATOM      2  C   UNL     1       1.607  -2.846  -0.797  0.00  0.00    +0.043 A 
ATOM      3  C   UNL     1       1.366  -4.147  -1.096  0.00  0.00    +0.007 A 
ATOM      4  C   UNL     1       0.201  -4.154  -1.880  0.00  0.00    +0.151 A 
ATOM      5  N   UNL     1      -0.182  -2.894  -2.001  0.00  0.00    -0.166 NA
ATOM      6  C   UNL     1       2.221  -5.299  -0.645  0.00  0.00    +0.058 C 
ATOM      7  C   UNL     1       3.571  -4.742  -0.172  0.00  0.00    +0.062 C 
ATOM      8  C   UNL     1       3.333  -3.584   0.801  0.00  0.00    +0.025 C 
ATOM      9  C   UNL     1       2.769  -2.377   0.039  0.00  0.00    +0.057 C 
ENDROOT
BRANCH   7  10
ATOM     10  N   UNL     1       4.329  -5.802   0.504  0.00  0.00    -0.297 NA
ATOM     11  C   UNL     1       4.899  -6.742  -0.466  0.00  0.00    +0.089 C 
ATOM     12  C   UNL     1       5.897  -7.685   0.230  0.00  0.00    +0.049 C 
ATOM     13  C   UNL     1       5.183  -8.235   1.440  0.00  0.00    -0.036 C 
ATOM     14  C   UNL     1       5.024  -9.467   1.899  0.00  0.00    -0.001 A 
ATOM     15  C   UNL     1       5.598 -10.755   1.475  0.00  0.00    +0.010 A 
ATOM     16  C   UNL     1       5.188 -11.851   2.167  0.00  0.00    +0.001 A 
ATOM     17  C   UNL     1       4.274 -11.797   3.224  0.00  0.00    +0.002 A 
ATOM     18  C   UNL     1       3.704 -10.655   3.687  0.00  0.00    +0.026 A 
ATOM     19  C   UNL     1       4.066  -9.435   3.046  0.00  0.00    +0.043 A 
ATOM     20  N   UNL     1       3.701  -8.212   3.300  0.00  0.00    -0.376 N 
ATOM     21  C   UNL     1       4.433  -7.320   2.403  0.00  0.00    +0.120 C 
ATOM     22  C   UNL     1       3.511  -6.457   1.539  0.00  0.00    +0.113 C 
ATOM     23  H   UNL     1       3.054  -7.939   3.969  0.00  0.00    +0.160 HD
ENDBRANCH   7  10
BRANCH   4  24
ATOM     24  C   UNL     1      -0.470  -5.338  -2.454  0.00  0.00    +0.267 C 
ATOM     25  O   UNL     1       0.041  -6.437  -2.348  0.00  0.00    -0.268 OA
ATOM     26  N   UNL     1      -1.648  -5.202  -3.094  0.00  0.00    -0.295 N 
ATOM     27  C   UNL     1      -2.200  -3.864  -3.316  0.00  0.00    +0.119 C 
ATOM     28  C   UNL     1      -2.225  -3.566  -4.819  0.00  0.00    +0.088 C 
ATOM     29  S   UNL     1      -3.196  -4.858  -5.652  0.00  0.00    -0.158 S 
ATOM     30  C   UNL     1      -2.406  -6.396  -5.091  0.00  0.00    +0.088 C 
ATOM     31  C   UNL     1      -2.358  -6.393  -3.563  0.00  0.00    +0.119 C 
ENDBRANCH   4  24
BRANCH   1  32
ATOM     32  C   UNL     1       0.523  -0.661  -1.303  0.00  0.00    +0.143 C 
BRANCH  32  34
ATOM     33  C   UNL     1      -0.434   1.248  -0.005  0.00  0.00    +0.005 C 
ATOM     34  C   UNL     1      -0.315  -0.276  -0.081  0.00  0.00    +0.020 C 
ENDBRANCH  32  34
ENDBRANCH   1  32
TORSDOF 4
