REMARK  Name = ZINC03645495
REMARK  3 active torsions:
REMARK  status: ('A' for Active; 'I' for Inactive)
REMARK    1  A    between atoms: C_4  and  C_8
REMARK    2  A    between atoms: C_8  and  N_9
REMARK    3  A    between atoms: C_12  and  C_20
REMARK                            x       y       z     vdW  Elec       q    Type
REMARK                         _______ _______ _______ _____ _____    ______ ____
ROOT
ATOM      1  N   UNL     1       2.270   3.859  -0.352  0.00  0.00    -0.265 N 
ATOM      2  C   UNL     1       1.019   3.260  -0.228  0.00  0.00    +0.051 A 
ATOM      3  C   UNL     1      -0.120   4.048  -0.272  0.00  0.00    +0.037 A 
ATOM      4  C   UNL     1      -1.382   3.465  -0.141  0.00  0.00    +0.039 A 
ATOM      5  C   UNL     1      -1.502   2.082   0.029  0.00  0.00    +0.014 A 
ATOM      6  C   UNL     1      -0.371   1.298   0.076  0.00  0.00    +0.017 A 
ATOM      7  C   UNL     1       0.884   1.878  -0.054  0.00  0.00    +0.030 A 
ATOM      8  S   UNL     1       2.336   0.874  -0.006  0.00  0.00    -0.114 S 
ATOM      9  C   UNL     1       3.488   1.797  -1.067  0.00  0.00    +0.170 C 
ATOM     10  C   UNL     1       3.397   3.259  -0.726  0.00  0.00    +0.230 C 
ATOM     11  O   UNL     1       4.406   3.928  -0.795  0.00  0.00    -0.274 OA
ENDROOT
BRANCH   4  12
ATOM     12  C   UNL     1      -2.591   4.308  -0.189  0.00  0.00    +0.247 C 
ATOM     13  O   UNL     1      -2.561   5.440   0.255  0.00  0.00    -0.270 OA
ATOM     14  N   UNL     1      -3.729   3.825  -0.724  0.00  0.00    -0.297 N 
ATOM     15  C   UNL     1      -3.750   2.507  -1.374  0.00  0.00    +0.113 C 
ATOM     16  C   UNL     1      -4.321   2.657  -2.783  0.00  0.00    +0.084 C 
ATOM     17  C   UNL     1      -5.685   3.347  -2.707  0.00  0.00    +0.173 C 
ATOM     18  C   UNL     1      -5.530   4.740  -2.093  0.00  0.00    +0.084 C 
ATOM     19  C   UNL     1      -4.972   4.607  -0.672  0.00  0.00    +0.113 C 
ATOM     20  O   UNL     1      -6.242   3.460  -4.022  0.00  0.00    -0.346 OA
ATOM     21  C   UNL     1      -7.498   2.750  -4.017  0.00  0.00    +0.191 C 
ATOM     22  C   UNL     1      -7.871   2.708  -2.514  0.00  0.00    +0.191 C 
ATOM     23  O   UNL     1      -6.572   2.562  -1.892  0.00  0.00    -0.346 OA
ENDBRANCH   4  12
BRANCH   1  24
ATOM     24  C   UNL     1       2.353   5.289  -0.043  0.00  0.00    +0.153 C 
BRANCH  24  28
ATOM     25  C   UNL     1       3.117   5.802   4.130  0.00  0.00    +0.004 A 
ATOM     26  C   UNL     1       1.832   5.546   3.691  0.00  0.00    +0.039 A 
ATOM     27  C   UNL     1       1.582   5.385   2.338  0.00  0.00    +0.129 A 
ATOM     28  C   UNL     1       2.622   5.470   1.428  0.00  0.00    +0.024 A 
ATOM     29  C   UNL     1       3.907   5.727   1.870  0.00  0.00    +0.048 A 
ATOM     30  C   UNL     1       4.154   5.893   3.221  0.00  0.00    +0.020 A 
ATOM     31 CL   UNL     1       5.210   5.841   0.729  0.00  0.00    -0.083 Cl
ATOM     32  F   UNL     1       0.325   5.139   1.908  0.00  0.00    -0.205 F 
ENDBRANCH  24  28
ENDBRANCH   1  24
TORSDOF 3
