REMARK  Name = ZINC29066657
REMARK  8 active torsions:
REMARK  status: ('A' for Active; 'I' for Inactive)
REMARK    1  A    between atoms: C_1  and  C_2
REMARK    2  A    between atoms: C_2  and  C_3
REMARK    3  A    between atoms: C_2  and  N_4
REMARK    4  A    between atoms: C_8  and  N_11
REMARK    5  A    between atoms: C_12  and  C_14
REMARK    6  A    between atoms: C_14  and  N_15
REMARK    7  A    between atoms: C_16  and  C_18
REMARK    8  A    between atoms: C_21  and  C_24
REMARK                            x       y       z     vdW  Elec       q    Type
REMARK                         _______ _______ _______ _____ _____    ______ ____
ROOT
ATOM      1  C   UNL     1      -6.125   1.859  -0.141  0.00  0.00    +0.200 C 
ENDROOT
BRANCH   1   3
ATOM      2  N   UNL     1      -3.660   1.931   0.050  0.00  0.00    -0.283 N 
ATOM      3  C   UNL     1      -4.779   1.187  -0.045  0.00  0.00    +0.234 C 
ATOM      4  O   UNL     1      -4.704  -0.024  -0.052  0.00  0.00    -0.274 OA
ATOM      5  H   UNL     1      -3.732   3.024   0.144  0.00  0.00    +0.155 HD
BRANCH   2  10
ATOM      6  N   UNL     1       1.214  -0.589  -0.119  0.00  0.00    -0.244 N 
ATOM      7  C   UNL     1       0.095   0.182   0.056  0.00  0.00    +0.159 A 
ATOM      8  C   UNL     1      -0.928  -0.418  -0.704  0.00  0.00    +0.040 A 
ATOM      9  C   UNL     1      -2.202   0.162  -0.721  0.00  0.00    +0.038 A 
ATOM     10  C   UNL     1      -2.403   1.311   0.028  0.00  0.00    +0.052 A 
ATOM     11  C   UNL     1      -1.342   1.847   0.755  0.00  0.00    +0.136 A 
ATOM     12  N   UNL     1      -0.153   1.285   0.751  0.00  0.00    -0.234 NA
ATOM     13  C   UNL     1      -0.338  -1.592  -1.338  0.00  0.00    +0.144 A 
ATOM     14  N   UNL     1       0.910  -1.655  -0.971  0.00  0.00    -0.177 NA
BRANCH   6  16
ATOM     15  C   UNL     1       2.918  -1.529   1.362  0.00  0.00    +0.032 C 
ATOM     16  C   UNL     1       2.522  -0.336   0.490  0.00  0.00    +0.103 C 
ATOM     17  C   UNL     1       3.567  -0.139  -0.610  0.00  0.00    +0.032 C 
ENDBRANCH   6  16
ENDBRANCH   2  10
ENDBRANCH   1   3
BRANCH   1  18
ATOM     18  N   UNL     1      -7.174   0.840  -0.233  0.00  0.00    -0.303 N 
ATOM     19  C   UNL     1      -8.466   1.211  -0.329  0.00  0.00    +0.244 C 
ATOM     20  O   UNL     1      -8.761   2.390  -0.338  0.00  0.00    -0.270 OA
ATOM     21  H   UNL     1      -6.907  -0.227  -0.224  0.00  0.00    +0.150 HD
BRANCH  19  22
ATOM     22  C   UNL     1      -9.524   0.184  -0.421  0.00  0.00    +0.037 A 
ATOM     23  C   UNL     1      -9.185  -1.172  -0.416  0.00  0.00    +0.013 A 
ATOM     24  C   UNL     1     -10.172  -2.128  -0.498  0.00  0.00    +0.009 A 
ATOM     25  C   UNL     1     -11.509  -1.744  -0.596  0.00  0.00    -0.018 A 
ATOM     26  C   UNL     1     -11.849  -0.391  -0.607  0.00  0.00    +0.009 A 
ATOM     27  C   UNL     1     -10.864   0.567  -0.520  0.00  0.00    +0.013 A 
BRANCH  25  28
ATOM     28  C   UNL     1     -12.571  -2.775  -0.690  0.00  0.00    -0.018 A 
ATOM     29  C   UNL     1     -13.909  -2.395  -0.783  0.00  0.00    +0.008 A 
ATOM     30  C   UNL     1     -14.893  -3.358  -0.874  0.00  0.00    +0.001 A 
ATOM     31  C   UNL     1     -14.554  -4.699  -0.864  0.00  0.00    +0.000 A 
ATOM     32  C   UNL     1     -13.228  -5.083  -0.766  0.00  0.00    +0.001 A 
ATOM     33  C   UNL     1     -12.236  -4.128  -0.679  0.00  0.00    +0.008 A 
ENDBRANCH  25  28
ENDBRANCH  19  22
ENDBRANCH   1  18
TORSDOF 6
