REMARK  Name = ZINC08928342
REMARK  7 active torsions:
REMARK  status: ('A' for Active; 'I' for Inactive)
REMARK    1  A    between atoms: C_5  and  C_7
REMARK    2  A    between atoms: C_7  and  N_57
REMARK    3  A    between atoms: N_10  and  C_13
REMARK    4  A    between atoms: C_16  and  N_19
REMARK    5  A    between atoms: N_19  and  C_20
REMARK    6  A    between atoms: C_20  and  N_22
REMARK    7  A    between atoms: C_23  and  C_25
REMARK                            x       y       z     vdW  Elec       q    Type
REMARK                         _______ _______ _______ _____ _____    ______ ____
ROOT
ATOM      1  C   UNL     1      -4.628  -0.000   0.174  0.00  0.00    +0.030 A 
ATOM      2  C   UNL     1      -4.741   1.382   0.107  0.00  0.00    +0.025 A 
ATOM      3  C   UNL     1      -3.605   2.165   0.056  0.00  0.00    +0.025 A 
ATOM      4  C   UNL     1      -2.350   1.571   0.073  0.00  0.00    +0.033 A 
ATOM      5  C   UNL     1      -2.238   0.188   0.135  0.00  0.00    +0.025 A 
ATOM      6  C   UNL     1      -3.373  -0.595   0.191  0.00  0.00    +0.025 A 
ENDROOT
BRANCH   1   9
ATOM      7  C   UNL     1      -6.715  -3.056   0.269  0.00  0.00    -0.059 C 
ATOM      8  C   UNL     1      -5.433  -2.221   0.294  0.00  0.00    +0.086 C 
ATOM      9  N   UNL     1      -5.779  -0.794   0.227  0.00  0.00    -0.333 N 
ATOM     10  C   UNL     1      -6.634  -0.409   1.358  0.00  0.00    +0.086 C 
ATOM     11  C   UNL     1      -7.916  -1.244   1.333  0.00  0.00    -0.059 C 
ATOM     12  N   UNL     1      -7.555  -2.675   1.424  0.00  0.00    +0.384 N 
ATOM     13  H   UNL     1      -7.024  -2.830   2.289  0.00  0.00    -0.081 HD
BRANCH  12  14
ATOM     14  C   UNL     1      -8.778  -3.504   1.455  0.00  0.00    -0.040 C 
BRANCH  14  19
ATOM     15  C   UNL     1     -10.029  -3.908   4.994  0.00  0.00    +0.000 A 
ATOM     16  C   UNL     1     -10.834  -2.793   5.133  0.00  0.00    +0.003 A 
ATOM     17  C   UNL     1     -10.975  -1.907   4.082  0.00  0.00    +0.038 A 
ATOM     18  C   UNL     1     -10.309  -2.136   2.890  0.00  0.00    +0.125 A 
ATOM     19  C   UNL     1      -9.503  -3.253   2.752  0.00  0.00    -0.029 A 
ATOM     20  C   UNL     1      -9.368  -4.141   3.803  0.00  0.00    +0.004 A 
ATOM     21  F   UNL     1     -10.447  -1.271   1.861  0.00  0.00    -0.205 F 
ENDBRANCH  14  19
ENDBRANCH  12  14
ENDBRANCH   1   9
BRANCH   4  22
ATOM     22  N   UNL     1      -1.197   2.366   0.021  0.00  0.00    -0.297 N 
ATOM     23  H   UNL     1      -0.470   2.127  -0.575  0.00  0.00    +0.154 HD
BRANCH  22  24
ATOM     24  C   UNL     1      -1.099   3.462   0.798  0.00  0.00    +0.141 C 
ATOM     25  S   UNL     1      -2.425   3.945   1.768  0.00  0.00    -0.018 S 
BRANCH  24  26
ATOM     26  N   UNL     1       0.044   4.176   0.816  0.00  0.00    -0.264 N 
ATOM     27  C   UNL     1       0.144   5.269   1.597  0.00  0.00    +0.251 C 
ATOM     28  O   UNL     1      -0.797   5.612   2.286  0.00  0.00    -0.270 OA
ATOM     29  H   UNL     1       0.795   3.902   0.266  0.00  0.00    +0.157 HD
BRANCH  27  30
ATOM     30  C   UNL     1       1.397   6.051   1.617  0.00  0.00    +0.055 A 
ATOM     31  C   UNL     1       2.482   5.657   0.831  0.00  0.00    +0.014 A 
ATOM     32  C   UNL     1       3.647   6.394   0.851  0.00  0.00    +0.001 A 
ATOM     33  C   UNL     1       3.747   7.516   1.654  0.00  0.00    +0.001 A 
ATOM     34  C   UNL     1       2.679   7.911   2.439  0.00  0.00    +0.021 A 
ATOM     35  C   UNL     1       1.504   7.185   2.426  0.00  0.00    +0.053 A 
ATOM     36 CL   UNL     1       0.164   7.681   3.412  0.00  0.00    -0.083 Cl
ENDBRANCH  27  30
ENDBRANCH  24  26
ENDBRANCH  22  24
ENDBRANCH   4  22
TORSDOF 7
