REMARK  Name = ZINC35894602
REMARK  4 active torsions:
REMARK  status: ('A' for Active; 'I' for Inactive)
REMARK    1  A    between atoms: C_1  and  C_2
REMARK    2  A    between atoms: C_7  and  C_10
REMARK    3  A    between atoms: C_11  and  C_13
REMARK    4  A    between atoms: C_18  and  N_35
REMARK                            x       y       z     vdW  Elec       q    Type
REMARK                         _______ _______ _______ _____ _____    ______ ____
ROOT
ATOM      1  C   UNL     1      -1.597  -4.887   0.421  0.00  0.00    +0.101 C 
ATOM      2  C   UNL     1      -0.113  -5.232   0.309  0.00  0.00    +0.051 C 
ATOM      3  C   UNL     1       0.364  -4.870  -1.075  0.00  0.00    -0.023 A 
ATOM      4  C   UNL     1       1.684  -4.508  -1.268  0.00  0.00    +0.038 A 
ATOM      5  C   UNL     1       2.128  -4.164  -2.531  0.00  0.00    +0.127 A 
ATOM      6  C   UNL     1       1.254  -4.182  -3.603  0.00  0.00    +0.034 A 
ATOM      7  C   UNL     1      -0.063  -4.548  -3.415  0.00  0.00    +0.025 A 
ATOM      8  C   UNL     1      -0.512  -4.899  -2.144  0.00  0.00    +0.033 A 
ATOM      9  N   UNL     1      -1.853  -5.292  -1.990  0.00  0.00    -0.323 N 
ATOM     10  C   UNL     1      -2.385  -5.607  -0.678  0.00  0.00    +0.103 C 
ATOM     11  C   UNL     1      -3.854  -5.253  -0.524  0.00  0.00    +0.129 C 
ATOM     12  N   UNL     1      -4.604  -5.395  -1.756  0.00  0.00    -0.313 N 
ATOM     13  C   UNL     1      -4.075  -4.982  -3.046  0.00  0.00    +0.125 C 
ATOM     14  C   UNL     1      -2.640  -5.416  -3.216  0.00  0.00    +0.124 C 
ATOM     15  C   UNL     1      -5.878  -5.947  -1.703  0.00  0.00    +0.099 A 
ATOM     16  C   UNL     1      -6.565  -6.212  -2.884  0.00  0.00    +0.042 A 
ATOM     17  C   UNL     1      -7.832  -6.762  -2.816  0.00  0.00    +0.005 A 
ATOM     18  C   UNL     1      -8.373  -7.029  -1.565  0.00  0.00    +0.018 A 
ATOM     19  C   UNL     1      -7.635  -6.741  -0.434  0.00  0.00    +0.084 A 
ATOM     20  N   UNL     1      -6.426  -6.222  -0.529  0.00  0.00    -0.350 N 
ATOM     21  H   UNL     1      -5.927  -6.032   0.281  0.00  0.00    +0.166 HD
ENDROOT
BRANCH   1  30
ATOM     22  C   UNL     1      -0.912  -2.827   5.005  0.00  0.00    +0.039 C 
ATOM     23  C   UNL     1      -1.588  -2.445   3.687  0.00  0.00    +0.133 C 
ATOM     24  C   UNL     1      -0.839  -3.099   2.520  0.00  0.00    +0.139 C 
ATOM     25  N   UNL     1      -1.388  -2.570   1.261  0.00  0.00    -0.296 N 
ATOM     26  C   UNL     1      -1.500  -1.110   1.115  0.00  0.00    +0.139 C 
ATOM     27  C   UNL     1      -2.217  -0.554   2.350  0.00  0.00    +0.133 C 
ATOM     28  O   UNL     1      -1.560  -1.025   3.529  0.00  0.00    -0.371 OA
ATOM     29  C   UNL     1      -3.672  -1.026   2.353  0.00  0.00    +0.039 C 
ATOM     30  C   UNL     1      -1.777  -3.398   0.272  0.00  0.00    +0.221 C 
ATOM     31  O   UNL     1      -2.272  -2.946  -0.738  0.00  0.00    -0.275 OA
ENDBRANCH   1  30
BRANCH   5  32
ATOM     32  N   UNL     1       3.542  -3.777  -2.738  0.00  0.00    +0.056 N 
ATOM     33  O   UNL     1       4.307  -3.761  -1.802  0.00  0.00    -0.126 OA
ATOM     34  O   UNL     1       3.932  -3.476  -3.842  0.00  0.00    -0.126 OA
ENDBRANCH   5  32
TORSDOF 2
