REMARK  Name = ZINC10208454
REMARK  9 active torsions:
REMARK  status: ('A' for Active; 'I' for Inactive)
REMARK    1  A    between atoms: C_1  and  C_2
REMARK    2  A    between atoms: C_2  and  N_48
REMARK    3  A    between atoms: C_3  and  C_4
REMARK    4  A    between atoms: C_3  and  N_48
REMARK    5  A    between atoms: C_6  and  C_9
REMARK    6  A    between atoms: C_13  and  C_15
REMARK    7  A    between atoms: C_19  and  C_20
REMARK    8  A    between atoms: C_19  and  N_48
REMARK    9  A    between atoms: N_22  and  C_23
REMARK                            x       y       z     vdW  Elec       q    Type
REMARK                         _______ _______ _______ _____ _____    ______ ____
ROOT
ATOM      1  N   UNL     1      -1.135  10.598   1.284  0.00  0.00    +0.391 N 
ATOM      2  H   UNL     1      -0.944   9.967   2.071  0.00  0.00    -0.080 HD
ENDROOT
BRANCH   1   4
ATOM      3  C   UNL     1      -0.445  12.701   0.183  0.00  0.00    -0.017 C 
ATOM      4  C   UNL     1      -0.220  11.756   1.365  0.00  0.00    -0.081 C 
ENDBRANCH   1   4
BRANCH   1   5
ATOM      5  C   UNL     1      -0.914   9.867   0.019  0.00  0.00    +0.022 C 
BRANCH   5   6
ATOM      6  C   UNL     1       0.449   9.226   0.059  0.00  0.00    +0.211 A 
ATOM      7  N   UNL     1       0.734   8.032   0.517  0.00  0.00    -0.193 NA
ATOM      8  C   UNL     1       2.069   7.890   0.355  0.00  0.00    +0.202 A 
ATOM      9  N   UNL     1       2.510   8.991  -0.195  0.00  0.00    -0.056 NA
ATOM     10  O   UNL     1       1.594   9.766  -0.370  0.00  0.00    -0.340 OA
BRANCH   8  11
ATOM     11  C   UNL     1       2.880   6.703   0.725  0.00  0.00    +0.023 A 
ATOM     12  C   UNL     1       2.271   5.594   1.308  0.00  0.00    +0.012 A 
ATOM     13  C   UNL     1       3.029   4.491   1.646  0.00  0.00    +0.001 A 
ATOM     14  C   UNL     1       4.393   4.491   1.417  0.00  0.00    +0.012 A 
ATOM     15  C   UNL     1       5.003   5.589   0.840  0.00  0.00    +0.055 A 
ATOM     16  C   UNL     1       4.253   6.695   0.493  0.00  0.00    +0.024 A 
BRANCH  15  17
ATOM     17  C   UNL     1       6.489   5.579   0.588  0.00  0.00    +0.417 C 
ATOM     18  F   UNL     1       7.026   4.361   1.019  0.00  0.00    -0.166 F 
ATOM     19  F   UNL     1       6.731   5.737  -0.781  0.00  0.00    -0.166 F 
ATOM     20  F   UNL     1       7.089   6.628   1.292  0.00  0.00    -0.166 F 
ENDBRANCH  15  17
ENDBRANCH   8  11
ENDBRANCH   5   6
ENDBRANCH   1   5
BRANCH   1  21
ATOM     21  C   UNL     1      -2.538  11.056   1.365  0.00  0.00    +0.020 C 
BRANCH  21  22
ATOM     22  C   UNL     1      -2.833  11.463   2.785  0.00  0.00    +0.201 C 
ATOM     23  O   UNL     1      -2.004  11.285   3.652  0.00  0.00    -0.278 OA
ATOM     24  N   UNL     1      -4.020  12.024   3.093  0.00  0.00    -0.285 N 
ATOM     25  H   UNL     1      -4.711  12.097   2.417  0.00  0.00    +0.155 HD
BRANCH  24  26
ATOM     26  C   UNL     1      -4.253  12.502   4.388  0.00  0.00    +0.070 A 
ATOM     27  C   UNL     1      -3.975  11.700   5.487  0.00  0.00    +0.064 A 
ATOM     28  C   UNL     1      -4.203  12.177   6.764  0.00  0.00    +0.022 A 
ATOM     29  C   UNL     1      -4.716  13.448   6.948  0.00  0.00    +0.003 A 
ATOM     30  C   UNL     1      -4.999  14.247   5.856  0.00  0.00    +0.022 A 
ATOM     31  C   UNL     1      -4.769  13.779   4.576  0.00  0.00    +0.064 A 
ATOM     32 CL   UNL     1      -5.125  14.783   3.206  0.00  0.00    -0.082 Cl
ATOM     33 CL   UNL     1      -3.337  10.102   5.257  0.00  0.00    -0.082 Cl
ENDBRANCH  24  26
ENDBRANCH  21  22
ENDBRANCH   1  21
TORSDOF 8
