REMARK  Name = ZINC06602617
REMARK  13 active torsions:
REMARK  status: ('A' for Active; 'I' for Inactive)
REMARK    1  A    between atoms: C_1  and  C_2
REMARK    2  A    between atoms: C_3  and  C_17
REMARK    3  A    between atoms: C_4  and  N_10
REMARK    4  A    between atoms: C_6  and  C_7
REMARK    5  A    between atoms: C_11  and  C_13
REMARK    6  A    between atoms: C_13  and  N_42
REMARK    7  A    between atoms: C_14  and  C_15
REMARK    8  A    between atoms: C_14  and  N_42
REMARK    9  A    between atoms: C_17  and  O_19
REMARK   10  A    between atoms: O_19  and  C_20
REMARK   11  A    between atoms: C_20  and  C_21
REMARK   12  A    between atoms: C_21  and  O_22
REMARK   13  A    between atoms: O_22  and  C_23
REMARK                            x       y       z     vdW  Elec       q    Type
REMARK                         _______ _______ _______ _____ _____    ______ ____
ROOT
ATOM      1  C   UNL     1      -4.003   2.837   0.038  0.00  0.00    +0.046 C 
ATOM      2  C   UNL     1      -3.726   1.355   0.027  0.00  0.00    -0.015 A 
ATOM      3  C   UNL     1      -4.761   0.432   0.026  0.00  0.00    +0.091 A 
ATOM      4  C   UNL     1      -4.422  -0.925   0.017  0.00  0.00    +0.087 A 
ATOM      5  S   UNL     1      -2.689  -0.891   0.002  0.00  0.00    -0.068 S 
ATOM      6  C   UNL     1      -2.445   0.874   0.018  0.00  0.00    +0.079 A 
ENDROOT
BRANCH   6   7
ATOM      7  C   UNL     1      -1.187   1.624   0.017  0.00  0.00    +0.248 C 
ATOM      8  O   UNL     1      -1.204   2.841   0.023  0.00  0.00    -0.270 OA
ATOM      9  N   UNL     1      -0.011   0.966   0.007  0.00  0.00    -0.325 N 
ATOM     10  H   UNL     1       0.002  -0.004   0.002  0.00  0.00    +0.145 HD
ATOM     11  H   UNL     1       0.822   1.462   0.002  0.00  0.00    +0.145 HD
ENDBRANCH   6   7
BRANCH   4  12
ATOM     12  N   UNL     1      -5.262  -2.022   0.014  0.00  0.00    -0.281 N 
ATOM     13  C   UNL     1      -4.745  -3.267   0.004  0.00  0.00    +0.201 C 
ATOM     14  O   UNL     1      -3.542  -3.423  -0.003  0.00  0.00    -0.278 OA
ATOM     15  H   UNL     1      -6.224  -1.897   0.019  0.00  0.00    +0.155 HD
BRANCH  13  16
ATOM     16  C   UNL     1      -5.661  -4.463   0.001  0.00  0.00    +0.016 C 
BRANCH  16  17
ATOM     17  N   UNL     1      -4.848  -5.694  -0.010  0.00  0.00    +0.392 N 
ATOM     18  H   UNL     1      -4.252  -5.714   0.825  0.00  0.00    -0.084 HD
ATOM     19  H   UNL     1      -4.259  -5.704  -0.851  0.00  0.00    -0.084 HD
BRANCH  17  20
ATOM     20  C   UNL     1      -5.720  -6.884  -0.013  0.00  0.00    +0.009 C 
BRANCH  20  21
ATOM     21  C   UNL     1      -4.884  -8.095  -0.025  0.00  0.00    -0.125 C 
ATOM     22  C   UNL     1      -4.217  -9.061  -0.033  0.00  0.00    +0.002 C 
ENDBRANCH  20  21
ENDBRANCH  17  20
ENDBRANCH  16  17
ENDBRANCH  13  16
ENDBRANCH   4  12
BRANCH   3  23
ATOM     23  C   UNL     1      -6.163   0.864   0.036  0.00  0.00    +0.342 C 
ATOM     24  O   UNL     1      -6.749   1.050  -1.014  0.00  0.00    -0.245 OA
BRANCH  23  25
ATOM     25  O   UNL     1      -6.802   1.055   1.208  0.00  0.00    -0.459 OA
BRANCH  25  26
ATOM     26  C   UNL     1      -8.188   1.482   1.141  0.00  0.00    +0.260 C 
BRANCH  26  27
ATOM     27  C   UNL     1      -8.740   1.645   2.558  0.00  0.00    +0.200 C 
BRANCH  27  28
ATOM     28  O   UNL     1      -8.049   2.707   3.220  0.00  0.00    -0.380 OA
ATOM     29  C   UNL     1      -8.491   2.943   4.558  0.00  0.00    +0.194 C 
ENDBRANCH  27  28
ENDBRANCH  26  27
ENDBRANCH  25  26
ENDBRANCH  23  25
ENDBRANCH   3  23
TORSDOF 11
