REMARK  Name = ZINC40131839
REMARK  8 active torsions:
REMARK  status: ('A' for Active; 'I' for Inactive)
REMARK    1  A    between atoms: C_1  and  C_2
REMARK    2  A    between atoms: C_4  and  O_9
REMARK    3  A    between atoms: O_9  and  C_10
REMARK    4  A    between atoms: C_10  and  C_12
REMARK    5  A    between atoms: C_10  and  C_13
REMARK    6  A    between atoms: C_13  and  O_15
REMARK    7  A    between atoms: O_15  and  C_16
REMARK    8  A    between atoms: C_19  and  C_22
REMARK                            x       y       z     vdW  Elec       q    Type
REMARK                         _______ _______ _______ _____ _____    ______ ____
ROOT
ATOM      1  C   UNL     1       1.539  -6.055  -5.074  0.00  0.00    +0.132 A 
ATOM      2  C   UNL     1       1.828  -5.024  -5.960  0.00  0.00    +0.047 A 
ATOM      3  C   UNL     1       2.549  -5.277  -7.104  0.00  0.00    +0.011 A 
ATOM      4  C   UNL     1       2.993  -6.578  -7.376  0.00  0.00    -0.021 A 
ATOM      5  C   UNL     1       2.698  -7.614  -6.479  0.00  0.00    +0.011 A 
ATOM      6  C   UNL     1       1.981  -7.347  -5.335  0.00  0.00    +0.047 A 
ENDROOT
BRANCH   4   7
ATOM      7  C   UNL     1       3.762  -6.855  -8.595  0.00  0.00    +0.058 C 
ATOM      8  C   UNL     1       4.173  -5.830  -9.386  0.00  0.00    +0.176 C 
ATOM      9  C   UNL     1       4.812  -5.952 -10.703  0.00  0.00    +0.231 C 
ATOM     10  O   UNL     1       5.082  -6.974 -11.310  0.00  0.00    -0.283 OA
ATOM     11  C   UNL     1       5.053  -4.559 -11.127  0.00  0.00    +0.069 A 
ATOM     12  C   UNL     1       5.623  -3.994 -12.267  0.00  0.00    +0.030 A 
ATOM     13  C   UNL     1       5.711  -2.622 -12.378  0.00  0.00    +0.019 A 
ATOM     14  C   UNL     1       5.235  -1.811 -11.359  0.00  0.00    +0.019 A 
ATOM     15  C   UNL     1       4.670  -2.360 -10.227  0.00  0.00    +0.048 A 
ATOM     16  C   UNL     1       4.571  -3.742 -10.095  0.00  0.00    +0.140 A 
ATOM     17  O   UNL     1       4.063  -4.510  -9.106  0.00  0.00    -0.451 OA
ATOM     18 BR   UNL     1       6.482  -1.847 -13.921  0.00  0.00    -0.050 Br
ENDBRANCH   4   7
BRANCH   1  19
ATOM     19  O   UNL     1       0.826  -5.799  -3.947  0.00  0.00    -0.423 OA
BRANCH  19  20
ATOM     20  C   UNL     1      -0.460  -5.438  -4.082  0.00  0.00    +0.353 C 
ATOM     21  O   UNL     1      -0.977  -5.441  -5.174  0.00  0.00    -0.246 OA
BRANCH  20  22
ATOM     22  C   UNL     1      -1.259  -5.029  -2.872  0.00  0.00    +0.279 C 
ATOM     23  C   UNL     1      -1.304  -6.188  -1.874  0.00  0.00    +0.064 C 
BRANCH  22  24
ATOM     24  O   UNL     1      -2.589  -4.692  -3.271  0.00  0.00    -0.478 OA
BRANCH  24  28
ATOM     25  C   UNL     1      -2.608  -1.618   0.520  0.00  0.00    +0.045 C 
ATOM     26  C   UNL     1      -3.261  -2.200  -0.707  0.00  0.00    -0.029 A 
ATOM     27  C   UNL     1      -2.618  -3.187  -1.429  0.00  0.00    +0.050 A 
ATOM     28  C   UNL     1      -3.220  -3.722  -2.559  0.00  0.00    +0.122 A 
ATOM     29  C   UNL     1      -4.467  -3.264  -2.961  0.00  0.00    +0.047 A 
ATOM     30  C   UNL     1      -5.106  -2.278  -2.236  0.00  0.00    +0.024 A 
ATOM     31  C   UNL     1      -4.507  -1.749  -1.106  0.00  0.00    +0.044 A 
ATOM     32 CL   UNL     1      -5.315  -0.514  -0.193  0.00  0.00    -0.083 Cl
ENDBRANCH  24  28
ENDBRANCH  22  24
ENDBRANCH  20  22
ENDBRANCH  19  20
ENDBRANCH   1  19
TORSDOF 6
