REMARK  Name = ZINC14011196
REMARK  9 active torsions:
REMARK  status: ('A' for Active; 'I' for Inactive)
REMARK    1  A    between atoms: C_1  and  C_2
REMARK    2  A    between atoms: C_2  and  O_3
REMARK    3  A    between atoms: O_3  and  C_4
REMARK    4  A    between atoms: C_5  and  O_29
REMARK    5  A    between atoms: C_7  and  C_11
REMARK    6  A    between atoms: N_18  and  C_21
REMARK    7  A    between atoms: C_23  and  C_28
REMARK    8  A    between atoms: C_25  and  C_27
REMARK    9  A    between atoms: O_29  and  C_30
REMARK                            x       y       z     vdW  Elec       q    Type
REMARK                         _______ _______ _______ _____ _____    ______ ____
ROOT
ATOM      1  C   UNL     1      -2.416   8.091  -0.135  0.00  0.00    +0.026 C 
ATOM      2  C   UNL     1      -1.308   7.337  -0.471  0.00  0.00    +0.100 C 
ATOM      3  C   UNL     1      -0.134   7.943  -1.130  0.00  0.00    +0.257 C 
ATOM      4  O   UNL     1      -0.110   9.130  -1.397  0.00  0.00    -0.270 OA
ATOM      5  N   UNL     1       0.912   7.145  -1.429  0.00  0.00    -0.235 N 
ATOM      6  C   UNL     1       0.901   5.837  -1.136  0.00  0.00    +0.320 C 
ATOM      7  O   UNL     1       1.878   5.175  -1.427  0.00  0.00    -0.251 OA
ATOM      8  N   UNL     1      -0.131   5.218  -0.545  0.00  0.00    -0.190 N 
ATOM      9  C   UNL     1      -1.245   5.890  -0.188  0.00  0.00    +0.263 C 
ATOM     10  O   UNL     1      -2.173   5.318   0.353  0.00  0.00    -0.269 OA
ATOM     11  H   UNL     1       1.691   7.527  -1.862  0.00  0.00    +0.159 HD
ENDROOT
BRANCH   8  12
ATOM     12  C   UNL     1      -0.047   3.844  -0.286  0.00  0.00    +0.046 A 
ATOM     13  C   UNL     1      -0.013   2.939  -1.338  0.00  0.00    +0.027 A 
ATOM     14  C   UNL     1       0.070   1.584  -1.080  0.00  0.00    -0.048 A 
ATOM     15  C   UNL     1       0.118   1.129   0.225  0.00  0.00    +0.006 A 
ATOM     16  C   UNL     1       0.079   2.028   1.275  0.00  0.00    -0.048 A 
ATOM     17  C   UNL     1       0.001   3.384   1.023  0.00  0.00    +0.027 A 
ATOM     18  C   UNL     1       0.125   1.528   2.696  0.00  0.00    +0.044 C 
ATOM     19  C   UNL     1       0.108   0.601  -2.221  0.00  0.00    +0.044 C 
ENDBRANCH   8  12
BRANCH   1  23
ATOM     20  C   UNL     1      -2.274  12.318  -0.418  0.00  0.00    +0.175 A 
ATOM     21  C   UNL     1      -1.216  11.626   0.176  0.00  0.00    +0.163 A 
ATOM     22  C   UNL     1      -1.260  10.251   0.276  0.00  0.00    +0.057 A 
ATOM     23  C   UNL     1      -2.365   9.549  -0.232  0.00  0.00    -0.019 A 
ATOM     24  C   UNL     1      -3.423  10.252  -0.827  0.00  0.00    +0.026 A 
ATOM     25  C   UNL     1      -3.371  11.625  -0.916  0.00  0.00    +0.059 A 
ATOM     26  I   UNL     1      -4.952  12.674  -1.805  0.00  0.00    -0.040 I 
BRANCH  21  27
ATOM     27  O   UNL     1      -0.145  12.308   0.662  0.00  0.00    -0.491 OA
ATOM     28  C   UNL     1       0.900  11.537   1.256  0.00  0.00    +0.277 C 
ENDBRANCH  21  27
BRANCH  20  29
ATOM     29  O   UNL     1      -2.229  13.671  -0.509  0.00  0.00    -0.488 OA
BRANCH  29  31
ATOM     30  C   UNL     1      -2.643  15.911   0.300  0.00  0.00    +0.048 C 
ATOM     31  C   UNL     1      -2.783  14.413   0.580  0.00  0.00    +0.226 C 
ENDBRANCH  29  31
ENDBRANCH  20  29
ENDBRANCH   1  23
TORSDOF 5
