REMARK  Name = ZINC67195871
REMARK  12 active torsions:
REMARK  status: ('A' for Active; 'I' for Inactive)
REMARK    1  A    between atoms: C_1  and  C_2
REMARK    2  A    between atoms: C_2  and  C_3
REMARK    3  A    between atoms: C_3  and  C_5
REMARK    4  A    between atoms: C_3  and  C_6
REMARK    5  A    between atoms: C_6  and  C_8
REMARK    6  A    between atoms: C_6  and  N_24
REMARK    7  A    between atoms: N_10  and  N_11
REMARK    8  A    between atoms: N_11  and  C_12
REMARK    9  A    between atoms: C_12  and  N_14
REMARK   10  A    between atoms: N_14  and  C_15
REMARK   11  A    between atoms: C_18  and  O_22
REMARK   12  A    between atoms: O_22  and  C_23
REMARK                            x       y       z     vdW  Elec       q    Type
REMARK                         _______ _______ _______ _____ _____    ______ ____
ROOT
ATOM      1  C   UNL     1       2.968  -1.324  -2.725  0.00  0.00    +0.250 C 
ATOM      2  O   UNL     1       3.641  -0.699  -3.516  0.00  0.00    -0.272 OA
ATOM      3  N   UNL     1       2.758  -2.642  -2.912  0.00  0.00    -0.234 N 
ATOM      4  H   UNL     1       2.161  -3.127  -2.320  0.00  0.00    +0.173 HD
ENDROOT
BRANCH   3   5
ATOM      5  N   UNL     1       3.403  -3.312  -3.959  0.00  0.00    -0.246 N 
ATOM      6  H   UNL     1       4.000  -2.827  -4.551  0.00  0.00    +0.172 HD
BRANCH   5   7
ATOM      7  C   UNL     1       3.193  -4.630  -4.146  0.00  0.00    +0.151 C 
ATOM      8  S   UNL     1       3.981  -5.449  -5.427  0.00  0.00    -0.017 S 
BRANCH   7   9
ATOM      9  N   UNL     1       2.364  -5.304  -3.325  0.00  0.00    -0.296 N 
ATOM     10  H   UNL     1       1.872  -4.829  -2.637  0.00  0.00    +0.154 HD
BRANCH   9  11
ATOM     11  C   UNL     1       2.213  -6.690  -3.464  0.00  0.00    +0.036 A 
ATOM     12  C   UNL     1       2.229  -7.506  -2.341  0.00  0.00    +0.027 A 
ATOM     13  C   UNL     1       2.080  -8.873  -2.478  0.00  0.00    +0.050 A 
ATOM     14  C   UNL     1       1.915  -9.430  -3.737  0.00  0.00    +0.155 A 
ATOM     15  C   UNL     1       1.899  -8.615  -4.861  0.00  0.00    +0.167 A 
ATOM     16  C   UNL     1       2.042  -7.246  -4.724  0.00  0.00    +0.065 A 
ATOM     17  F   UNL     1       1.738  -9.158  -6.088  0.00  0.00    -0.202 F 
BRANCH  14  18
ATOM     18  O   UNL     1       1.769 -10.776  -3.871  0.00  0.00    -0.492 OA
ATOM     19  C   UNL     1       1.796 -11.554  -2.672  0.00  0.00    +0.277 C 
ENDBRANCH  14  18
ENDBRANCH   9  11
ENDBRANCH   7   9
ENDBRANCH   5   7
ENDBRANCH   3   5
BRANCH   1  20
ATOM     20  C   UNL     1       2.365  -0.627  -1.532  0.00  0.00    +0.165 C 
BRANCH  20  21
ATOM     21  N   UNL     1       2.728   0.792  -1.562  0.00  0.00    -0.288 N 
ATOM     22  C   UNL     1       2.902   1.467  -0.408  0.00  0.00    +0.298 C 
ATOM     23  O   UNL     1       2.851   0.878   0.654  0.00  0.00    -0.253 OA
ATOM     24  N   UNL     1       3.132   2.795  -0.432  0.00  0.00    -0.313 N 
ATOM     25  H   UNL     1       2.843   1.246  -2.411  0.00  0.00    +0.151 HD
ATOM     26  H   UNL     1       3.173   3.265  -1.280  0.00  0.00    +0.146 HD
ATOM     27  H   UNL     1       3.257   3.281   0.398  0.00  0.00    +0.146 HD
ENDBRANCH  20  21
BRANCH  20  28
ATOM     28  C   UNL     1       0.842  -0.764  -1.577  0.00  0.00    +0.015 C 
ATOM     29  C   UNL     1       0.241  -0.205  -0.286  0.00  0.00    +0.010 C 
BRANCH  28  31
ATOM     30  C   UNL     1       0.736  -0.664  -4.071  0.00  0.00    +0.004 C 
ATOM     31  C   UNL     1       0.294   0.016  -2.774  0.00  0.00    +0.002 C 
ENDBRANCH  28  31
ENDBRANCH  20  28
ENDBRANCH   1  20
TORSDOF 9
