REMARK  Name = ZINC40546036
REMARK  6 active torsions:
REMARK  status: ('A' for Active; 'I' for Inactive)
REMARK    1  A    between atoms: C_1  and  C_2
REMARK    2  A    between atoms: C_5  and  C_9
REMARK    3  A    between atoms: C_9  and  C_11
REMARK    4  A    between atoms: C_15  and  C_21
REMARK    5  A    between atoms: C_21  and  C_22
REMARK    6  A    between atoms: C_21  and  C_23
REMARK                            x       y       z     vdW  Elec       q    Type
REMARK                         _______ _______ _______ _____ _____    ______ ____
ROOT
ATOM      1  C   UNL     1      -0.018   1.503   0.010  0.00  0.00    +0.086 C 
ATOM      2  C   UNL     1       0.002  -0.004   0.002  0.00  0.00    +0.107 C 
ATOM      3  C   UNL     1      -1.139  -0.642   0.004  0.00  0.00    +0.083 C 
ATOM      4  C   UNL     1      -1.240  -2.140  -0.020  0.00  0.00    +0.219 C 
ATOM      5  C   UNL     1       0.088  -2.763   0.421  0.00  0.00    +0.230 C 
ATOM      6  C   UNL     1       1.202  -1.965  -0.232  0.00  0.00    +0.328 C 
ATOM      7  O   UNL     1       1.202  -0.632  -0.013  0.00  0.00    -0.430 OA
ATOM      8  O   UNL     1       2.045  -2.494  -0.917  0.00  0.00    -0.249 OA
ATOM      9  N   UNL     1      -1.585  -2.604  -1.368  0.00  0.00    -0.300 N 
ATOM     10  C   UNL     1      -2.803  -3.289  -1.244  0.00  0.00    +0.074 A 
ATOM     11  C   UNL     1      -3.587  -3.933  -2.192  0.00  0.00    +0.030 A 
ATOM     12  C   UNL     1      -4.766  -4.546  -1.815  0.00  0.00    -0.042 A 
ATOM     13  C   UNL     1      -5.167  -4.519  -0.492  0.00  0.00    +0.023 A 
ATOM     14  C   UNL     1      -4.391  -3.881   0.457  0.00  0.00    +0.062 A 
ATOM     15  C   UNL     1      -3.204  -3.261   0.087  0.00  0.00    +0.158 A 
ATOM     16  O   UNL     1      -2.294  -2.581   0.837  0.00  0.00    -0.461 OA
ATOM     17 BR   UNL     1      -4.947  -3.850   2.264  0.00  0.00    -0.046 Br
ATOM     18  H   UNL     1      -1.074  -2.465  -2.180  0.00  0.00    +0.150 HD
ENDROOT
BRANCH   5  19
ATOM     19  C   UNL     1       0.216  -2.689   1.921  0.00  0.00    +0.150 C 
ATOM     20  O   UNL     1      -0.380  -1.839   2.537  0.00  0.00    -0.297 OA
ATOM     21  C   UNL     1       1.089  -3.677   2.652  0.00  0.00    +0.087 C 
ENDBRANCH   5  19
BRANCH  12  22
ATOM     22  C   UNL     1      -5.615  -5.245  -2.845  0.00  0.00    +0.013 C 
ATOM     23  C   UNL     1      -5.758  -6.722  -2.473  0.00  0.00    +0.012 C 
ATOM     24  C   UNL     1      -6.999  -4.594  -2.891  0.00  0.00    +0.012 C 
ENDBRANCH  12  22
TORSDOF 2
