REMARK  Name = ZINC64136971
REMARK  9 active torsions:
REMARK  status: ('A' for Active; 'I' for Inactive)
REMARK    1  A    between atoms: C_1  and  N_2
REMARK    2  A    between atoms: C_15  and  C_17
REMARK    3  A    between atoms: C_19  and  O_37
REMARK    4  A    between atoms: C_21  and  O_36
REMARK    5  A    between atoms: N_23  and  C_26
REMARK    6  A    between atoms: C_28  and  O_34
REMARK    7  A    between atoms: C_31  and  O_32
REMARK    8  A    between atoms: O_32  and  C_33
REMARK    9  A    between atoms: O_34  and  C_35
REMARK                            x       y       z     vdW  Elec       q    Type
REMARK                         _______ _______ _______ _____ _____    ______ ____
ROOT
ATOM      1  C   UNL     1       0.134  -0.029   2.420  0.00  0.00    +0.180 C 
ATOM      2  C   UNL     1      -1.279  -0.503   2.593  0.00  0.00    +0.200 C 
ATOM      3  N   UNL     1      -2.292   0.212   2.292  0.00  0.00    -0.204 NA
ATOM      4  C   UNL     1      -2.209   1.557   1.746  0.00  0.00    +0.339 C 
ATOM      5  N   UNL     1      -0.920   2.179   2.012  0.00  0.00    -0.222 N 
ATOM      6  C   UNL     1       0.171   1.469   2.313  0.00  0.00    +0.237 C 
ATOM      7  O   UNL     1       1.217   2.051   2.505  0.00  0.00    -0.274 OA
ENDROOT
BRANCH   1  21
ATOM      8  C   UNL     1       2.872  -0.336   2.218  0.00  0.00    +0.105 C 
ATOM      9  N   UNL     1       2.110  -0.189   0.971  0.00  0.00    -0.299 NA
ATOM     10  C   UNL     1       2.798  -0.843  -0.145  0.00  0.00    +0.089 C 
ATOM     11  C   UNL     1       2.131  -0.460  -1.480  0.00  0.00    +0.049 C 
ATOM     12  C   UNL     1       0.653  -0.702  -1.295  0.00  0.00    -0.036 C 
ATOM     13  C   UNL     1      -0.243  -1.351  -2.024  0.00  0.00    -0.001 A 
ATOM     14  C   UNL     1      -0.164  -1.965  -3.360  0.00  0.00    +0.010 A 
ATOM     15  C   UNL     1      -1.290  -2.584  -3.803  0.00  0.00    +0.001 A 
ATOM     16  C   UNL     1      -2.473  -2.653  -3.061  0.00  0.00    +0.002 A 
ATOM     17  C   UNL     1      -2.638  -2.107  -1.829  0.00  0.00    +0.026 A 
ATOM     18  C   UNL     1      -1.527  -1.420  -1.261  0.00  0.00    +0.043 A 
ATOM     19  N   UNL     1      -1.418  -0.788  -0.129  0.00  0.00    -0.376 N 
ATOM     20  C   UNL     1      -0.090  -0.182  -0.068  0.00  0.00    +0.125 C 
ATOM     21  C   UNL     1       0.721  -0.642   1.146  0.00  0.00    +0.104 C 
ATOM     22  H   UNL     1      -2.101  -0.730   0.557  0.00  0.00    +0.160 HD
ENDBRANCH   1  21
BRANCH   5  23
ATOM     23  C   UNL     1      -0.820   3.575   1.948  0.00  0.00    +0.086 A 
ATOM     24  C   UNL     1      -1.041   4.340   3.083  0.00  0.00    +0.073 A 
ATOM     25  C   UNL     1      -0.941   5.721   3.017  0.00  0.00    +0.122 A 
ATOM     26  C   UNL     1      -0.621   6.338   1.816  0.00  0.00    +0.049 A 
ATOM     27  C   UNL     1      -0.400   5.577   0.683  0.00  0.00    +0.051 A 
ATOM     28  C   UNL     1      -0.493   4.196   0.745  0.00  0.00    +0.142 A 
BRANCH  28  29
ATOM     29  O   UNL     1      -0.271   3.448  -0.369  0.00  0.00    -0.493 OA
ATOM     30  C   UNL     1       0.060   4.153  -1.568  0.00  0.00    +0.277 C 
ENDBRANCH  28  29
BRANCH  25  31
ATOM     31  O   UNL     1      -1.157   6.472   4.130  0.00  0.00    -0.495 OA
ATOM     32  C   UNL     1      -1.038   7.889   3.990  0.00  0.00    +0.277 C 
ENDBRANCH  25  31
ENDBRANCH   5  23
BRANCH   4  33
ATOM     33  O   UNL     1      -2.411   1.498   0.332  0.00  0.00    -0.356 OA
ATOM     34  H   UNL     1      -3.267   1.131   0.072  0.00  0.00    +0.214 HD
ENDBRANCH   4  33
BRANCH   2  35
ATOM     35  O   UNL     1      -1.488  -1.740   3.090  0.00  0.00    -0.495 OA
ATOM     36  H   UNL     1      -2.422  -1.977   3.174  0.00  0.00    +0.293 HD
ENDBRANCH   2  35
TORSDOF 6
