REMARK  Name = ZINC16923834
REMARK  8 active torsions:
REMARK  status: ('A' for Active; 'I' for Inactive)
REMARK    1  A    between atoms: C_1  and  C_2
REMARK    2  A    between atoms: C_5  and  N_9
REMARK    3  A    between atoms: C_7  and  C_8
REMARK    4  A    between atoms: C_12  and  C_17
REMARK    5  A    between atoms: C_17  and  C_18
REMARK    6  A    between atoms: N_20  and  C_21
REMARK    7  A    between atoms: C_23  and  C_29
REMARK    8  A    between atoms: C_25  and  C_27
REMARK                            x       y       z     vdW  Elec       q    Type
REMARK                         _______ _______ _______ _____ _____    ______ ____
ROOT
ATOM      1  C   UNL     1      -0.136  -4.844   1.502  0.00  0.00    +0.120 C 
ENDROOT
BRANCH   1   5
ATOM      2  N   UNL     1       1.645  -2.066   0.431  0.00  0.00    -0.200 N 
ATOM      3  C   UNL     1       0.495  -2.709   0.321  0.00  0.00    +0.241 C 
ATOM      4  O   UNL     1      -0.566  -2.128   0.238  0.00  0.00    -0.274 OA
ATOM      5  C   UNL     1       0.594  -4.227   0.307  0.00  0.00    +0.151 C 
ATOM      6  S   UNL     1       2.414  -4.425   0.462  0.00  0.00    -0.054 S 
ATOM      7  C   UNL     1       2.835  -2.689   0.520  0.00  0.00    +0.286 C 
ATOM      8  O   UNL     1       3.938  -2.188   0.619  0.00  0.00    -0.262 OA
BRANCH   2  13
ATOM      9  C   UNL     1       1.566   3.608   0.508  0.00  0.00    +0.044 C 
ATOM     10  C   UNL     1       1.587   2.102   0.487  0.00  0.00    -0.047 A 
ATOM     11  C   UNL     1       1.480   1.394   1.671  0.00  0.00    +0.005 A 
ATOM     12  C   UNL     1       1.499   0.013   1.655  0.00  0.00    +0.024 A 
ATOM     13  C   UNL     1       1.625  -0.664   0.450  0.00  0.00    +0.045 A 
ATOM     14  C   UNL     1       1.733   0.049  -0.736  0.00  0.00    +0.027 A 
ATOM     15  C   UNL     1       1.713   1.430  -0.714  0.00  0.00    -0.046 A 
ATOM     16  C   UNL     1       1.830   2.205  -2.002  0.00  0.00    +0.044 C 
ENDBRANCH   2  13
ENDBRANCH   1   5
BRANCH   1  17
ATOM     17  C   UNL     1      -0.117  -6.346   1.381  0.00  0.00    +0.219 C 
ATOM     18  O   UNL     1       0.427  -6.872   0.433  0.00  0.00    -0.275 OA
ATOM     19  N   UNL     1      -0.705  -7.106   2.327  0.00  0.00    -0.285 N 
ATOM     20  H   UNL     1      -1.198  -6.686   3.049  0.00  0.00    +0.155 HD
BRANCH  19  21
ATOM     21  C   UNL     1      -0.603  -8.501   2.267  0.00  0.00    +0.035 A 
ATOM     22  C   UNL     1      -0.605  -9.143   1.038  0.00  0.00    +0.038 A 
ATOM     23  C   UNL     1      -0.498 -10.533   0.975  0.00  0.00    +0.066 A 
ATOM     24  C   UNL     1      -0.401 -11.277   2.149  0.00  0.00    +0.030 A 
ATOM     25  C   UNL     1      -0.405 -10.629   3.383  0.00  0.00    +0.066 A 
ATOM     26  C   UNL     1      -0.506  -9.238   3.438  0.00  0.00    +0.038 A 
BRANCH  25  27
ATOM     27  C   UNL     1      -0.303 -11.414   4.631  0.00  0.00    +0.387 C 
ATOM     28  O   UNL     1      -0.307 -10.848   5.706  0.00  0.00    -0.241 OA
ATOM     29  O   UNL     1      -0.206 -12.756   4.577  0.00  0.00    -0.241 OA
ENDBRANCH  25  27
BRANCH  23  30
ATOM     30  C   UNL     1      -0.494 -11.216  -0.336  0.00  0.00    +0.387 C 
ATOM     31  O   UNL     1      -0.579 -10.567  -1.359  0.00  0.00    -0.241 OA
ATOM     32  O   UNL     1      -0.397 -12.558  -0.396  0.00  0.00    -0.241 OA
ENDBRANCH  23  30
ENDBRANCH  19  21
ENDBRANCH   1  17
TORSDOF 6
