REMARK  Name = ZINC40728171
REMARK  3 active torsions:
REMARK  status: ('A' for Active; 'I' for Inactive)
REMARK    1  A    between atoms: C_12  and  N_30
REMARK    2  A    between atoms: C_13  and  N_17
REMARK    3  A    between atoms: N_20  and  C_23
REMARK                            x       y       z     vdW  Elec       q    Type
REMARK                         _______ _______ _______ _____ _____    ______ ____
ROOT
ATOM      1  C   UNL     1      -1.006  -2.302  -1.859  0.00  0.00    +0.000 A 
ATOM      2  C   UNL     1      -1.210  -1.756  -0.605  0.00  0.00    +0.000 A 
ATOM      3  C   UNL     1      -0.131  -1.504   0.216  0.00  0.00    +0.005 A 
ATOM      4  C   UNL     1       1.159  -1.798  -0.206  0.00  0.00    -0.027 A 
ATOM      5  C   UNL     1       1.364  -2.349  -1.451  0.00  0.00    -0.041 A 
ATOM      6  C   UNL     1       0.275  -2.595  -2.279  0.00  0.00    +0.004 A 
ATOM      7  C   UNL     1       2.729  -2.722  -1.965  0.00  0.00    +0.054 C 
ATOM      8  C   UNL     1       3.821  -1.978  -1.198  0.00  0.00    +0.111 C 
ATOM      9  N   UNL     1       3.530  -2.103   0.240  0.00  0.00    -0.309 N 
ATOM     10  C   UNL     1       2.296  -1.484   0.734  0.00  0.00    +0.142 C 
ATOM     11  C   UNL     1       4.391  -2.781   1.095  0.00  0.00    +0.148 A 
ATOM     12  C   UNL     1       5.488  -2.128   1.660  0.00  0.00    +0.106 A 
ATOM     13  C   UNL     1       6.321  -2.855   2.512  0.00  0.00    +0.147 A 
ATOM     14  N   UNL     1       6.040  -4.133   2.752  0.00  0.00    -0.219 NA
ATOM     15  C   UNL     1       4.994  -4.712   2.198  0.00  0.00    +0.225 A 
ATOM     16  N   UNL     1       4.180  -4.061   1.392  0.00  0.00    -0.219 NA
ENDROOT
BRANCH  13  17
ATOM     17  N   UNL     1       7.427  -2.253   3.101  0.00  0.00    -0.311 N 
ATOM     18  C   UNL     1       7.338  -1.687   4.455  0.00  0.00    +0.125 C 
ATOM     19  C   UNL     1       8.431  -2.322   5.324  0.00  0.00    +0.124 C 
ATOM     20  N   UNL     1       9.710  -2.241   4.604  0.00  0.00    -0.327 N 
ATOM     21  C   UNL     1       9.798  -2.807   3.251  0.00  0.00    +0.124 C 
ATOM     22  C   UNL     1       8.707  -2.177   2.384  0.00  0.00    +0.125 C 
BRANCH  20  23
ATOM     23  C   UNL     1      10.821  -1.636   5.196  0.00  0.00    +0.031 A 
ATOM     24  C   UNL     1      10.696  -1.003   6.426  0.00  0.00    +0.023 A 
ATOM     25  C   UNL     1      11.797  -0.406   7.009  0.00  0.00    +0.003 A 
ATOM     26  C   UNL     1      13.022  -0.438   6.370  0.00  0.00    +0.020 A 
ATOM     27  C   UNL     1      13.151  -1.067   5.144  0.00  0.00    +0.043 A 
ATOM     28  C   UNL     1      12.054  -1.671   4.558  0.00  0.00    +0.043 A 
ATOM     29 CL   UNL     1      14.691  -1.104   4.345  0.00  0.00    -0.083 Cl
ENDBRANCH  20  23
ENDBRANCH  13  17
BRANCH  12  30
ATOM     30  N   UNL     1       5.747  -0.776   1.378  0.00  0.00    -0.353 N 
ATOM     31  H   UNL     1       5.121  -0.264   0.843  0.00  0.00    +0.143 HD
ATOM     32  H   UNL     1       6.552  -0.355   1.719  0.00  0.00    +0.143 HD
ENDBRANCH  12  30
TORSDOF 3
