REMARK  Name = ZINC32883936
REMARK  8 active torsions:
REMARK  status: ('A' for Active; 'I' for Inactive)
REMARK    1  A    between atoms: C_3  and  C_24
REMARK    2  A    between atoms: C_5  and  N_7
REMARK    3  A    between atoms: C_8  and  C_10
REMARK    4  A    between atoms: C_10  and  S_11
REMARK    5  A    between atoms: S_11  and  C_12
REMARK    6  A    between atoms: C_16  and  C_18
REMARK    7  A    between atoms: N_26  and  C_27
REMARK    8  A    between atoms: C_31  and  C_33
REMARK                            x       y       z     vdW  Elec       q    Type
REMARK                         _______ _______ _______ _____ _____    ______ ____
ROOT
ATOM      1  C   UNL     1       0.697  -3.878 -10.457  0.00  0.00    +0.003 A 
ATOM      2  C   UNL     1      -0.095  -4.983 -10.696  0.00  0.00    +0.013 A 
ATOM      3  C   UNL     1      -1.096  -5.333  -9.788  0.00  0.00    +0.039 A 
ATOM      4  C   UNL     1      -1.292  -4.563  -8.641  0.00  0.00    +0.036 A 
ATOM      5  C   UNL     1      -0.491  -3.455  -8.411  0.00  0.00    +0.034 A 
ATOM      6  C   UNL     1       0.499  -3.112  -9.324  0.00  0.00    +0.023 A 
ENDROOT
BRANCH   5   7
ATOM      7  N   UNL     1      -0.684  -2.679  -7.262  0.00  0.00    -0.285 N 
ATOM      8  C   UNL     1      -1.052  -3.267  -6.106  0.00  0.00    +0.227 C 
ATOM      9  O   UNL     1      -1.299  -4.454  -6.081  0.00  0.00    -0.275 OA
ATOM     10  H   UNL     1      -0.534  -1.591  -7.303  0.00  0.00    +0.155 HD
BRANCH   8  11
ATOM     11  C   UNL     1      -1.159  -2.447  -4.846  0.00  0.00    +0.173 C 
BRANCH  11  12
ATOM     12  S   UNL     1      -1.671  -3.513  -3.475  0.00  0.00    -0.077 S 
BRANCH  12  13
ATOM     13  C   UNL     1      -1.714  -2.332  -2.169  0.00  0.00    +0.185 A 
ATOM     14  N   UNL     1      -2.043  -2.580  -0.882  0.00  0.00    -0.253 N 
ATOM     15  H   UNL     1      -2.316  -3.599  -0.571  0.00  0.00    +0.191 HD
ATOM     16  N   UNL     1      -1.941  -1.354  -0.205  0.00  0.00    -0.154 NA
ATOM     17  C   UNL     1      -1.570  -0.462  -1.084  0.00  0.00    +0.180 A 
ATOM     18  N   UNL     1      -1.437  -1.049  -2.274  0.00  0.00    -0.203 NA
BRANCH  17  19
ATOM     19  C   UNL     1      -1.337   0.999  -0.800  0.00  0.00    +0.188 C 
ATOM     20  C   UNL     1      -2.689   1.737  -0.629  0.00  0.00    +0.042 C 
ATOM     21  C   UNL     1      -2.259   2.944   0.247  0.00  0.00    +0.031 C 
ATOM     22  C   UNL     1      -1.147   2.331   1.127  0.00  0.00    +0.161 C 
ATOM     23  O   UNL     1      -0.659   1.163   0.456  0.00  0.00    -0.369 OA
ENDBRANCH  17  19
ENDBRANCH  12  13
ENDBRANCH  11  12
ENDBRANCH   8  11
ENDBRANCH   5   7
BRANCH   3  24
ATOM     24  C   UNL     1      -1.946  -6.516 -10.041  0.00  0.00    +0.248 C 
ATOM     25  O   UNL     1      -2.817  -6.819  -9.249  0.00  0.00    -0.270 OA
ATOM     26  N   UNL     1      -1.755  -7.258 -11.150  0.00  0.00    -0.281 N 
ATOM     27  H   UNL     1      -0.918  -7.030 -11.827  0.00  0.00    +0.155 HD
BRANCH  26  28
ATOM     28  C   UNL     1      -2.620  -8.318 -11.439  0.00  0.00    +0.034 A 
ATOM     29  C   UNL     1      -2.944  -8.612 -12.758  0.00  0.00    +0.023 A 
ATOM     30  C   UNL     1      -3.798  -9.660 -13.040  0.00  0.00    +0.002 A 
ATOM     31  C   UNL     1      -4.330 -10.416 -12.012  0.00  0.00    +0.012 A 
ATOM     32  C   UNL     1      -4.009 -10.127 -10.698  0.00  0.00    +0.057 A 
ATOM     33  C   UNL     1      -3.152  -9.083 -10.409  0.00  0.00    +0.035 A 
BRANCH  32  34
ATOM     34  C   UNL     1      -4.591 -10.954  -9.581  0.00  0.00    +0.417 C 
ATOM     35  F   UNL     1      -5.418 -11.947 -10.118  0.00  0.00    -0.166 F 
ATOM     36  F   UNL     1      -3.555 -11.553  -8.856  0.00  0.00    -0.166 F 
ATOM     37  F   UNL     1      -5.340 -10.132  -8.733  0.00  0.00    -0.166 F 
ENDBRANCH  32  34
ENDBRANCH  26  28
ENDBRANCH   3  24
TORSDOF 8
