REMARK  Name = ZINC21033015
REMARK  5 active torsions:
REMARK  status: ('A' for Active; 'I' for Inactive)
REMARK    1  A    between atoms: C_1  and  C_2
REMARK    2  A    between atoms: C_7  and  S_9
REMARK    3  A    between atoms: S_9  and  C_10
REMARK    4  A    between atoms: C_13  and  N_20
REMARK    5  A    between atoms: C_14  and  C_16
REMARK                            x       y       z     vdW  Elec       q    Type
REMARK                         _______ _______ _______ _____ _____    ______ ____
ROOT
ATOM      1  C   UNL     1       1.177   1.781   0.001  0.00  0.00    +0.016 A 
ATOM      2  C   UNL     1       1.154   3.170   0.005  0.00  0.00    +0.017 A 
ATOM      3  C   UNL     1      -0.053   3.840   0.021  0.00  0.00    +0.024 A 
ATOM      4  C   UNL     1      -1.244   3.125   0.033  0.00  0.00    +0.036 A 
ATOM      5  C   UNL     1      -1.220   1.736   0.022  0.00  0.00    +0.076 A 
ATOM      6  C   UNL     1      -0.013   1.066   0.013  0.00  0.00    +0.029 A 
ENDROOT
BRANCH   5   7
ATOM      7  C   UNL     1      -2.512   0.961   0.028  0.00  0.00    +0.419 C 
ATOM      8  F   UNL     1      -2.233  -0.410   0.022  0.00  0.00    -0.166 F 
ATOM      9  F   UNL     1      -3.244   1.283   1.176  0.00  0.00    -0.166 F 
ATOM     10  F   UNL     1      -3.259   1.290  -1.108  0.00  0.00    -0.166 F 
ENDBRANCH   5   7
BRANCH   4  11
ATOM     11  N   UNL     1      -2.467   3.804   0.049  0.00  0.00    -0.358 N 
ATOM     12  H   UNL     1      -3.410   3.238   0.058  0.00  0.00    +0.142 HD
ATOM     13  H   UNL     1      -2.486   4.904   0.052  0.00  0.00    +0.142 HD
ENDBRANCH   4  11
BRANCH   1  14
ATOM     14  S   UNL     1       2.718   0.926  -0.019  0.00  0.00    -0.050 S 
BRANCH  14  21
ATOM     15  C   UNL     1       5.246  -1.140  -4.052  0.00  0.00    +0.066 C 
ATOM     16  C   UNL     1       4.092  -0.314  -3.547  0.00  0.00    +0.046 A 
ATOM     17  C   UNL     1       3.200   0.214  -4.412  0.00  0.00    +0.095 A 
ATOM     18  C   UNL     1       2.124   0.986  -3.904  0.00  0.00    +0.274 A 
ATOM     19  O   UNL     1       1.304   1.475  -4.666  0.00  0.00    -0.266 OA
ATOM     20  N   UNL     1       2.011   1.173  -2.582  0.00  0.00    -0.183 NA
ATOM     21  C   UNL     1       2.894   0.655  -1.752  0.00  0.00    +0.197 A 
ATOM     22  N   UNL     1       3.936  -0.091  -2.209  0.00  0.00    -0.227 NA
ENDBRANCH  14  21
ENDBRANCH   1  14
TORSDOF 4
