REMARK  Name = ZINC15731789
REMARK  5 active torsions:
REMARK  status: ('A' for Active; 'I' for Inactive)
REMARK    1  A    between atoms: C_1  and  N_2
REMARK    2  A    between atoms: C_13  and  S_15
REMARK    3  A    between atoms: S_15  and  C_16
REMARK    4  A    between atoms: C_16  and  C_17
REMARK    5  A    between atoms: N_19  and  C_20
REMARK                            x       y       z     vdW  Elec       q    Type
REMARK                         _______ _______ _______ _____ _____    ______ ____
ROOT
ATOM      1  C   UNL     1       5.949   1.510   1.680  0.00  0.00    +0.157 C 
ATOM      2  N   UNL     1       4.921   1.077   0.731  0.00  0.00    -0.205 N 
ATOM      3  C   UNL     1       4.802  -0.267   0.362  0.00  0.00    +0.060 A 
ATOM      4  C   UNL     1       5.955  -1.046   0.334  0.00  0.00    +0.027 A 
ATOM      5  C   UNL     1       5.889  -2.376  -0.025  0.00  0.00    +0.022 A 
ATOM      6  C   UNL     1       4.670  -2.945  -0.360  0.00  0.00    +0.042 A 
ATOM      7  C   UNL     1       3.520  -2.187  -0.334  0.00  0.00    +0.032 A 
ATOM      8  C   UNL     1       3.570  -0.836   0.028  0.00  0.00    +0.026 A 
ATOM      9  C   UNL     1       2.306  -0.069   0.039  0.00  0.00    +0.104 A 
ATOM     10  C   UNL     1       2.308   1.328   0.050  0.00  0.00    +0.153 A 
ATOM     11  C   UNL     1       1.116   2.014   0.056  0.00  0.00    +0.144 A 
ATOM     12  N   UNL     1      -0.015   1.319   0.052  0.00  0.00    -0.228 NA
ATOM     13  C   UNL     1       0.002  -0.007   0.043  0.00  0.00    +0.189 A 
ATOM     14  N   UNL     1       1.132  -0.699   0.037  0.00  0.00    -0.220 NA
ATOM     15  S   UNL     1       3.859   2.169   0.058  0.00  0.00    +0.078 S 
ATOM     16  O   UNL     1       4.245   2.344  -1.298  0.00  0.00    -0.150 OA
ATOM     17  O   UNL     1       3.741   3.251   0.972  0.00  0.00    -0.150 OA
ATOM     18 CL   UNL     1       4.593  -4.619  -0.812  0.00  0.00    -0.084 Cl
ENDROOT
BRANCH  13  19
ATOM     19  S   UNL     1      -1.530  -0.878   0.040  0.00  0.00    -0.077 S 
BRANCH  19  20
ATOM     20  C   UNL     1      -2.684   0.516   0.051  0.00  0.00    +0.173 C 
BRANCH  20  21
ATOM     21  C   UNL     1      -4.099  -0.003   0.050  0.00  0.00    +0.228 C 
ATOM     22  O   UNL     1      -4.306  -1.198   0.042  0.00  0.00    -0.275 OA
ATOM     23  N   UNL     1      -5.134   0.860   0.057  0.00  0.00    -0.283 N 
ATOM     24  H   UNL     1      -4.969   1.814   0.128  0.00  0.00    +0.155 HD
BRANCH  23  25
ATOM     25  C   UNL     1      -6.447   0.381  -0.038  0.00  0.00    +0.069 A 
ATOM     26  C   UNL     1      -6.790  -0.829   0.549  0.00  0.00    +0.029 A 
ATOM     27  C   UNL     1      -8.085  -1.300   0.455  0.00  0.00    +0.040 A 
ATOM     28  C   UNL     1      -9.043  -0.566  -0.226  0.00  0.00    +0.126 A 
ATOM     29  C   UNL     1      -8.704   0.641  -0.814  0.00  0.00    +0.078 A 
ATOM     30  C   UNL     1      -7.410   1.119  -0.717  0.00  0.00    +0.147 A 
ATOM     31  F   UNL     1      -7.081   2.299  -1.286  0.00  0.00    -0.203 F 
ATOM     32  F   UNL     1     -10.308  -1.030  -0.317  0.00  0.00    -0.205 F 
ENDBRANCH  23  25
ENDBRANCH  20  21
ENDBRANCH  19  20
ENDBRANCH  13  19
TORSDOF 4
