REMARK  Name = ZINC09861620
REMARK  5 active torsions:
REMARK  status: ('A' for Active; 'I' for Inactive)
REMARK    1  A    between atoms: C_3  and  S_23
REMARK    2  A    between atoms: C_6  and  N_7
REMARK    3  A    between atoms: N_7  and  S_8
REMARK    4  A    between atoms: S_8  and  C_11
REMARK    5  A    between atoms: S_23  and  N_26
REMARK                            x       y       z     vdW  Elec       q    Type
REMARK                         _______ _______ _______ _____ _____    ______ ____
ROOT
ATOM      1  C   UNL     1      -0.017   1.385   0.010  0.00  0.00    +0.028 A 
ATOM      2  C   UNL     1       1.171   2.090   0.002  0.00  0.00    +0.030 A 
ATOM      3  C   UNL     1       2.377   1.415  -0.013  0.00  0.00    +0.106 A 
ATOM      4  C   UNL     1       2.400   0.032  -0.021  0.00  0.00    +0.030 A 
ATOM      5  C   UNL     1       1.216  -0.679  -0.014  0.00  0.00    +0.028 A 
ATOM      6  C   UNL     1       0.002  -0.004   0.002  0.00  0.00    +0.074 A 
ENDROOT
BRANCH   3   7
ATOM      7  S   UNL     1       3.890   2.319  -0.024  0.00  0.00    +0.061 S 
ATOM      8  O   UNL     1       4.872   1.461  -0.589  0.00  0.00    -0.153 OA
ATOM      9  O   UNL     1       3.595   3.599  -0.566  0.00  0.00    -0.153 OA
BRANCH   7  10
ATOM     10  N   UNL     1       4.326   2.562   1.555  0.00  0.00    -0.177 NA
ATOM     11  C   UNL     1       3.853   3.750   2.229  0.00  0.00    +0.109 C 
ATOM     12  C   UNL     1       4.863   4.905   2.017  0.00  0.00    +0.017 C 
ATOM     13  C   UNL     1       6.092   4.657   2.786  0.00  0.00    +0.001 C 
ATOM     14  C   UNL     1       6.856   3.405   2.366  0.00  0.00    +0.001 C 
ATOM     15  C   UNL     1       6.280   2.206   3.077  0.00  0.00    +0.017 C 
ATOM     16  C   UNL     1       5.177   1.554   2.217  0.00  0.00    +0.109 C 
ENDBRANCH   7  10
ENDBRANCH   3   7
BRANCH   6  17
ATOM     17  N   UNL     1      -1.197  -0.720   0.010  0.00  0.00    -0.098 NA
BRANCH  17  18
ATOM     18  S   UNL     1      -1.172  -2.376   0.001  0.00  0.00    +0.092 S 
ATOM     19  O   UNL     1      -0.628  -2.767  -1.252  0.00  0.00    -0.148 OA
ATOM     20  O   UNL     1      -0.603  -2.781   1.239  0.00  0.00    -0.148 OA
BRANCH  18  21
ATOM     21  C   UNL     1      -2.848  -2.922   0.015  0.00  0.00    +0.112 A 
ATOM     22  C   UNL     1      -3.493  -3.137   1.221  0.00  0.00    +0.031 A 
ATOM     23  C   UNL     1      -4.806  -3.565   1.242  0.00  0.00    +0.030 A 
ATOM     24  C   UNL     1      -5.480  -3.780   0.050  0.00  0.00    +0.067 A 
ATOM     25  C   UNL     1      -4.830  -3.564  -1.167  0.00  0.00    +0.069 A 
ATOM     26  C   UNL     1      -3.513  -3.129  -1.178  0.00  0.00    +0.056 A 
ATOM     27  N   UNL     1      -5.747  -3.859  -2.172  0.00  0.00    -0.306 N 
ATOM     28  H   UNL     1      -5.582  -3.801  -3.126  0.00  0.00    +0.170 HD
ATOM     29  C   UNL     1      -6.903  -4.237  -1.594  0.00  0.00    +0.325 A 
ATOM     30  O   UNL     1      -7.912  -4.563  -2.192  0.00  0.00    -0.247 OA
ATOM     31  N   UNL     1      -6.773  -4.200  -0.255  0.00  0.00    -0.306 N 
ATOM     32  H   UNL     1      -7.463  -4.427   0.389  0.00  0.00    +0.170 HD
ENDBRANCH  18  21
ENDBRANCH  17  18
ENDBRANCH   6  17
TORSDOF 5
