REMARK  Name = ZINC31674452
REMARK  2 active torsions:
REMARK  status: ('A' for Active; 'I' for Inactive)
REMARK    1  A    between atoms: C_5  and  C_11
REMARK    2  A    between atoms: N_13  and  C_14
REMARK                            x       y       z     vdW  Elec       q    Type
REMARK                         _______ _______ _______ _____ _____    ______ ____
ROOT
ATOM      1  C   UNL     1      -4.831   2.558   0.060  0.00  0.00    +0.284 C 
ATOM      2  O   UNL     1      -5.486   1.533   0.052  0.00  0.00    -0.266 OA
ATOM      3  N   UNL     1      -5.451   3.754   0.076  0.00  0.00    -0.279 N 
ATOM      4  H   UNL     1      -4.861   4.679   0.160  0.00  0.00    +0.155 HD
ENDROOT
BRANCH   1   9
ATOM      5  C   UNL     1       1.160   1.778   0.031  0.00  0.00    +0.002 A 
ATOM      6  C   UNL     1      -0.012   1.076   0.028  0.00  0.00    +0.012 A 
ATOM      7  C   UNL     1      -1.230   1.761   0.033  0.00  0.00    +0.022 A 
ATOM      8  C   UNL     1      -2.632   1.347   0.039  0.00  0.00    +0.063 A 
ATOM      9  C   UNL     1      -3.363   2.491   0.054  0.00  0.00    +0.191 A 
ATOM     10  O   UNL     1      -2.537   3.559   0.062  0.00  0.00    -0.449 OA
ATOM     11  C   UNL     1      -1.248   3.168   0.053  0.00  0.00    +0.150 A 
ATOM     12  C   UNL     1      -0.042   3.861   0.056  0.00  0.00    +0.061 A 
ATOM     13  C   UNL     1       1.149   3.166   0.045  0.00  0.00    +0.019 A 
ATOM     14 BR   UNL     1      -0.036   5.752   0.075  0.00  0.00    -0.046 Br
ENDBRANCH   1   9
BRANCH   3  15
ATOM     15  C   UNL     1      -6.846   3.820  -0.015  0.00  0.00    +0.037 A 
ATOM     16  C   UNL     1      -7.449   4.870  -0.695  0.00  0.00    +0.026 A 
ATOM     17  C   UNL     1      -8.826   4.932  -0.788  0.00  0.00    +0.043 A 
ATOM     18  C   UNL     1      -9.606   3.954  -0.196  0.00  0.00    +0.159 A 
ATOM     19  C   UNL     1      -9.007   2.907   0.487  0.00  0.00    +0.160 A 
ATOM     20  C   UNL     1      -7.628   2.839   0.579  0.00  0.00    +0.064 A 
ATOM     21  F   UNL     1      -9.770   1.952   1.065  0.00  0.00    -0.202 F 
ATOM     22  F   UNL     1     -10.953   4.019  -0.285  0.00  0.00    -0.202 F 
ENDBRANCH   3  15
TORSDOF 2
