REMARK  Name = ZINC06146062
REMARK  10 active torsions:
REMARK  status: ('A' for Active; 'I' for Inactive)
REMARK    1  A    between atoms: C_1  and  C_2
REMARK    2  A    between atoms: C_2  and  C_28
REMARK    3  A    between atoms: C_4  and  N_9
REMARK    4  A    between atoms: C_6  and  C_7
REMARK    5  A    between atoms: C_6  and  C_8
REMARK    6  A    between atoms: C_10  and  C_11
REMARK    7  A    between atoms: C_10  and  O_27
REMARK    8  A    between atoms: C_16  and  N_17
REMARK    9  A    between atoms: N_17  and  S_18
REMARK   10  A    between atoms: S_18  and  C_21
REMARK                            x       y       z     vdW  Elec       q    Type
REMARK                         _______ _______ _______ _____ _____    ______ ____
ROOT
ATOM      1  C   UNL     1       0.889   1.409   4.477  0.00  0.00    +0.058 A 
ATOM      2  C   UNL     1       1.261   2.363   5.425  0.00  0.00    +0.015 A 
ATOM      3  C   UNL     1       1.878   1.968   6.593  0.00  0.00    +0.001 A 
ATOM      4  C   UNL     1       2.140   0.628   6.827  0.00  0.00    +0.002 A 
ATOM      5  C   UNL     1       1.783  -0.327   5.896  0.00  0.00    +0.025 A 
ATOM      6  C   UNL     1       1.156   0.053   4.716  0.00  0.00    +0.060 A 
ENDROOT
BRANCH   1   8
ATOM      7  N   UNL     1      -0.117   0.932   2.342  0.00  0.00    -0.247 NA
ATOM      8  C   UNL     1       0.223   1.825   3.226  0.00  0.00    +0.217 C 
BRANCH   7  12
ATOM      9  C   UNL     1      -0.446   2.829  -1.621  0.00  0.00    -0.010 C 
ATOM     10  C   UNL     1      -0.598   1.319  -1.403  0.00  0.00    -0.071 C 
ATOM     11  C   UNL     1       0.078   0.922  -0.093  0.00  0.00    +0.014 C 
ATOM     12  C   UNL     1      -0.779   1.346   1.099  0.00  0.00    +0.106 C 
ATOM     13  C   UNL     1      -2.135   0.649   0.994  0.00  0.00    +0.014 C 
ATOM     14  C   UNL     1      -2.838   1.046  -0.302  0.00  0.00    -0.071 C 
ATOM     15  C   UNL     1      -3.389   2.471  -0.171  0.00  0.00    -0.010 C 
ATOM     16  C   UNL     1      -4.048   0.103  -0.482  0.00  0.00    -0.010 C 
ATOM     17  C   UNL     1       0.160   0.614  -2.550  0.00  0.00    -0.010 C 
ATOM     18  N   UNL     1      -2.016   0.891  -1.532  0.00  0.00    +0.386 N 
ATOM     19  H   UNL     1      -2.026  -0.101  -1.798  0.00  0.00    -0.084 HD
ATOM     20  H   UNL     1      -2.450   1.449  -2.277  0.00  0.00    -0.084 HD
ENDBRANCH   7  12
BRANCH   8  21
ATOM     21  O   UNL     1      -0.033   3.134   2.999  0.00  0.00    -0.492 OA
ATOM     22  H   UNL     1       0.256   3.720   3.712  0.00  0.00    +0.294 HD
ENDBRANCH   8  21
ENDBRANCH   1   8
BRANCH   6  23
ATOM     23  N   UNL     1       0.796  -0.907   3.776  0.00  0.00    -0.215 N 
ATOM     24  H   UNL     1       0.854  -0.704   2.830  0.00  0.00    +0.174 HD
BRANCH  23  25
ATOM     25  S   UNL     1       0.268  -2.395   4.274  0.00  0.00    +0.079 S 
ATOM     26  O   UNL     1      -0.142  -3.092   3.105  0.00  0.00    -0.149 OA
ATOM     27  O   UNL     1       1.259  -2.904   5.155  0.00  0.00    -0.149 OA
BRANCH  25  28
ATOM     28  C   UNL     1      -1.182  -2.137   5.241  0.00  0.00    +0.147 A 
ATOM     29  C   UNL     1      -2.477  -2.091   4.843  0.00  0.00    +0.038 A 
ATOM     30  C   UNL     1      -3.462  -1.874   5.788  0.00  0.00    +0.030 A 
ATOM     31  C   UNL     1      -3.103  -1.713   7.086  0.00  0.00    +0.080 A 
ATOM     32  S   UNL     1      -1.327  -1.876   7.001  0.00  0.00    -0.057 S 
ATOM     33 CL   UNL     1      -4.110  -1.430   8.472  0.00  0.00    -0.076 Cl
ENDBRANCH  25  28
ENDBRANCH  23  25
ENDBRANCH   6  23
TORSDOF 6
