REMARK  Name = ZINC61889981
REMARK  2 active torsions:
REMARK  status: ('A' for Active; 'I' for Inactive)
REMARK    1  A    between atoms: N_11  and  C_14
REMARK    2  A    between atoms: C_19  and  C_21
REMARK                            x       y       z     vdW  Elec       q    Type
REMARK                         _______ _______ _______ _____ _____    ______ ____
ROOT
ATOM      1  C   UNL     1      -0.019   1.518   0.010  0.00  0.00    +0.001 C 
ATOM      2  C   UNL     1       1.429   2.023  -0.001  0.00  0.00    +0.001 C 
ATOM      3  C   UNL     1       2.084   1.616   1.314  0.00  0.00    +0.013 C 
ATOM      4  C   UNL     1       2.028   0.137   1.563  0.00  0.00    +0.087 C 
ATOM      5  C   UNL     1       0.747  -0.587   1.173  0.00  0.00    +0.087 C 
ATOM      6  C   UNL     1       0.002  -0.004   0.002  0.00  0.00    +0.013 C 
ATOM      7  C   UNL     1       1.282  -1.965   0.789  0.00  0.00    +0.226 C 
ATOM      8  O   UNL     1       0.641  -2.993   0.746  0.00  0.00    -0.275 OA
ATOM      9  N   UNL     1       2.589  -1.835   0.506  0.00  0.00    -0.237 N 
ATOM     10  C   UNL     1       3.081  -0.627   0.789  0.00  0.00    +0.226 C 
ATOM     11  O   UNL     1       4.184  -0.225   0.489  0.00  0.00    -0.275 OA
ENDROOT
BRANCH   9  12
ATOM     12  C   UNL     1       3.391  -2.913  -0.078  0.00  0.00    +0.101 C 
ATOM     13  C   UNL     1       4.583  -3.244   0.844  0.00  0.00    +0.024 C 
ATOM     14  C   UNL     1       5.743  -3.557  -0.133  0.00  0.00    +0.003 C 
ATOM     15  C   UNL     1       5.521  -2.528  -1.269  0.00  0.00    +0.020 C 
ATOM     16  C   UNL     1       3.986  -2.458  -1.422  0.00  0.00    +0.112 C 
BRANCH  16  17
ATOM     17  C   UNL     1       3.571  -1.077  -1.716  0.00  0.00    +0.068 C 
ATOM     18  N   UNL     1       3.250  -0.011  -1.943  0.00  0.00    -0.196 NA
ENDBRANCH  16  17
ENDBRANCH   9  12
TORSDOF 2
