REMARK  Name = ZINC59265124
REMARK  4 active torsions:
REMARK  status: ('A' for Active; 'I' for Inactive)
REMARK    1  A    between atoms: C_1  and  C_2
REMARK    2  A    between atoms: C_10  and  C_11
REMARK    3  A    between atoms: N_13  and  C_14
REMARK    4  A    between atoms: C_24  and  C_26
REMARK                            x       y       z     vdW  Elec       q    Type
REMARK                         _______ _______ _______ _____ _____    ______ ____
ROOT
ATOM      1  C   UNL     1      -0.129  -0.385   2.498  0.00  0.00    +0.284 C 
ATOM      2  O   UNL     1      -0.292   0.788   2.776  0.00  0.00    -0.266 OA
ATOM      3  N   UNL     1       0.054  -1.291   3.478  0.00  0.00    -0.279 N 
ATOM      4  H   UNL     1       0.107  -2.235   3.263  0.00  0.00    +0.155 HD
ENDROOT
BRANCH   3   5
ATOM      5  C   UNL     1       0.167  -0.870   4.809  0.00  0.00    +0.035 A 
ATOM      6  C   UNL     1      -0.307  -1.671   5.845  0.00  0.00    +0.025 A 
ATOM      7  C   UNL     1      -0.210  -1.286   7.145  0.00  0.00    +0.031 A 
ATOM      8  C   UNL     1       0.380  -0.048   7.494  0.00  0.00    +0.080 A 
ATOM      9  C   UNL     1       0.852   0.745   6.423  0.00  0.00    +0.043 A 
ATOM     10  C   UNL     1       0.757   0.350   5.112  0.00  0.00    +0.040 A 
ATOM     11  S   UNL     1       1.500   2.169   7.264  0.00  0.00    -0.052 S 
ATOM     12  C   UNL     1       1.117   1.642   8.928  0.00  0.00    +0.165 A 
ATOM     13  N   UNL     1       0.551   0.475   8.729  0.00  0.00    -0.225 NA
ATOM     14  N   UNL     1       1.357   2.298  10.125  0.00  0.00    -0.265 N 
ATOM     15  C   UNL     1       0.989   1.730  11.290  0.00  0.00    +0.216 C 
ATOM     16  O   UNL     1       0.448   0.645  11.292  0.00  0.00    -0.276 OA
ATOM     17  C   UNL     1       1.250   2.444  12.592  0.00  0.00    +0.109 C 
ATOM     18  H   UNL     1       1.790   3.166  10.124  0.00  0.00    +0.157 HD
ENDBRANCH   3   5
BRANCH   1  28
ATOM     19  C   UNL     1      -0.527   1.498   0.055  0.00  0.00    +0.048 C 
ATOM     20  C   UNL     1      -0.305   0.008   0.025  0.00  0.00    +0.008 A 
ATOM     21  C   UNL     1      -0.228  -0.846  -1.160  0.00  0.00    +0.025 A 
ATOM     22  C   UNL     1      -0.321  -0.614  -2.535  0.00  0.00    +0.032 A 
ATOM     23  C   UNL     1      -0.202  -1.659  -3.408  0.00  0.00    +0.042 A 
ATOM     24  C   UNL     1       0.011  -2.949  -2.936  0.00  0.00    +0.023 A 
ATOM     25  C   UNL     1       0.107  -3.197  -1.584  0.00  0.00    +0.048 A 
ATOM     26  C   UNL     1      -0.011  -2.150  -0.677  0.00  0.00    +0.136 A 
ATOM     27  O   UNL     1       0.036  -2.083   0.668  0.00  0.00    -0.450 OA
ATOM     28  C   UNL     1      -0.131  -0.814   1.092  0.00  0.00    +0.194 A 
ATOM     29 CL   UNL     1      -0.318  -1.374  -5.116  0.00  0.00    -0.084 Cl
ENDBRANCH   1  28
TORSDOF 2
