REMARK  Name = ZINC43387392
REMARK  3 active torsions:
REMARK  status: ('A' for Active; 'I' for Inactive)
REMARK    1  A    between atoms: C_3  and  C_9
REMARK    2  A    between atoms: C_4  and  N_8
REMARK    3  A    between atoms: C_11  and  C_14
REMARK                            x       y       z     vdW  Elec       q    Type
REMARK                         _______ _______ _______ _____ _____    ______ ____
ROOT
ATOM      1  C   UNL     1       3.679   2.126  -0.037  0.00  0.00    +0.261 A 
ATOM      2  N   UNL     1       3.821   3.429  -0.136  0.00  0.00    -0.187 NA
ATOM      3  C   UNL     1       5.125   3.749  -0.119  0.00  0.00    +0.203 A 
ATOM      4  N   UNL     1       5.830   2.650  -0.009  0.00  0.00    -0.056 NA
ATOM      5  O   UNL     1       4.904   1.576   0.052  0.00  0.00    -0.332 OA
ENDROOT
BRANCH   3   6
ATOM      6  C   UNL     1       5.677   5.124  -0.210  0.00  0.00    +0.028 A 
ATOM      7  C   UNL     1       4.819   6.216  -0.320  0.00  0.00    +0.050 A 
ATOM      8  C   UNL     1       5.337   7.495  -0.404  0.00  0.00    +0.127 A 
ATOM      9  C   UNL     1       6.708   7.691  -0.380  0.00  0.00    +0.076 A 
ATOM     10  C   UNL     1       7.565   6.608  -0.272  0.00  0.00    +0.127 A 
ATOM     11  C   UNL     1       7.055   5.326  -0.181  0.00  0.00    +0.050 A 
ATOM     12  F   UNL     1       8.902   6.805  -0.250  0.00  0.00    -0.205 F 
ATOM     13  F   UNL     1       4.506   8.554  -0.511  0.00  0.00    -0.205 F 
ENDBRANCH   3   6
BRANCH   1  16
ATOM     14  C   UNL     1       0.214   1.002  -0.941  0.00  0.00    +0.016 A 
ATOM     15  C   UNL     1       1.409   1.690  -0.961  0.00  0.00    +0.016 A 
ATOM     16  C   UNL     1       2.399   1.394  -0.021  0.00  0.00    +0.060 A 
ATOM     17  C   UNL     1       2.168   0.397   0.939  0.00  0.00    +0.038 A 
ATOM     18  C   UNL     1       0.959  -0.285   0.945  0.00  0.00    +0.038 A 
ATOM     19  C   UNL     1      -0.011   0.018   0.009  0.00  0.00    +0.020 A 
ATOM     20 BR   UNL     1      -1.655  -0.915   0.024  0.00  0.00    -0.050 Br
BRANCH  17  21
ATOM     21  N   UNL     1       3.146   0.094   1.881  0.00  0.00    -0.357 N 
ATOM     22  H   UNL     1       3.952   0.631   1.934  0.00  0.00    +0.142 HD
ATOM     23  H   UNL     1       3.023  -0.656   2.484  0.00  0.00    +0.142 HD
ENDBRANCH  17  21
ENDBRANCH   1  16
TORSDOF 3
