REMARK  Name = ZINC56182108
REMARK  11 active torsions:
REMARK  status: ('A' for Active; 'I' for Inactive)
REMARK    1  A    between atoms: C_1  and  C_2
REMARK    2  A    between atoms: C_2  and  C_4
REMARK    3  A    between atoms: C_2  and  N_14
REMARK    4  A    between atoms: C_7  and  O_12
REMARK    5  A    between atoms: C_8  and  O_10
REMARK    6  A    between atoms: O_10  and  C_11
REMARK    7  A    between atoms: O_12  and  C_13
REMARK    8  A    between atoms: N_14  and  C_15
REMARK    9  A    between atoms: C_15  and  C_17
REMARK   10  A    between atoms: C_15  and  C_18
REMARK   11  A    between atoms: N_20  and  C_21
REMARK                            x       y       z     vdW  Elec       q    Type
REMARK                         _______ _______ _______ _____ _____    ______ ____
ROOT
ATOM      1  N   UNL     1       0.776  -0.488   1.190  0.00  0.00    +0.391 N 
ATOM      2  H   UNL     1       1.723  -0.144   1.240  0.00  0.00    -0.084 HD
ATOM      3  H   UNL     1       0.265  -0.186   2.006  0.00  0.00    -0.084 HD
ENDROOT
BRANCH   1   5
ATOM      4  C   UNL     1      -0.013   1.560   0.102  0.00  0.00    -0.009 C 
ATOM      5  C   UNL     1       0.126   0.041  -0.017  0.00  0.00    -0.043 C 
BRANCH   5   6
ATOM      6  C   UNL     1       0.963  -0.294  -1.225  0.00  0.00    -0.058 A 
ATOM      7  C   UNL     1       2.341  -0.213  -1.153  0.00  0.00    +0.006 A 
ATOM      8  C   UNL     1       3.113  -0.519  -2.259  0.00  0.00    +0.049 A 
ATOM      9  C   UNL     1       2.506  -0.909  -3.442  0.00  0.00    +0.161 A 
ATOM     10  C   UNL     1       1.118  -0.991  -3.514  0.00  0.00    +0.162 A 
ATOM     11  C   UNL     1       0.351  -0.687  -2.401  0.00  0.00    +0.051 A 
BRANCH  10  12
ATOM     12  O   UNL     1       0.517  -1.373  -4.672  0.00  0.00    -0.491 OA
ATOM     13  C   UNL     1      -0.910  -1.435  -4.673  0.00  0.00    +0.277 C 
ENDBRANCH  10  12
BRANCH   9  14
ATOM     14  O   UNL     1       3.263  -1.210  -4.530  0.00  0.00    -0.491 OA
ATOM     15  C   UNL     1       4.681  -1.103  -4.383  0.00  0.00    +0.277 C 
ENDBRANCH   9  14
ENDBRANCH   5   6
ENDBRANCH   1   5
BRANCH   1  16
ATOM     16  C   UNL     1       0.789  -1.956   1.136  0.00  0.00    +0.014 C 
ATOM     17  C   UNL     1      -0.644  -2.482   1.226  0.00  0.00    -0.004 C 
BRANCH  16  18
ATOM     18  C   UNL     1       1.595  -2.493   2.290  0.00  0.00    +0.203 C 
ATOM     19  O   UNL     1       2.108  -1.729   3.080  0.00  0.00    -0.277 OA
ATOM     20  N   UNL     1       1.746  -3.824   2.445  0.00  0.00    -0.285 N 
ATOM     21  H   UNL     1       1.402  -4.432   1.773  0.00  0.00    +0.155 HD
BRANCH  20  22
ATOM     22  C   UNL     1       2.401  -4.327   3.576  0.00  0.00    +0.069 A 
ATOM     23  C   UNL     1       2.298  -3.666   4.792  0.00  0.00    +0.027 A 
ATOM     24  C   UNL     1       2.944  -4.164   5.906  0.00  0.00    +0.022 A 
ATOM     25  C   UNL     1       3.695  -5.323   5.813  0.00  0.00    +0.044 A 
ATOM     26  C   UNL     1       3.801  -5.986   4.603  0.00  0.00    +0.060 A 
ATOM     27  C   UNL     1       3.152  -5.494   3.485  0.00  0.00    +0.146 A 
ATOM     28  F   UNL     1       3.251  -6.144   2.305  0.00  0.00    -0.203 F 
ATOM     29 CL   UNL     1       4.506  -5.945   7.215  0.00  0.00    -0.083 Cl
ENDBRANCH  20  22
ENDBRANCH  16  18
ENDBRANCH   1  16
TORSDOF 7
