REMARK  Name = ZINC32908322
REMARK  8 active torsions:
REMARK  status: ('A' for Active; 'I' for Inactive)
REMARK    1  A    between atoms: C_1  and  C_2
REMARK    2  A    between atoms: C_4  and  C_7
REMARK    3  A    between atoms: C_10  and  C_13
REMARK    4  A    between atoms: N_15  and  C_16
REMARK    5  A    between atoms: C_16  and  C_17
REMARK    6  A    between atoms: C_17  and  C_19
REMARK    7  A    between atoms: C_17  and  N_24
REMARK    8  A    between atoms: C_27  and  C_30
REMARK                            x       y       z     vdW  Elec       q    Type
REMARK                         _______ _______ _______ _____ _____    ______ ____
ROOT
ATOM      1  C   UNL     1      -3.536   1.528  -3.841  0.00  0.00    +0.244 C 
ATOM      2  O   UNL     1      -3.362   2.296  -4.767  0.00  0.00    -0.270 OA
ATOM      3  N   UNL     1      -2.490   1.124  -3.094  0.00  0.00    -0.313 N 
ATOM      4  H   UNL     1      -2.648   0.429  -2.256  0.00  0.00    +0.149 HD
ENDROOT
BRANCH   1   8
ATOM      5  C   UNL     1      -7.449   0.116  -2.958  0.00  0.00    +0.039 A 
ATOM      6  C   UNL     1      -7.248   0.999  -4.022  0.00  0.00    +0.014 A 
ATOM      7  C   UNL     1      -5.981   1.456  -4.308  0.00  0.00    +0.014 A 
ATOM      8  C   UNL     1      -4.897   1.037  -3.534  0.00  0.00    +0.037 A 
ATOM      9  C   UNL     1      -5.097   0.150  -2.474  0.00  0.00    +0.014 A 
ATOM     10  C   UNL     1      -6.364  -0.302  -2.184  0.00  0.00    +0.014 A 
BRANCH   5  14
ATOM     11  C   UNL     1     -11.346  -2.220  -0.908  0.00  0.00    +0.091 C 
ATOM     12  C   UNL     1     -10.477  -1.361  -1.790  0.00  0.00    +0.169 A 
ATOM     13  N   UNL     1      -9.147  -1.210  -1.686  0.00  0.00    -0.192 NA
ATOM     14  C   UNL     1      -8.809  -0.374  -2.651  0.00  0.00    +0.258 A 
ATOM     15  O   UNL     1      -9.940  -0.062  -3.303  0.00  0.00    -0.333 OA
ATOM     16  N   UNL     1     -10.878  -0.637  -2.792  0.00  0.00    -0.061 NA
ENDBRANCH   5  14
ENDBRANCH   1   8
BRANCH   3  17
ATOM     17  C   UNL     1      -1.142   1.611  -3.398  0.00  0.00    +0.094 C 
BRANCH  17  18
ATOM     18  C   UNL     1      -0.145   1.005  -2.408  0.00  0.00    -0.013 C 
BRANCH  18  19
ATOM     19  N   UNL     1      -0.578   1.298  -1.035  0.00  0.00    +0.386 N 
ATOM     20  C   UNL     1       0.395   0.796  -0.057  0.00  0.00    -0.078 C 
ATOM     21  C   UNL     1      -0.156   0.988   1.357  0.00  0.00    -0.015 C 
ATOM     22  C   UNL     1      -0.425   2.477   1.597  0.00  0.00    -0.018 C 
ATOM     23  C   UNL     1      -1.404   2.987   0.536  0.00  0.00    -0.015 C 
ATOM     24  C   UNL     1      -0.818   2.736  -0.855  0.00  0.00    -0.078 C 
ATOM     25  C   UNL     1      -1.033   2.669   2.988  0.00  0.00    +0.007 C 
ATOM     26  H   UNL     1      -1.530   0.776  -0.860  0.00  0.00    -0.081 HD
ENDBRANCH  18  19
BRANCH  18  27
ATOM     27  C   UNL     1       1.220   1.598  -2.642  0.00  0.00    -0.022 A 
ATOM     28  C   UNL     1       2.325   1.016  -3.167  0.00  0.00    +0.009 A 
ATOM     29  C   UNL     1       3.482   1.762  -3.289  0.00  0.00    +0.008 A 
ATOM     30  C   UNL     1       3.477   3.055  -2.881  0.00  0.00    +0.045 A 
ATOM     31  S   UNL     1       1.798   3.254  -2.306  0.00  0.00    -0.103 S 
ENDBRANCH  18  27
ENDBRANCH  17  18
ENDBRANCH   3  17
TORSDOF 6
