REMARK  Name = ZINC20498098
REMARK  13 active torsions:
REMARK  status: ('A' for Active; 'I' for Inactive)
REMARK    1  A    between atoms: C_1  and  C_2
REMARK    2  A    between atoms: C_4  and  N_21
REMARK    3  A    between atoms: C_6  and  C_9
REMARK    4  A    between atoms: C_7  and  O_8
REMARK    5  A    between atoms: C_13  and  C_18
REMARK    6  A    between atoms: C_18  and  C_19
REMARK    7  A    between atoms: C_18  and  C_20
REMARK    8  A    between atoms: N_21  and  C_22
REMARK    9  A    between atoms: C_22  and  N_24
REMARK   10  A    between atoms: C_25  and  C_27
REMARK   11  A    between atoms: C_27  and  C_28
REMARK   12  A    between atoms: C_28  and  C_29
REMARK   13  A    between atoms: C_28  and  C_30
REMARK                            x       y       z     vdW  Elec       q    Type
REMARK                         _______ _______ _______ _____ _____    ______ ____
ROOT
ATOM      1  C   UNL     1      -5.724   2.988   8.924  0.00  0.00    +0.047 C 
ATOM      2  C   UNL     1      -4.989   1.867   8.236  0.00  0.00    -0.007 A 
ATOM      3  C   UNL     1      -5.192   0.561   8.639  0.00  0.00    +0.030 A 
ATOM      4  C   UNL     1      -4.518  -0.480   8.011  0.00  0.00    +0.034 A 
ATOM      5  C   UNL     1      -3.636  -0.213   6.976  0.00  0.00    +0.040 A 
ATOM      6  C   UNL     1      -3.427   1.104   6.564  0.00  0.00    +0.080 A 
ATOM      7  C   UNL     1      -4.106   2.148   7.206  0.00  0.00    +0.132 A 
ENDROOT
BRANCH   6   8
ATOM      8  C   UNL     1      -2.489   1.396   5.462  0.00  0.00    +0.232 A 
ATOM      9  N   UNL     1      -1.802   0.497   4.802  0.00  0.00    -0.209 NA
ATOM     10  C   UNL     1      -1.048   1.126   3.865  0.00  0.00    +0.110 A 
ATOM     11  C   UNL     1      -0.142   0.681   2.898  0.00  0.00    +0.035 A 
ATOM     12  C   UNL     1       0.480   1.593   2.075  0.00  0.00    -0.043 A 
ATOM     13  C   UNL     1       0.217   2.949   2.202  0.00  0.00    +0.007 A 
ATOM     14  C   UNL     1      -0.679   3.402   3.148  0.00  0.00    +0.049 A 
ATOM     15  C   UNL     1      -1.315   2.499   3.986  0.00  0.00    +0.156 A 
ATOM     16  O   UNL     1      -2.214   2.626   4.988  0.00  0.00    -0.435 OA
BRANCH  12  17
ATOM     17  C   UNL     1       1.457   1.114   1.032  0.00  0.00    +0.013 C 
ATOM     18  C   UNL     1       2.828   1.742   1.291  0.00  0.00    +0.012 C 
ATOM     19  C   UNL     1       0.962   1.525  -0.357  0.00  0.00    +0.012 C 
ENDBRANCH  12  17
ENDBRANCH   6   8
BRANCH   7  20
ATOM     20  O   UNL     1      -3.904   3.433   6.815  0.00  0.00    -0.506 OA
ATOM     21  H   UNL     1      -3.203   3.655   5.997  0.00  0.00    +0.292 HD
ENDBRANCH   7  20
BRANCH   4  22
ATOM     22  N   UNL     1      -4.729  -1.801   8.425  0.00  0.00    -0.297 N 
ATOM     23  H   UNL     1      -5.747  -2.148   8.659  0.00  0.00    +0.154 HD
BRANCH  22  24
ATOM     24  C   UNL     1      -3.687  -2.647   8.538  0.00  0.00    +0.141 C 
ATOM     25  S   UNL     1      -2.090  -2.073   8.313  0.00  0.00    -0.018 S 
BRANCH  24  26
ATOM     26  N   UNL     1      -3.901  -3.946   8.828  0.00  0.00    -0.268 N 
ATOM     27  C   UNL     1      -2.858  -4.792   8.941  0.00  0.00    +0.219 C 
ATOM     28  O   UNL     1      -1.727  -4.386   8.781  0.00  0.00    -0.275 OA
ATOM     29  H   UNL     1      -4.927  -4.315   8.973  0.00  0.00    +0.156 HD
BRANCH  27  30
ATOM     30  C   UNL     1      -3.098  -6.244   9.265  0.00  0.00    +0.099 C 
BRANCH  30  31
ATOM     31  C   UNL     1      -1.758  -6.979   9.335  0.00  0.00    -0.008 C 
ATOM     32  C   UNL     1      -0.937  -6.433  10.505  0.00  0.00    +0.008 C 
ATOM     33  C   UNL     1      -2.006  -8.475   9.540  0.00  0.00    +0.008 C 
ENDBRANCH  30  31
ENDBRANCH  27  30
ENDBRANCH  24  26
ENDBRANCH  22  24
ENDBRANCH   4  22
TORSDOF 8
