REMARK  Name = ZINC09951491
REMARK  7 active torsions:
REMARK  status: ('A' for Active; 'I' for Inactive)
REMARK    1  A    between atoms: C_1  and  C_2
REMARK    2  A    between atoms: C_2  and  C_4
REMARK    3  A    between atoms: C_2  and  S_15
REMARK    4  A    between atoms: N_6  and  C_7
REMARK    5  A    between atoms: S_15  and  C_16
REMARK    6  A    between atoms: C_20  and  S_25
REMARK    7  A    between atoms: S_25  and  N_28
REMARK                            x       y       z     vdW  Elec       q    Type
REMARK                         _______ _______ _______ _____ _____    ______ ____
ROOT
ATOM      1  C   UNL     1       4.358  -3.467  -4.013  0.00  0.00    +0.259 A 
ATOM      2  N   UNL     1       3.658  -3.661  -2.924  0.00  0.00    -0.203 NA
ATOM      3  C   UNL     1       3.905  -2.640  -2.059  0.00  0.00    +0.112 A 
ATOM      4  C   UNL     1       3.451  -2.334  -0.775  0.00  0.00    +0.060 A 
ATOM      5  C   UNL     1       3.897  -1.191  -0.147  0.00  0.00    +0.108 A 
ATOM      6  C   UNL     1       4.801  -0.351  -0.779  0.00  0.00    +0.032 A 
ATOM      7  C   UNL     1       5.261  -0.644  -2.047  0.00  0.00    +0.050 A 
ATOM      8  C   UNL     1       4.819  -1.786  -2.695  0.00  0.00    +0.156 A 
ATOM      9  O   UNL     1       5.075  -2.334  -3.905  0.00  0.00    -0.431 OA
ENDROOT
BRANCH   5  10
ATOM     10  S   UNL     1       3.321  -0.799   1.471  0.00  0.00    +0.061 S 
ATOM     11  O   UNL     1       4.308   0.034   2.063  0.00  0.00    -0.153 OA
ATOM     12  O   UNL     1       2.904  -2.023   2.061  0.00  0.00    -0.153 OA
BRANCH  10  13
ATOM     13  N   UNL     1       1.961   0.129   1.296  0.00  0.00    -0.177 NA
ATOM     14  C   UNL     1       0.634  -0.495   1.215  0.00  0.00    +0.109 C 
ATOM     15  C   UNL     1      -0.070   0.004  -0.051  0.00  0.00    +0.017 C 
ATOM     16  C   UNL     1      -0.095   1.534  -0.046  0.00  0.00    +0.003 C 
ATOM     17  C   UNL     1       1.339   2.069  -0.048  0.00  0.00    +0.017 C 
ATOM     18  C   UNL     1       2.059   1.593   1.218  0.00  0.00    +0.109 C 
ENDBRANCH  10  13
ENDBRANCH   5  10
BRANCH   1  19
ATOM     19  S   UNL     1       4.360  -4.534  -5.416  0.00  0.00    -0.055 S 
BRANCH  19  21
ATOM     20  C   UNL     1       6.910  -3.648  -5.838  0.00  0.00    +0.029 C 
ATOM     21  C   UNL     1       5.522  -3.647  -6.484  0.00  0.00    +0.139 C 
BRANCH  21  22
ATOM     22  C   UNL     1       5.592  -4.329  -7.826  0.00  0.00    +0.230 C 
ATOM     23  O   UNL     1       5.232  -5.481  -7.940  0.00  0.00    -0.274 OA
ATOM     24  N   UNL     1       6.055  -3.658  -8.899  0.00  0.00    -0.283 N 
ATOM     25  H   UNL     1       6.282  -2.718  -8.823  0.00  0.00    +0.155 HD
BRANCH  24  26
ATOM     26  C   UNL     1       6.208  -4.318 -10.125  0.00  0.00    +0.052 A 
ATOM     27  C   UNL     1       5.315  -5.314 -10.495  0.00  0.00    +0.027 A 
ATOM     28  C   UNL     1       5.468  -5.964 -11.704  0.00  0.00    +0.040 A 
ATOM     29  C   UNL     1       6.512  -5.623 -12.548  0.00  0.00    +0.125 A 
ATOM     30  C   UNL     1       7.404  -4.630 -12.182  0.00  0.00    +0.060 A 
ATOM     31  C   UNL     1       7.252  -3.973 -10.975  0.00  0.00    +0.065 A 
ATOM     32 CL   UNL     1       8.366  -2.723 -10.520  0.00  0.00    -0.082 Cl
ATOM     33  F   UNL     1       6.659  -6.261 -13.730  0.00  0.00    -0.205 F 
ENDBRANCH  24  26
ENDBRANCH  21  22
ENDBRANCH  19  21
ENDBRANCH   1  19
TORSDOF 6
