REMARK  Name = ZINC43064043
REMARK  14 active torsions:
REMARK  status: ('A' for Active; 'I' for Inactive)
REMARK    1  A    between atoms: C_1  and  C_2
REMARK    2  A    between atoms: C_2  and  C_4
REMARK    3  A    between atoms: C_2  and  O_20
REMARK    4  A    between atoms: N_6  and  N_7
REMARK    5  A    between atoms: N_10  and  C_11
REMARK    6  A    between atoms: C_11  and  C_12
REMARK    7  A    between atoms: C_12  and  N_13
REMARK    8  A    between atoms: N_13  and  C_14
REMARK    9  A    between atoms: N_13  and  C_17
REMARK   10  A    between atoms: C_14  and  C_15
REMARK   11  A    between atoms: C_14  and  C_16
REMARK   12  A    between atoms: C_17  and  C_18
REMARK   13  A    between atoms: C_17  and  C_19
REMARK   14  A    between atoms: O_20  and  C_21
REMARK                            x       y       z     vdW  Elec       q    Type
REMARK                         _______ _______ _______ _____ _____    ______ ____
ROOT
ATOM      1  N   UNL     1      -5.367  -3.158  -2.296  0.00  0.00    -0.218 N 
ATOM      2  C   UNL     1      -5.936  -2.370  -3.229  0.00  0.00    +0.316 C 
ATOM      3  O   UNL     1      -7.123  -2.474  -3.472  0.00  0.00    -0.251 OA
ATOM      4  N   UNL     1      -5.190  -1.465  -3.894  0.00  0.00    -0.300 N 
ATOM      5  H   UNL     1      -5.904  -3.809  -1.818  0.00  0.00    +0.174 HD
ATOM      6  H   UNL     1      -4.243  -1.382  -3.701  0.00  0.00    +0.150 HD
ENDROOT
BRANCH   1   9
ATOM      7  C   UNL     1      -3.430  -3.827  -1.084  0.00  0.00    +0.270 C 
ATOM      8  O   UNL     1      -4.102  -4.641  -0.486  0.00  0.00    -0.270 OA
ATOM      9  N   UNL     1      -3.999  -3.038  -2.017  0.00  0.00    -0.230 N 
ATOM     10  H   UNL     1      -3.462  -2.387  -2.496  0.00  0.00    +0.173 HD
BRANCH   7  12
ATOM     11  C   UNL     1      -1.681  -2.318  -0.183  0.00  0.00    +0.062 C 
ATOM     12  C   UNL     1      -1.959  -3.697  -0.784  0.00  0.00    +0.257 C 
BRANCH  12  13
ATOM     13  O   UNL     1      -1.572  -4.710   0.147  0.00  0.00    -0.477 OA
BRANCH  13  14
ATOM     14  C   UNL     1      -0.317  -5.218   0.020  0.00  0.00    +0.157 A 
ATOM     15  C   UNL     1       0.566  -4.667  -0.895  0.00  0.00    +0.048 A 
ATOM     16  C   UNL     1       1.841  -5.185  -1.022  0.00  0.00    +0.004 A 
ATOM     17  C   UNL     1       2.237  -6.252  -0.238  0.00  0.00    +0.003 A 
ATOM     18  C   UNL     1       1.359  -6.805   0.676  0.00  0.00    +0.042 A 
ATOM     19  C   UNL     1       0.084  -6.287   0.812  0.00  0.00    +0.165 A 
ATOM     20  F   UNL     1      -0.772  -6.823   1.709  0.00  0.00    -0.202 F 
ENDBRANCH  13  14
ENDBRANCH  12  13
ENDBRANCH   7  12
ENDBRANCH   1   9
BRANCH   4  21
ATOM     21  C   UNL     1      -5.809  -0.608  -4.908  0.00  0.00    +0.087 C 
BRANCH  21  22
ATOM     22  C   UNL     1      -4.750   0.321  -5.506  0.00  0.00    -0.059 C 
BRANCH  22  23
ATOM     23  N   UNL     1      -5.390   1.257  -6.439  0.00  0.00    +0.384 N 
ATOM     24  H   UNL     1      -5.919   0.740  -7.125  0.00  0.00    -0.081 HD
BRANCH  23  25
ATOM     25  C   UNL     1      -6.291   2.149  -5.696  0.00  0.00    -0.074 C 
ATOM     26  C   UNL     1      -5.492   3.323  -5.128  0.00  0.00    -0.014 C 
ATOM     27  C   UNL     1      -7.376   2.677  -6.637  0.00  0.00    -0.014 C 
ENDBRANCH  23  25
BRANCH  23  28
ATOM     28  C   UNL     1      -4.360   2.056  -7.115  0.00  0.00    -0.074 C 
ATOM     29  C   UNL     1      -3.340   1.123  -7.772  0.00  0.00    -0.014 C 
ATOM     30  C   UNL     1      -5.014   2.930  -8.187  0.00  0.00    -0.014 C 
ENDBRANCH  23  28
ENDBRANCH  22  23
ENDBRANCH  21  22
ENDBRANCH   4  21
TORSDOF 9
