REMARK  Name = ZINC35377915
REMARK  12 active torsions:
REMARK  status: ('A' for Active; 'I' for Inactive)
REMARK    1  A    between atoms: C_1  and  C_2
REMARK    2  A    between atoms: C_2  and  C_3
REMARK    3  A    between atoms: C_3  and  C_5
REMARK    4  A    between atoms: C_3  and  S_18
REMARK    5  A    between atoms: N_7  and  C_8
REMARK    6  A    between atoms: C_11  and  C_14
REMARK    7  A    between atoms: C_14  and  O_16
REMARK    8  A    between atoms: O_16  and  C_17
REMARK    9  A    between atoms: S_18  and  C_19
REMARK   10  A    between atoms: C_23  and  C_26
REMARK   11  A    between atoms: C_31  and  N_32
REMARK   12  A    between atoms: C_33  and  C_35
REMARK                            x       y       z     vdW  Elec       q    Type
REMARK                         _______ _______ _______ _____ _____    ______ ____
ROOT
ATOM      1  S   UNL     1       0.153   0.154   3.217  0.00  0.00    -0.072 S 
ENDROOT
BRANCH   1   2
ATOM      2  C   UNL     1       1.381  -0.221   4.423  0.00  0.00    +0.213 A 
ATOM      3  N   UNL     1       1.061  -0.199   5.712  0.00  0.00    -0.180 NA
ATOM      4  C   UNL     1       1.986  -0.481   6.620  0.00  0.00    +0.300 A 
ATOM      5  O   UNL     1       1.687  -0.467   7.941  0.00  0.00    -0.263 OA
ATOM      6  C   UNL     1       3.285  -0.796   6.181  0.00  0.00    +0.161 A 
ATOM      7  N   UNL     1       3.541  -0.800   4.878  0.00  0.00    -0.141 NA
ATOM      8  N   UNL     1       2.612  -0.525   4.030  0.00  0.00    -0.122 NA
BRANCH   6   9
ATOM      9  C   UNL     1       4.352  -1.117   7.158  0.00  0.00    +0.029 A 
ATOM     10  C   UNL     1       4.121  -2.053   8.164  0.00  0.00    +0.012 A 
ATOM     11  C   UNL     1       5.118  -2.349   9.071  0.00  0.00    +0.001 A 
ATOM     12  C   UNL     1       6.348  -1.719   8.987  0.00  0.00    +0.002 A 
ATOM     13  C   UNL     1       6.589  -0.788   7.994  0.00  0.00    +0.024 A 
ATOM     14  C   UNL     1       5.599  -0.486   7.071  0.00  0.00    +0.043 A 
BRANCH  14  15
ATOM     15  N   UNL     1       5.843   0.450   6.062  0.00  0.00    -0.285 N 
ATOM     16  C   UNL     1       7.077   0.565   5.534  0.00  0.00    +0.214 C 
ATOM     17  O   UNL     1       7.954  -0.202   5.870  0.00  0.00    -0.276 OA
ATOM     18  C   UNL     1       7.367   1.646   4.524  0.00  0.00    +0.109 C 
ATOM     19  H   UNL     1       5.123   1.018   5.743  0.00  0.00    +0.155 HD
ENDBRANCH  14  15
ENDBRANCH   6   9
ENDBRANCH   1   2
BRANCH   1  20
ATOM     20  C   UNL     1       0.986  -0.148   1.634  0.00  0.00    +0.140 C 
BRANCH  20  21
ATOM     21  C   UNL     1       1.223  -1.627   1.465  0.00  0.00    +0.231 C 
ATOM     22  O   UNL     1       0.513  -2.424   2.041  0.00  0.00    -0.274 OA
ATOM     23  N   UNL     1       2.223  -2.062   0.674  0.00  0.00    -0.285 N 
ATOM     24  H   UNL     1       2.748  -1.428   0.162  0.00  0.00    +0.155 HD
BRANCH  23  25
ATOM     25  C   UNL     1       2.504  -3.426   0.593  0.00  0.00    +0.033 A 
ATOM     26  C   UNL     1       1.467  -4.352   0.649  0.00  0.00    +0.024 A 
ATOM     27  C   UNL     1       1.741  -5.699   0.569  0.00  0.00    +0.017 A 
ATOM     28  C   UNL     1       3.062  -6.135   0.431  0.00  0.00    +0.059 A 
ATOM     29  C   UNL     1       4.101  -5.202   0.374  0.00  0.00    +0.017 A 
ATOM     30  C   UNL     1       3.819  -3.856   0.450  0.00  0.00    +0.024 A 
BRANCH  28  31
ATOM     31  C   UNL     1       3.359  -7.577   0.345  0.00  0.00    +0.339 C 
ATOM     32  O   UNL     1       2.455  -8.388   0.395  0.00  0.00    -0.245 OA
BRANCH  31  33
ATOM     33  O   UNL     1       4.632  -7.996   0.212  0.00  0.00    -0.464 OA
ATOM     34  C   UNL     1       4.847  -9.407   0.135  0.00  0.00    +0.280 C 
ENDBRANCH  31  33
ENDBRANCH  28  31
ENDBRANCH  23  25
ENDBRANCH  20  21
BRANCH  20  36
ATOM     35  C   UNL     1      -0.026   1.883   0.588  0.00  0.00    +0.005 C 
ATOM     36  C   UNL     1       0.107   0.362   0.490  0.00  0.00    +0.020 C 
ENDBRANCH  20  36
ENDBRANCH   1  20
TORSDOF 9
