REMARK  Name = ZINC42690800
REMARK  10 active torsions:
REMARK  status: ('A' for Active; 'I' for Inactive)
REMARK    1  A    between atoms: C_1  and  C_2
REMARK    2  A    between atoms: C_2  and  C_3
REMARK    3  A    between atoms: C_3  and  C_4
REMARK    4  A    between atoms: C_4  and  N_5
REMARK    5  A    between atoms: N_5  and  C_6
REMARK    6  A    between atoms: N_5  and  C_10
REMARK    7  A    between atoms: C_6  and  C_7
REMARK    8  A    between atoms: C_10  and  C_11
REMARK    9  A    between atoms: N_13  and  C_14
REMARK   10  A    between atoms: C_16  and  N_21
REMARK                            x       y       z     vdW  Elec       q    Type
REMARK                         _______ _______ _______ _____ _____    ______ ____
ROOT
ATOM      1  C   UNL     1       2.465  -4.066  -3.639  0.00  0.00    +0.201 C 
ATOM      2  O   UNL     1       2.924  -3.075  -4.168  0.00  0.00    -0.278 OA
ATOM      3  N   UNL     1       2.727  -5.285  -4.151  0.00  0.00    -0.286 N 
ATOM      4  H   UNL     1       2.309  -6.072  -3.768  0.00  0.00    +0.155 HD
ENDROOT
BRANCH   3   5
ATOM      5  C   UNL     1       3.603  -5.416  -5.235  0.00  0.00    +0.054 A 
ATOM      6  C   UNL     1       4.675  -4.546  -5.370  0.00  0.00    +0.047 A 
ATOM      7  C   UNL     1       5.541  -4.678  -6.447  0.00  0.00    +0.026 A 
ATOM      8  C   UNL     1       5.332  -5.681  -7.386  0.00  0.00    +0.024 A 
ATOM      9  C   UNL     1       4.263  -6.546  -7.249  0.00  0.00    +0.023 A 
ATOM     10  C   UNL     1       3.402  -6.420  -6.175  0.00  0.00    +0.062 A 
ATOM     11 CL   UNL     1       2.065  -7.514  -6.003  0.00  0.00    -0.082 Cl
BRANCH   7  12
ATOM     12  N   UNL     1       6.622  -3.804  -6.587  0.00  0.00    -0.358 N 
ATOM     13  H   UNL     1       6.767  -3.104  -5.931  0.00  0.00    +0.142 HD
ATOM     14  H   UNL     1       7.227  -3.897  -7.339  0.00  0.00    +0.142 HD
ENDBRANCH   7  12
ENDBRANCH   3   5
BRANCH   1  15
ATOM     15  C   UNL     1       1.602  -3.934  -2.411  0.00  0.00    +0.020 C 
BRANCH  15  16
ATOM     16  N   UNL     1       1.468  -2.515  -2.057  0.00  0.00    +0.391 N 
ATOM     17  H   UNL     1       2.385  -2.107  -1.950  0.00  0.00    -0.080 HD
BRANCH  16  18
ATOM     18  C   UNL     1       0.728  -2.393  -0.794  0.00  0.00    -0.078 C 
BRANCH  18  19
ATOM     19  C   UNL     1       1.550  -3.008   0.340  0.00  0.00    -0.019 C 
BRANCH  19  21
ATOM     20  C   UNL     1       1.663  -3.380   2.808  0.00  0.00    +0.004 C 
ATOM     21  C   UNL     1       0.841  -2.765   1.674  0.00  0.00    -0.005 C 
ENDBRANCH  19  21
ENDBRANCH  18  19
ENDBRANCH  16  18
BRANCH  16  22
ATOM     22  C   UNL     1       0.740  -1.811  -3.121  0.00  0.00    +0.019 C 
BRANCH  22  23
ATOM     23  C   UNL     1       0.761  -0.329  -2.848  0.00  0.00    +0.194 C 
ATOM     24  O   UNL     1       1.273   0.094  -1.833  0.00  0.00    -0.278 OA
ATOM     25  N   UNL     1       0.212   0.527  -3.733  0.00  0.00    -0.331 N 
ATOM     26  H   UNL     1      -0.197   0.189  -4.545  0.00  0.00    +0.145 HD
ATOM     27  H   UNL     1       0.225   1.481  -3.557  0.00  0.00    +0.145 HD
ENDBRANCH  22  23
ENDBRANCH  16  22
ENDBRANCH  15  16
ENDBRANCH   1  15
TORSDOF 9
