REMARK  Name = ZINC42487858
REMARK  7 active torsions:
REMARK  status: ('A' for Active; 'I' for Inactive)
REMARK    1  A    between atoms: C_1  and  C_2
REMARK    2  A    between atoms: C_3  and  C_17
REMARK    3  A    between atoms: C_4  and  N_8
REMARK    4  A    between atoms: N_5  and  C_7
REMARK    5  A    between atoms: N_8  and  C_9
REMARK    6  A    between atoms: N_8  and  C_10
REMARK    7  A    between atoms: C_13  and  C_16
REMARK                            x       y       z     vdW  Elec       q    Type
REMARK                         _______ _______ _______ _____ _____    ______ ____
ROOT
ATOM      1  C   UNL     1       3.233  -0.464  -2.395  0.00  0.00    +0.068 C 
ATOM      2  C   UNL     1       1.946  -0.447  -1.609  0.00  0.00    +0.072 A 
ATOM      3  C   UNL     1       1.053  -1.537  -1.454  0.00  0.00    +0.076 A 
ATOM      4  C   UNL     1      -0.002  -1.085  -0.655  0.00  0.00    +0.130 A 
ATOM      5  N   UNL     1       0.255   0.203  -0.354  0.00  0.00    -0.253 N 
ATOM      6  N   UNL     1       1.466   0.568  -0.952  0.00  0.00    -0.174 NA
ATOM      7  C   UNL     1      -0.590   1.075   0.466  0.00  0.00    +0.174 C 
ENDROOT
BRANCH   4   8
ATOM      8  N   UNL     1      -1.096  -1.817  -0.253  0.00  0.00    -0.315 N 
ATOM      9  C   UNL     1      -2.122  -2.199  -1.227  0.00  0.00    +0.131 C 
BRANCH   8  10
ATOM     10  C   UNL     1      -1.235  -2.215   1.150  0.00  0.00    +0.075 C 
ATOM     11  C   UNL     1       0.151  -2.455   1.752  0.00  0.00    +0.023 C 
ATOM     12  C   UNL     1       0.859  -3.566   0.975  0.00  0.00    +0.005 C 
ATOM     13  C   UNL     1       0.036  -4.853   1.061  0.00  0.00    -0.014 C 
ATOM     14  C   UNL     1      -1.350  -4.614   0.459  0.00  0.00    +0.005 C 
ATOM     15  C   UNL     1      -2.058  -3.502   1.236  0.00  0.00    +0.023 C 
ATOM     16  C   UNL     1       0.745  -5.964   0.284  0.00  0.00    +0.007 C 
ENDBRANCH   8  10
ENDBRANCH   4   8
BRANCH   3  17
ATOM     17  C   UNL     1       1.199  -2.833  -2.004  0.00  0.00    +0.264 C 
ATOM     18  O   UNL     1       2.132  -3.078  -2.741  0.00  0.00    -0.296 OA
ENDBRANCH   3  17
TORSDOF 3
