REMARK  Name = ZINC35377920
REMARK  11 active torsions:
REMARK  status: ('A' for Active; 'I' for Inactive)
REMARK    1  A    between atoms: C_1  and  C_2
REMARK    2  A    between atoms: C_2  and  C_3
REMARK    3  A    between atoms: C_3  and  C_5
REMARK    4  A    between atoms: C_3  and  S_16
REMARK    5  A    between atoms: N_7  and  C_8
REMARK    6  A    between atoms: C_11  and  C_15
REMARK    7  A    between atoms: C_13  and  C_14
REMARK    8  A    between atoms: S_16  and  C_17
REMARK    9  A    between atoms: C_21  and  C_24
REMARK   10  A    between atoms: C_29  and  N_30
REMARK   11  A    between atoms: C_31  and  C_33
REMARK                            x       y       z     vdW  Elec       q    Type
REMARK                         _______ _______ _______ _____ _____    ______ ____
ROOT
ATOM      1  C   UNL     1      -3.551  -0.761   1.670  0.00  0.00    +0.213 A 
ATOM      2  N   UNL     1      -4.409  -0.316   2.580  0.00  0.00    -0.180 NA
ATOM      3  C   UNL     1      -5.632  -0.830   2.631  0.00  0.00    +0.300 A 
ATOM      4  O   UNL     1      -6.528  -0.395   3.549  0.00  0.00    -0.263 OA
ATOM      5  C   UNL     1      -5.977  -1.836   1.711  0.00  0.00    +0.161 A 
ATOM      6  N   UNL     1      -5.072  -2.237   0.825  0.00  0.00    -0.141 NA
ATOM      7  N   UNL     1      -3.899  -1.707   0.807  0.00  0.00    -0.122 NA
ENDROOT
BRANCH   5   8
ATOM      8  C   UNL     1      -7.329  -2.441   1.729  0.00  0.00    +0.029 A 
ATOM      9  C   UNL     1      -7.920  -2.798   2.940  0.00  0.00    +0.012 A 
ATOM     10  C   UNL     1      -9.180  -3.361   2.952  0.00  0.00    +0.001 A 
ATOM     11  C   UNL     1      -9.861  -3.572   1.765  0.00  0.00    +0.002 A 
ATOM     12  C   UNL     1      -9.286  -3.223   0.559  0.00  0.00    +0.024 A 
ATOM     13  C   UNL     1      -8.023  -2.650   0.531  0.00  0.00    +0.043 A 
BRANCH  13  14
ATOM     14  N   UNL     1      -7.442  -2.290  -0.688  0.00  0.00    -0.285 N 
ATOM     15  C   UNL     1      -7.792  -2.936  -1.818  0.00  0.00    +0.214 C 
ATOM     16  O   UNL     1      -8.674  -3.768  -1.792  0.00  0.00    -0.276 OA
ATOM     17  C   UNL     1      -7.088  -2.623  -3.113  0.00  0.00    +0.109 C 
ATOM     18  H   UNL     1      -6.787  -1.575  -0.721  0.00  0.00    +0.155 HD
ENDBRANCH  13  14
ENDBRANCH   5   8
BRANCH   1  19
ATOM     19  S   UNL     1      -1.927  -0.079   1.602  0.00  0.00    -0.072 S 
BRANCH  19  20
ATOM     20  C   UNL     1      -1.180  -0.869   0.150  0.00  0.00    +0.140 C 
BRANCH  20  21
ATOM     21  C   UNL     1      -1.019  -2.345   0.408  0.00  0.00    +0.231 C 
ATOM     22  O   UNL     1      -1.021  -2.765   1.546  0.00  0.00    -0.274 OA
ATOM     23  N   UNL     1      -0.873  -3.198  -0.625  0.00  0.00    -0.284 N 
ATOM     24  H   UNL     1      -0.944  -2.873  -1.536  0.00  0.00    +0.155 HD
BRANCH  23  25
ATOM     25  C   UNL     1      -0.618  -4.552  -0.383  0.00  0.00    +0.036 A 
ATOM     26  C   UNL     1      -0.038  -4.948   0.816  0.00  0.00    +0.024 A 
ATOM     27  C   UNL     1       0.212  -6.285   1.051  0.00  0.00    +0.005 A 
ATOM     28  C   UNL     1      -0.113  -7.230   0.095  0.00  0.00    -0.050 A 
ATOM     29  C   UNL     1      -0.690  -6.839  -1.099  0.00  0.00    +0.008 A 
ATOM     30  C   UNL     1      -0.949  -5.504  -1.338  0.00  0.00    -0.029 A 
ATOM     31  C   UNL     1      -1.583  -5.079  -2.638  0.00  0.00    +0.045 C 
ATOM     32  C   UNL     1       0.162  -8.689   0.355  0.00  0.00    +0.044 C 
ENDBRANCH  23  25
ENDBRANCH  20  21
BRANCH  20  34
ATOM     33  C   UNL     1       0.016   1.224  -0.508  0.00  0.00    +0.005 C 
ATOM     34  C   UNL     1       0.191  -0.246  -0.121  0.00  0.00    +0.020 C 
ENDBRANCH  20  34
ENDBRANCH  19  20
ENDBRANCH   1  19
TORSDOF 7
