REMARK  Name = ZINC45773313
REMARK  10 active torsions:
REMARK  status: ('A' for Active; 'I' for Inactive)
REMARK    1  A    between atoms: C_1  and  C_2
REMARK    2  A    between atoms: C_3  and  C_31
REMARK    3  A    between atoms: N_9  and  C_12
REMARK    4  A    between atoms: C_12  and  C_13
REMARK    5  A    between atoms: C_13  and  C_14
REMARK    6  A    between atoms: N_16  and  C_17
REMARK    7  A    between atoms: C_17  and  C_18
REMARK    8  A    between atoms: C_18  and  C_19
REMARK    9  A    between atoms: C_22  and  C_25
REMARK   10  A    between atoms: C_28  and  C_30
REMARK                            x       y       z     vdW  Elec       q    Type
REMARK                         _______ _______ _______ _____ _____    ______ ____
ROOT
ATOM      1  C   UNL     1      -1.379   0.003   6.905  0.00  0.00    +0.215 C 
ATOM      2  O   UNL     1      -0.326   0.220   7.467  0.00  0.00    -0.276 OA
ATOM      3  N   UNL     1      -2.543   0.212   7.550  0.00  0.00    -0.315 N 
ATOM      4  H   UNL     1      -3.385   0.038   7.101  0.00  0.00    +0.149 HD
ENDROOT
BRANCH   1   5
ATOM      5  C   UNL     1      -1.384  -0.501   5.485  0.00  0.00    +0.117 C 
BRANCH   5   6
ATOM      6  C   UNL     1       0.056  -0.652   4.991  0.00  0.00    +0.135 C 
BRANCH   6  15
ATOM      7  C   UNL     1      -0.018   1.503   0.010  0.00  0.00    +0.045 C 
ATOM      8  C   UNL     1       0.002  -0.004   0.002  0.00  0.00    -0.026 A 
ATOM      9  C   UNL     1       0.006  -0.677  -1.160  0.00  0.00    -0.008 A 
ATOM     10  S   UNL     1       0.032  -2.385  -0.648  0.00  0.00    -0.073 S 
ATOM     11  C   UNL     1       0.037  -2.144   1.110  0.00  0.00    +0.116 A 
ATOM     12  C   UNL     1       0.024  -0.745   1.250  0.00  0.00    +0.075 A 
ATOM     13  C   UNL     1       0.029  -0.257   2.597  0.00  0.00    +0.262 A 
ATOM     14  O   UNL     1       0.014   0.942   2.821  0.00  0.00    -0.267 OA
ATOM     15  N   UNL     1       0.051  -1.142   3.611  0.00  0.00    -0.298 N 
ATOM     16  C   UNL     1       0.068  -2.480   3.380  0.00  0.00    +0.203 A 
ATOM     17  N   UNL     1       0.053  -2.956   2.163  0.00  0.00    -0.230 NA
ATOM     18  C   UNL     1      -0.009  -0.122  -2.561  0.00  0.00    +0.052 C 
ENDBRANCH   6  15
ENDBRANCH   5   6
ENDBRANCH   1   5
BRANCH   3  19
ATOM     19  C   UNL     1      -2.538   0.702   8.931  0.00  0.00    +0.109 C 
BRANCH  19  20
ATOM     20  C   UNL     1      -3.978   0.853   9.424  0.00  0.00    +0.054 C 
BRANCH  20  21
ATOM     21  C   UNL     1      -3.972   1.357  10.845  0.00  0.00    -0.046 A 
ATOM     22  C   UNL     1      -3.945   0.457  11.895  0.00  0.00    +0.004 A 
ATOM     23  C   UNL     1      -3.939   0.913  13.197  0.00  0.00    +0.010 A 
ATOM     24  C   UNL     1      -3.962   2.283  13.454  0.00  0.00    +0.001 A 
ATOM     25  C   UNL     1      -3.990   3.185  12.391  0.00  0.00    +0.010 A 
ATOM     26  C   UNL     1      -3.989   2.717  11.093  0.00  0.00    +0.004 A 
BRANCH  24  27
ATOM     27  C   UNL     1      -3.957   2.779  14.852  0.00  0.00    +0.078 A 
ATOM     28  C   UNL     1      -3.984   4.117  15.142  0.00  0.00    +0.075 A 
ATOM     29  S   UNL     1      -3.962   4.068  16.926  0.00  0.00    -0.080 S 
ATOM     30  C   UNL     1      -3.923   2.396  17.115  0.00  0.00    +0.076 A 
ATOM     31  N   UNL     1      -3.932   1.950  15.886  0.00  0.00    -0.244 NA
ATOM     32  C   UNL     1      -3.890   1.602  18.395  0.00  0.00    +0.073 C 
ENDBRANCH  24  27
ENDBRANCH  20  21
ENDBRANCH  19  20
ENDBRANCH   3  19
TORSDOF 7
