REMARK  Name = ZINC18206163
REMARK  11 active torsions:
REMARK  status: ('A' for Active; 'I' for Inactive)
REMARK    1  A    between atoms: C_1  and  C_2
REMARK    2  A    between atoms: C_2  and  N_3
REMARK    3  A    between atoms: N_3  and  C_4
REMARK    4  A    between atoms: N_3  and  S_6
REMARK    5  A    between atoms: C_4  and  C_5
REMARK    6  A    between atoms: S_6  and  C_9
REMARK    7  A    between atoms: C_12  and  C_15
REMARK    8  A    between atoms: C_15  and  N_16
REMARK    9  A    between atoms: C_17  and  C_19
REMARK   10  A    between atoms: C_19  and  O_20
REMARK   11  A    between atoms: O_20  and  C_21
REMARK                            x       y       z     vdW  Elec       q    Type
REMARK                         _______ _______ _______ _____ _____    ______ ____
ROOT
ATOM      1  C   UNL     1      -2.012   2.463   3.523  0.00  0.00    +0.105 A 
ATOM      2  C   UNL     1      -2.366   1.254   2.955  0.00  0.00    +0.029 A 
ATOM      3  C   UNL     1      -1.719   0.808   1.818  0.00  0.00    +0.007 A 
ATOM      4  C   UNL     1      -0.718   1.572   1.248  0.00  0.00    -0.030 A 
ATOM      5  C   UNL     1      -0.360   2.779   1.819  0.00  0.00    +0.007 A 
ATOM      6  C   UNL     1      -1.010   3.227   2.953  0.00  0.00    +0.029 A 
ENDROOT
BRANCH   1   7
ATOM      7  S   UNL     1      -2.837   3.032   4.972  0.00  0.00    +0.061 S 
ATOM      8  O   UNL     1      -2.695   4.446   4.992  0.00  0.00    -0.153 OA
ATOM      9  O   UNL     1      -4.107   2.394   4.993  0.00  0.00    -0.153 OA
BRANCH   7  10
ATOM     10  N   UNL     1      -1.995   2.453   6.274  0.00  0.00    -0.177 NA
BRANCH  10  12
ATOM     11  C   UNL     1      -1.434   4.069   8.023  0.00  0.00    +0.022 C 
ATOM     12  C   UNL     1      -0.903   3.243   6.850  0.00  0.00    +0.106 C 
ENDBRANCH  10  12
BRANCH  10  13
ATOM     13  C   UNL     1      -2.341   1.152   6.851  0.00  0.00    +0.106 C 
ATOM     14  C   UNL     1      -1.439   0.072   6.251  0.00  0.00    +0.022 C 
ENDBRANCH  10  13
ENDBRANCH   7  10
ENDBRANCH   1   7
BRANCH   4  15
ATOM     15  C   UNL     1      -0.013   1.086   0.008  0.00  0.00    +0.139 C 
BRANCH  15  16
ATOM     16  N   UNL     1      -0.721   1.571  -1.179  0.00  0.00    -0.308 N 
ATOM     17  C   UNL     1      -0.268   1.258  -2.409  0.00  0.00    +0.251 C 
ATOM     18  O   UNL     1       0.726   0.575  -2.534  0.00  0.00    -0.272 OA
ATOM     19  H   UNL     1      -1.516   2.118  -1.079  0.00  0.00    +0.149 HD
BRANCH  17  20
ATOM     20  C   UNL     1      -0.997   1.758  -3.630  0.00  0.00    +0.324 C 
BRANCH  20  21
ATOM     21  O   UNL     1      -0.328   1.297  -4.806  0.00  0.00    -0.483 OA
BRANCH  21  22
ATOM     22  C   UNL     1      -0.861   1.661  -6.002  0.00  0.00    +0.121 A 
ATOM     23  C   UNL     1      -2.007   2.442  -6.042  0.00  0.00    +0.047 A 
ATOM     24  C   UNL     1      -2.544   2.816  -7.259  0.00  0.00    +0.019 A 
ATOM     25  C   UNL     1      -1.945   2.404  -8.436  0.00  0.00    +0.018 A 
ATOM     26  C   UNL     1      -0.806   1.621  -8.398  0.00  0.00    +0.019 A 
ATOM     27  C   UNL     1      -0.263   1.249  -7.183  0.00  0.00    +0.047 A 
ATOM     28 BR   UNL     1      -2.686   2.912 -10.100  0.00  0.00    -0.050 Br
ENDBRANCH  21  22
ENDBRANCH  20  21
ENDBRANCH  17  20
ENDBRANCH  15  16
ENDBRANCH   4  15
TORSDOF 9
