REMARK  Name = ZINC19645162
REMARK  7 active torsions:
REMARK  status: ('A' for Active; 'I' for Inactive)
REMARK    1  A    between atoms: C_1  and  C_2
REMARK    2  A    between atoms: C_2  and  C_3
REMARK    3  A    between atoms: C_10  and  N_20
REMARK    4  A    between atoms: C_11  and  C_12
REMARK    5  A    between atoms: N_14  and  C_15
REMARK    6  A    between atoms: C_21  and  C_23
REMARK    7  A    between atoms: C_29  and  C_31
REMARK                            x       y       z     vdW  Elec       q    Type
REMARK                         _______ _______ _______ _____ _____    ______ ____
ROOT
ATOM      1  C   UNL     1       3.959  -1.296   0.336  0.00  0.00    -0.006 C 
ATOM      2  C   UNL     1       4.464  -0.116  -0.499  0.00  0.00    +0.008 C 
ATOM      3  C   UNL     1       3.798   1.178  -0.029  0.00  0.00    +0.037 C 
ATOM      4  C   UNL     1       2.288   0.974  -0.015  0.00  0.00    -0.023 A 
ATOM      5  C   UNL     1       1.753  -0.266  -0.016  0.00  0.00    -0.004 A 
ATOM      6  S   UNL     1       0.002  -0.004   0.002  0.00  0.00    -0.077 S 
ATOM      7  C   UNL     1      -0.021   1.728   0.011  0.00  0.00    +0.084 A 
ATOM      8  C   UNL     1       1.325   2.063   0.001  0.00  0.00    +0.069 A 
ATOM      9  C   UNL     1       2.492  -1.568  -0.029  0.00  0.00    +0.046 C 
ENDROOT
BRANCH   8  10
ATOM     10  C   UNL     1       1.761   3.463   0.004  0.00  0.00    +0.247 C 
ATOM     11  O   UNL     1       1.952   4.038   1.059  0.00  0.00    -0.270 OA
ATOM     12  N   UNL     1       1.950   4.113  -1.161  0.00  0.00    -0.308 N 
ATOM     13  H   UNL     1       1.777   3.593  -2.115  0.00  0.00    +0.149 HD
BRANCH  12  14
ATOM     14  C   UNL     1       2.385   5.512  -1.158  0.00  0.00    +0.073 C 
ATOM     15  C   UNL     1       1.161   6.446  -1.067  0.00  0.00    +0.022 C 
ATOM     16  C   UNL     1       1.532   7.647  -1.973  0.00  0.00    +0.002 C 
ATOM     17  C   UNL     1       2.280   6.971  -3.149  0.00  0.00    +0.002 C 
ATOM     18  C   UNL     1       3.097   5.846  -2.481  0.00  0.00    +0.022 C 
ENDBRANCH  12  14
ENDBRANCH   8  10
BRANCH   7  19
ATOM     19  N   UNL     1      -1.119   2.575   0.022  0.00  0.00    -0.279 N 
ATOM     20  C   UNL     1      -2.366   2.062   0.026  0.00  0.00    +0.221 C 
ATOM     21  O   UNL     1      -2.527   0.860   0.020  0.00  0.00    -0.275 OA
ATOM     22  H   UNL     1      -0.973   3.665   0.027  0.00  0.00    +0.155 HD
BRANCH  20  23
ATOM     23  C   UNL     1      -3.559   2.983   0.037  0.00  0.00    +0.089 C 
ATOM     24  C   UNL     1      -3.516   3.859   1.290  0.00  0.00    +0.013 C 
ATOM     25  C   UNL     1      -3.546   2.970   2.535  0.00  0.00    +0.001 C 
ATOM     26  C   UNL     1      -4.831   2.139   2.538  0.00  0.00    +0.001 C 
ATOM     27  C   UNL     1      -4.874   1.263   1.284  0.00  0.00    +0.015 C 
ATOM     28  C   UNL     1      -4.844   2.152   0.039  0.00  0.00    +0.114 C 
BRANCH  28  29
ATOM     29  C   UNL     1      -4.886   1.289  -1.196  0.00  0.00    +0.360 C 
ATOM     30  O   UNL     1      -3.982   1.334  -1.995  0.00  0.00    -0.246 OA
ATOM     31  O   UNL     1      -5.929   0.470  -1.407  0.00  0.00    -0.246 OA
ENDBRANCH  28  29
ENDBRANCH  20  23
ENDBRANCH   7  19
BRANCH   1  33
ATOM     32  C   UNL     1       4.365  -3.684   0.947  0.00  0.00    +0.004 C 
ATOM     33  C   UNL     1       4.801  -2.537   0.035  0.00  0.00    +0.000 C 
ENDBRANCH   1  33
TORSDOF 6
