REMARK  Name = ZINC13093405
REMARK  8 active torsions:
REMARK  status: ('A' for Active; 'I' for Inactive)
REMARK    1  A    between atoms: C_1  and  N_2
REMARK    2  A    between atoms: C_3  and  C_22
REMARK    3  A    between atoms: C_6  and  S_7
REMARK    4  A    between atoms: S_7  and  C_8
REMARK    5  A    between atoms: C_8  and  C_9
REMARK    6  A    between atoms: N_11  and  C_12
REMARK    7  A    between atoms: C_14  and  C_20
REMARK    8  A    between atoms: C_16  and  C_18
REMARK                            x       y       z     vdW  Elec       q    Type
REMARK                         _______ _______ _______ _____ _____    ______ ____
ROOT
ATOM      1  C   UNL     1       8.379   6.416  -0.966  0.00  0.00    +0.227 C 
ATOM      2  O   UNL     1       7.800   7.479  -1.027  0.00  0.00    -0.275 OA
ATOM      3  N   UNL     1       9.714   6.364  -1.143  0.00  0.00    -0.285 N 
ATOM      4  H   UNL     1      10.168   5.508  -1.164  0.00  0.00    +0.155 HD
ENDROOT
BRANCH   3   5
ATOM      5  C   UNL     1      10.446   7.548  -1.296  0.00  0.00    +0.035 A 
ATOM      6  C   UNL     1       9.893   8.619  -1.983  0.00  0.00    +0.038 A 
ATOM      7  C   UNL     1      10.618   9.803  -2.134  0.00  0.00    +0.066 A 
ATOM      8  C   UNL     1      11.902   9.904  -1.602  0.00  0.00    +0.030 A 
ATOM      9  C   UNL     1      12.456   8.825  -0.917  0.00  0.00    +0.066 A 
ATOM     10  C   UNL     1      11.724   7.645  -0.766  0.00  0.00    +0.038 A 
BRANCH   9  11
ATOM     11  C   UNL     1      13.818   8.927  -0.352  0.00  0.00    +0.387 C 
ATOM     12  O   UNL     1      14.300   7.986   0.245  0.00  0.00    -0.241 OA
ATOM     13  O   UNL     1      14.523  10.065  -0.498  0.00  0.00    -0.241 OA
ENDBRANCH   9  11
BRANCH   7  14
ATOM     14  C   UNL     1      10.026  10.945  -2.861  0.00  0.00    +0.387 C 
ATOM     15  O   UNL     1       8.906  10.856  -3.324  0.00  0.00    -0.241 OA
ATOM     16  O   UNL     1      10.727  12.085  -3.010  0.00  0.00    -0.241 OA
ENDBRANCH   7  14
ENDBRANCH   3   5
BRANCH   1  17
ATOM     17  C   UNL     1       7.606   5.151  -0.691  0.00  0.00    +0.173 C 
BRANCH  17  18
ATOM     18  S   UNL     1       5.850   5.546  -0.502  0.00  0.00    -0.078 S 
BRANCH  18  24
ATOM     19  C   UNL     1       2.776   4.576   0.051  0.00  0.00    +0.151 C 
ATOM     20  N   UNL     1       3.896   3.633   0.022  0.00  0.00    -0.322 N 
ATOM     21  C   UNL     1       3.826   2.263   0.212  0.00  0.00    +0.069 A 
ATOM     22  C   UNL     1       5.096   1.791   0.105  0.00  0.00    +0.140 A 
ATOM     23  N   UNL     1       5.907   2.825  -0.149  0.00  0.00    -0.230 NA
ATOM     24  C   UNL     1       5.205   3.935  -0.199  0.00  0.00    +0.170 A 
BRANCH  21  25
ATOM     25  C   UNL     1       2.610   1.471   0.486  0.00  0.00    +0.000 A 
ATOM     26  C   UNL     1       2.599   0.096   0.243  0.00  0.00    +0.010 A 
ATOM     27  C   UNL     1       1.460  -0.638   0.500  0.00  0.00    +0.001 A 
ATOM     28  C   UNL     1       0.330  -0.015   0.999  0.00  0.00    +0.000 A 
ATOM     29  C   UNL     1       0.333   1.347   1.241  0.00  0.00    +0.001 A 
ATOM     30  C   UNL     1       1.465   2.093   0.988  0.00  0.00    +0.010 A 
ENDBRANCH  21  25
ENDBRANCH  18  24
ENDBRANCH  17  18
ENDBRANCH   1  17
TORSDOF 7
