REMARK  Name = ZINC39451591
REMARK  0 active torsions:
REMARK  status: ('A' for Active; 'I' for Inactive)
REMARK                            x       y       z     vdW  Elec       q    Type
REMARK                         _______ _______ _______ _____ _____    ______ ____
ROOT
ATOM      1  C   UNL     1      -0.017   1.391   0.010  0.00  0.00    +0.032 A 
ATOM      2  C   UNL     1       1.198   2.057   0.002  0.00  0.00    +0.037 A 
ATOM      3  C   UNL     1       2.380   1.328  -0.013  0.00  0.00    +0.126 A 
ATOM      4  N   UNL     1       2.377   0.013  -0.020  0.00  0.00    -0.252 NA
ATOM      5  C   UNL     1       1.243  -0.677  -0.012  0.00  0.00    +0.099 A 
ATOM      6  C   UNL     1       0.002  -0.004   0.002  0.00  0.00    +0.070 A 
ATOM      7  C   UNL     1      -1.236  -0.796   0.009  0.00  0.00    +0.289 A 
ATOM      8  O   UNL     1      -2.317  -0.236   0.022  0.00  0.00    -0.265 OA
ATOM      9  N   UNL     1      -1.175  -2.140  -0.001  0.00  0.00    -0.136 N 
ATOM     10  C   UNL     1       0.032  -2.826  -0.017  0.00  0.00    +0.144 A 
ATOM     11  C   UNL     1       1.236  -2.146  -0.018  0.00  0.00    +0.084 A 
ATOM     12  N   UNL     1       2.425  -2.850  -0.019  0.00  0.00    -0.328 N 
ATOM     13  C   UNL     1       2.434  -4.204   0.556  0.00  0.00    +0.141 C 
ATOM     14  C   UNL     1       1.314  -5.014  -0.106  0.00  0.00    +0.114 C 
ATOM     15  C   UNL     1       0.025  -4.240  -0.029  0.00  0.00    +0.186 C 
ATOM     16  O   UNL     1      -1.032  -4.837   0.024  0.00  0.00    -0.290 OA
ATOM     17  I   UNL     1       2.091  -4.092   2.688  0.00  0.00    -0.061 I 
ATOM     18  F   UNL     1      -2.284  -2.819   0.005  0.00  0.00    -0.090 F 
ATOM     19 BR   UNL     1       1.246   3.948   0.011  0.00  0.00    -0.049 Br
ATOM     20  H   UNL     1       3.232  -2.462  -0.390  0.00  0.00    +0.147 HD
ENDROOT
TORSDOF 0
