REMARK  Name = ZINC63514082
REMARK  8 active torsions:
REMARK  status: ('A' for Active; 'I' for Inactive)
REMARK    1  A    between atoms: C_1  and  C_2
REMARK    2  A    between atoms: C_4  and  C_12
REMARK    3  A    between atoms: C_12  and  C_13
REMARK    4  A    between atoms: C_13  and  N_14
REMARK    5  A    between atoms: N_14  and  S_15
REMARK    6  A    between atoms: S_15  and  C_18
REMARK    7  A    between atoms: C_22  and  S_24
REMARK    8  A    between atoms: S_24  and  C_27
REMARK                            x       y       z     vdW  Elec       q    Type
REMARK                         _______ _______ _______ _____ _____    ______ ____
ROOT
ATOM      1  S   UNL     1      -6.173  -1.781  -1.543  0.00  0.00    +0.058 S 
ATOM      2  O   UNL     1      -7.005  -1.306  -2.593  0.00  0.00    -0.153 OA
ATOM      3  O   UNL     1      -5.721  -3.126  -1.479  0.00  0.00    -0.153 OA
ENDROOT
BRANCH   1   4
ATOM      4  C   UNL     1      -7.031  -1.465  -0.037  0.00  0.00    +0.107 A 
ATOM      5  C   UNL     1      -6.747  -2.213   1.090  0.00  0.00    +0.028 A 
ATOM      6  C   UNL     1      -7.420  -1.966   2.272  0.00  0.00    +0.004 A 
ATOM      7  C   UNL     1      -8.378  -0.970   2.326  0.00  0.00    +0.027 A 
ATOM      8  C   UNL     1      -8.662  -0.222   1.199  0.00  0.00    +0.095 A 
ATOM      9  C   UNL     1      -7.985  -0.467   0.018  0.00  0.00    +0.056 A 
BRANCH   8  10
ATOM     10  S   UNL     1      -9.883   1.046   1.267  0.00  0.00    +0.025 S 
ATOM     11  O   UNL     1     -10.348   1.235  -0.062  0.00  0.00    -0.164 OA
ATOM     12  O   UNL     1     -10.755   0.713   2.339  0.00  0.00    -0.164 OA
BRANCH  10  13
ATOM     13  C   UNL     1      -9.062   2.535   1.730  0.00  0.00    +0.094 A 
ATOM     14  C   UNL     1      -8.931   2.866   3.065  0.00  0.00    +0.029 A 
ATOM     15  C   UNL     1      -8.287   4.034   3.429  0.00  0.00    +0.022 A 
ATOM     16  C   UNL     1      -7.774   4.872   2.455  0.00  0.00    +0.041 A 
ATOM     17  C   UNL     1      -7.906   4.541   1.118  0.00  0.00    +0.022 A 
ATOM     18  C   UNL     1      -8.545   3.370   0.756  0.00  0.00    +0.029 A 
ATOM     19 CL   UNL     1      -6.966   6.340   2.910  0.00  0.00    -0.084 Cl
ENDBRANCH  10  13
ENDBRANCH   8  10
ENDBRANCH   1   4
BRANCH   1  20
ATOM     20  N   UNL     1      -4.819  -0.827  -1.544  0.00  0.00    -0.190 NA
ATOM     21  H   UNL     1      -4.724  -0.120  -2.203  0.00  0.00    +0.148 HD
BRANCH  20  22
ATOM     22  C   UNL     1      -3.765  -1.049  -0.551  0.00  0.00    +0.110 C 
BRANCH  22  23
ATOM     23  C   UNL     1      -2.494  -0.316  -0.984  0.00  0.00    +0.050 C 
BRANCH  23  26
ATOM     24  C   UNL     1      -0.019   1.526   0.010  0.00  0.00    +0.035 C 
ATOM     25  C   UNL     1       0.002  -0.004   0.002  0.00  0.00    +0.103 C 
ATOM     26  C   UNL     1      -1.410  -0.545   0.038  0.00  0.00    -0.037 C 
ATOM     27  C   UNL     1      -1.503  -1.275   1.173  0.00  0.00    -0.001 A 
ATOM     28  C   UNL     1      -2.599  -2.045   1.772  0.00  0.00    +0.010 A 
ATOM     29  C   UNL     1      -2.386  -2.686   2.944  0.00  0.00    +0.001 A 
ATOM     30  C   UNL     1      -1.148  -2.632   3.599  0.00  0.00    +0.002 A 
ATOM     31  C   UNL     1      -0.094  -1.946   3.110  0.00  0.00    +0.026 A 
ATOM     32  C   UNL     1      -0.205  -1.235   1.884  0.00  0.00    +0.043 A 
ATOM     33  N   UNL     1       0.658  -0.508   1.214  0.00  0.00    -0.378 N 
ATOM     34  H   UNL     1       1.576  -0.332   1.476  0.00  0.00    +0.160 HD
ENDBRANCH  23  26
ENDBRANCH  22  23
ENDBRANCH  20  22
ENDBRANCH   1  20
TORSDOF 7
