REMARK  Name = ZINC63141273
REMARK  5 active torsions:
REMARK  status: ('A' for Active; 'I' for Inactive)
REMARK    1  A    between atoms: C_1  and  O_2
REMARK    2  A    between atoms: O_2  and  C_3
REMARK    3  A    between atoms: C_8  and  C_9
REMARK    4  A    between atoms: C_9  and  N_10
REMARK    5  A    between atoms: C_30  and  C_32
REMARK                            x       y       z     vdW  Elec       q    Type
REMARK                         _______ _______ _______ _____ _____    ______ ____
ROOT
ATOM      1  N   UNL     1       0.593  -2.910   1.332  0.00  0.00    -0.287 N 
ATOM      2  C   UNL     1       1.519  -1.870   1.747  0.00  0.00    +0.204 C 
ATOM      3  C   UNL     1       2.001  -2.068   3.146  0.00  0.00    +0.234 C 
ATOM      4  O   UNL     1       2.782  -1.254   3.593  0.00  0.00    -0.274 OA
ATOM      5  N   UNL     1       1.633  -3.079   3.941  0.00  0.00    -0.279 N 
ATOM      6  C   UNL     1       0.687  -4.107   3.522  0.00  0.00    +0.167 C 
ATOM      7  C   UNL     1       0.210  -3.913   2.121  0.00  0.00    +0.237 C 
ATOM      8  O   UNL     1      -0.574  -4.721   1.671  0.00  0.00    -0.274 OA
ATOM      9  C   UNL     1      -0.520  -4.131   4.478  0.00  0.00    +0.065 C 
ATOM     10  C   UNL     1       0.039  -4.087   5.878  0.00  0.00    -0.034 C 
ATOM     11  C   UNL     1      -0.185  -4.851   6.939  0.00  0.00    -0.001 A 
ATOM     12  C   UNL     1      -1.139  -5.948   7.174  0.00  0.00    +0.010 A 
ATOM     13  C   UNL     1      -1.082  -6.540   8.396  0.00  0.00    +0.001 A 
ATOM     14  C   UNL     1      -0.184  -6.156   9.397  0.00  0.00    +0.002 A 
ATOM     15  C   UNL     1       0.720  -5.152   9.271  0.00  0.00    +0.026 A 
ATOM     16  C   UNL     1       0.752  -4.448   8.032  0.00  0.00    +0.043 A 
ATOM     17  N   UNL     1       1.488  -3.446   7.653  0.00  0.00    -0.375 N 
ATOM     18  C   UNL     1       1.072  -3.051   6.306  0.00  0.00    +0.131 C 
ATOM     19  C   UNL     1       2.221  -3.139   5.299  0.00  0.00    +0.133 C 
ATOM     20  H   UNL     1       2.192  -3.030   8.174  0.00  0.00    +0.160 HD
ENDROOT
BRANCH  19  21
ATOM     21  C   UNL     1       3.166  -1.982   5.498  0.00  0.00    -0.023 A 
ATOM     22  C   UNL     1       2.680  -0.760   5.926  0.00  0.00    +0.005 A 
ATOM     23  C   UNL     1       3.546   0.302   6.109  0.00  0.00    +0.002 A 
ATOM     24  C   UNL     1       4.897   0.143   5.865  0.00  0.00    +0.020 A 
ATOM     25  C   UNL     1       5.383  -1.079   5.437  0.00  0.00    +0.041 A 
ATOM     26  C   UNL     1       4.517  -2.144   5.259  0.00  0.00    +0.025 A 
ATOM     27 CL   UNL     1       7.080  -1.280   5.130  0.00  0.00    -0.084 Cl
ENDBRANCH  19  21
BRANCH   1  28
ATOM     28  C   UNL     1       0.047  -2.850  -0.026  0.00  0.00    +0.147 C 
BRANCH  28  34
ATOM     29  C   UNL     1      -1.169  -0.658  -0.019  0.00  0.00    +0.125 A 
ATOM     30  C   UNL     1      -2.343   0.082  -0.020  0.00  0.00    +0.046 A 
ATOM     31  C   UNL     1      -3.564  -0.563  -0.016  0.00  0.00    +0.004 A 
ATOM     32  C   UNL     1      -3.618  -1.945  -0.011  0.00  0.00    +0.001 A 
ATOM     33  C   UNL     1      -2.450  -2.684  -0.011  0.00  0.00    +0.009 A 
ATOM     34  C   UNL     1      -1.226  -2.044  -0.021  0.00  0.00    +0.011 A 
BRANCH  29  36
ATOM     35  C   UNL     1       0.016   1.403  -0.022  0.00  0.00    +0.277 C 
ATOM     36  O   UNL     1       0.034  -0.025  -0.024  0.00  0.00    -0.495 OA
ENDBRANCH  29  36
ENDBRANCH  28  34
ENDBRANCH   1  28
TORSDOF 4
