REMARK  Name = ZINC20381617
REMARK  4 active torsions:
REMARK  status: ('A' for Active; 'I' for Inactive)
REMARK    1  A    between atoms: C_1  and  C_2
REMARK    2  A    between atoms: N_7  and  C_9
REMARK    3  A    between atoms: C_18  and  S_19
REMARK    4  A    between atoms: S_19  and  C_22
REMARK                            x       y       z     vdW  Elec       q    Type
REMARK                         _______ _______ _______ _____ _____    ______ ____
ROOT
ATOM      1  C   UNL     1       1.167   2.470   0.004  0.00  0.00    +0.066 A 
ATOM      2  C   UNL     1       1.091   3.881  -0.069  0.00  0.00    +0.027 A 
ATOM      3  C   UNL     1       2.247   4.670  -0.159  0.00  0.00    +0.061 A 
ATOM      4  C   UNL     1       2.139   6.030  -0.228  0.00  0.00    +0.163 A 
ATOM      5  C   UNL     1       0.879   6.647  -0.211  0.00  0.00    +0.164 A 
ATOM      6  C   UNL     1      -0.262   5.899  -0.123  0.00  0.00    +0.077 A 
ATOM      7  C   UNL     1      -0.182   4.500  -0.051  0.00  0.00    +0.077 A 
ATOM      8  N   UNL     1      -1.288   3.750   0.034  0.00  0.00    -0.253 NA
ATOM      9  C   UNL     1      -1.230   2.440   0.099  0.00  0.00    +0.140 A 
ATOM     10  C   UNL     1      -0.020   1.760   0.091  0.00  0.00    +0.133 A 
ATOM     11  O   UNL     1       0.772   8.002  -0.287  0.00  0.00    -0.485 OA
ATOM     12  C   UNL     1       1.952   8.759   0.004  0.00  0.00    +0.270 C 
ATOM     13  C   UNL     1       3.127   8.129  -0.756  0.00  0.00    +0.270 C 
ATOM     14  O   UNL     1       3.275   6.777  -0.311  0.00  0.00    -0.485 OA
ENDROOT
BRANCH   1  20
ATOM     15  C   UNL     1       5.158   1.540  -2.593  0.00  0.00    +0.009 C 
ATOM     16  C   UNL     1       4.391   1.242  -1.303  0.00  0.00    +0.003 C 
ATOM     17  C   UNL     1       5.269   1.585  -0.096  0.00  0.00    +0.006 C 
ATOM     18  C   UNL     1       4.473   1.341   1.189  0.00  0.00    +0.019 C 
ATOM     19  C   UNL     1       3.197   2.185   1.162  0.00  0.00    +0.105 C 
ATOM     20  N   UNL     1       2.392   1.818  -0.010  0.00  0.00    -0.328 N 
ATOM     21  C   UNL     1       3.117   2.088  -1.258  0.00  0.00    +0.108 C 
ENDBRANCH   1  20
BRANCH  10  22
ATOM     22  S   UNL     1       0.007   0.000   0.186  0.00  0.00    +0.028 S 
ATOM     23  O   UNL     1       0.950  -0.338   1.193  0.00  0.00    -0.164 OA
ATOM     24  O   UNL     1      -1.349  -0.424   0.237  0.00  0.00    -0.164 OA
BRANCH  22  25
ATOM     25  C   UNL     1       0.662  -0.593  -1.338  0.00  0.00    +0.094 A 
ATOM     26  C   UNL     1      -0.186  -0.872  -2.394  0.00  0.00    +0.029 A 
ATOM     27  C   UNL     1       0.329  -1.332  -3.591  0.00  0.00    +0.022 A 
ATOM     28  C   UNL     1       1.692  -1.524  -3.730  0.00  0.00    +0.041 A 
ATOM     29  C   UNL     1       2.539  -1.250  -2.672  0.00  0.00    +0.022 A 
ATOM     30  C   UNL     1       2.025  -0.784  -1.477  0.00  0.00    +0.029 A 
ATOM     31 CL   UNL     1       2.338  -2.109  -5.231  0.00  0.00    -0.084 Cl
ENDBRANCH  22  25
ENDBRANCH  10  22
TORSDOF 3
