REMARK  Name = ZINC17414669
REMARK  7 active torsions:
REMARK  status: ('A' for Active; 'I' for Inactive)
REMARK    1  A    between atoms: C_1  and  C_2
REMARK    2  A    between atoms: C_2  and  C_22
REMARK    3  A    between atoms: N_3  and  N_4
REMARK    4  A    between atoms: C_5  and  C_7
REMARK    5  A    between atoms: C_12  and  N_13
REMARK    6  A    between atoms: N_13  and  S_14
REMARK    7  A    between atoms: S_14  and  C_17
REMARK                            x       y       z     vdW  Elec       q    Type
REMARK                         _______ _______ _______ _____ _____    ______ ____
ROOT
ATOM      1  N   UNL     1      -0.036  -2.159   1.057  0.00  0.00    -0.203 N 
ATOM      2  C   UNL     1      -0.091  -2.884   2.192  0.00  0.00    +0.265 C 
ATOM      3  O   UNL     1      -0.074  -2.324   3.272  0.00  0.00    -0.268 OA
ATOM      4  H   UNL     1      -0.049  -2.605   0.195  0.00  0.00    +0.178 HD
ENDROOT
BRANCH   2   5
ATOM      5  C   UNL     1      -0.172  -4.353   2.124  0.00  0.00    +0.063 A 
ATOM      6  C   UNL     1      -0.186  -5.001   0.886  0.00  0.00    +0.015 A 
ATOM      7  C   UNL     1      -0.262  -6.375   0.830  0.00  0.00    +0.001 A 
ATOM      8  C   UNL     1      -0.325  -7.121   1.996  0.00  0.00    +0.002 A 
ATOM      9  C   UNL     1      -0.312  -6.497   3.227  0.00  0.00    +0.027 A 
ATOM     10  C   UNL     1      -0.230  -5.112   3.304  0.00  0.00    +0.086 A 
BRANCH  10  11
ATOM     11  N   UNL     1      -0.211  -4.482   4.541  0.00  0.00    -0.097 NA
BRANCH  11  12
ATOM     12  S   UNL     1      -0.279  -5.382   5.930  0.00  0.00    +0.098 S 
ATOM     13  O   UNL     1      -1.561  -5.994   5.954  0.00  0.00    -0.148 OA
ATOM     14  O   UNL     1       0.925  -6.133   5.987  0.00  0.00    -0.148 OA
BRANCH  12  15
ATOM     15  C   UNL     1      -0.234  -4.255   7.284  0.00  0.00    +0.148 A 
ATOM     16  C   UNL     1      -1.264  -3.654   7.929  0.00  0.00    +0.037 A 
ATOM     17  C   UNL     1      -0.988  -2.797   8.978  0.00  0.00    +0.010 A 
ATOM     18  C   UNL     1       0.303  -2.581   9.329  0.00  0.00    +0.047 A 
ATOM     19  S   UNL     1       1.179  -3.614   8.166  0.00  0.00    -0.077 S 
ENDBRANCH  12  15
ENDBRANCH  11  12
ENDBRANCH  10  11
ENDBRANCH   2   5
BRANCH   1  22
ATOM     20  C   UNL     1      -0.017   1.448   0.104  0.00  0.00    +0.071 C 
ATOM     21  C   UNL     1      -0.017  -0.057   0.030  0.00  0.00    +0.098 C 
ATOM     22  N   UNL     1       0.042  -0.762   1.121  0.00  0.00    -0.181 NA
BRANCH  21  23
ATOM     23  C   UNL     1      -0.083  -0.727  -1.275  0.00  0.00    +0.155 A 
ATOM     24  N   UNL     1       0.591  -0.331  -2.402  0.00  0.00    -0.337 N 
ATOM     25  H   UNL     1       1.187   0.430  -2.480  0.00  0.00    +0.167 HD
ATOM     26  C   UNL     1       0.259  -1.220  -3.406  0.00  0.00    +0.066 A 
ATOM     27  C   UNL     1       0.615  -1.341  -4.742  0.00  0.00    +0.028 A 
ATOM     28  C   UNL     1       0.095  -2.370  -5.498  0.00  0.00    +0.002 A 
ATOM     29  C   UNL     1      -0.781  -3.286  -4.932  0.00  0.00    +0.002 A 
ATOM     30  C   UNL     1      -1.143  -3.185  -3.619  0.00  0.00    +0.030 A 
ATOM     31  C   UNL     1      -0.629  -2.149  -2.831  0.00  0.00    +0.090 A 
ATOM     32  N   UNL     1      -0.792  -1.801  -1.539  0.00  0.00    -0.226 NA
ENDBRANCH  21  23
ENDBRANCH   1  22
TORSDOF 6
