REMARK  Name = ZINC62352915
REMARK  3 active torsions:
REMARK  status: ('A' for Active; 'I' for Inactive)
REMARK    1  A    between atoms: C_4  and  C_8
REMARK    2  A    between atoms: C_8  and  C_9
REMARK    3  A    between atoms: C_13  and  N_15
REMARK                            x       y       z     vdW  Elec       q    Type
REMARK                         _______ _______ _______ _____ _____    ______ ____
ROOT
ATOM      1  C   UNL     1       4.165  -0.963   1.377  0.00  0.00    +0.136 A 
ATOM      2  N   UNL     1       4.915  -0.064   1.981  0.00  0.00    -0.236 NA
ATOM      3  C   UNL     1       5.336  -0.243   3.231  0.00  0.00    +0.050 A 
ATOM      4  C   UNL     1       4.974  -1.388   3.897  0.00  0.00    +0.013 A 
ATOM      5  C   UNL     1       4.180  -2.326   3.227  0.00  0.00    +0.123 A 
ATOM      6  N   UNL     1       3.796  -2.074   1.980  0.00  0.00    -0.217 NA
ATOM      7  C   UNL     1       5.388  -1.673   5.314  0.00  0.00    +0.040 C 
ATOM      8  C   UNL     1       6.564  -0.783   5.716  0.00  0.00    +0.005 C 
ATOM      9  C   UNL     1       6.213   0.670   5.376  0.00  0.00    +0.006 C 
ATOM     10  C   UNL     1       6.196   0.822   3.856  0.00  0.00    +0.056 C 
ENDROOT
BRANCH   5  11
ATOM     11  N   UNL     1       3.796  -3.498   3.857  0.00  0.00    -0.343 N 
ATOM     12  H   UNL     1       4.077  -3.674   4.768  0.00  0.00    +0.144 HD
ATOM     13  H   UNL     1       3.245  -4.144   3.386  0.00  0.00    +0.144 HD
ENDBRANCH   5  11
BRANCH   1  14
ATOM     14  C   UNL     1       3.713  -0.710  -0.038  0.00  0.00    +0.115 C 
BRANCH  14  18
ATOM     15  C   UNL     1      -0.017   1.378   0.010  0.00  0.00    +0.004 A 
ATOM     16  C   UNL     1       1.170   2.086   0.002  0.00  0.00    +0.039 A 
ATOM     17  C   UNL     1       2.379   1.411  -0.013  0.00  0.00    +0.128 A 
ATOM     18  C   UNL     1       2.398   0.026  -0.021  0.00  0.00    +0.013 A 
ATOM     19  C   UNL     1       1.209  -0.680  -0.013  0.00  0.00    +0.047 A 
ATOM     20  C   UNL     1       0.002  -0.004   0.002  0.00  0.00    +0.020 A 
ATOM     21 CL   UNL     1       1.232  -2.416  -0.022  0.00  0.00    -0.083 Cl
ATOM     22  F   UNL     1       3.539   2.103  -0.021  0.00  0.00    -0.205 F 
ENDBRANCH  14  18
ENDBRANCH   1  14
TORSDOF 3
