REMARK  Name = ZINC09128737
REMARK  5 active torsions:
REMARK  status: ('A' for Active; 'I' for Inactive)
REMARK    1  A    between atoms: C_1  and  C_2
REMARK    2  A    between atoms: C_5  and  C_8
REMARK    3  A    between atoms: N_10  and  C_25
REMARK    4  A    between atoms: N_19  and  C_24
REMARK    5  A    between atoms: N_22  and  C_23
REMARK                            x       y       z     vdW  Elec       q    Type
REMARK                         _______ _______ _______ _____ _____    ______ ____
ROOT
ATOM      1  C   UNL     1       0.002  -0.004   0.002  0.00  0.00    +0.086 C 
ATOM      2  N   UNL     1      -0.015   1.284   0.009  0.00  0.00    -0.179 NA
ATOM      3  N   UNL     1       1.159   2.054   0.002  0.00  0.00    -0.188 N 
ATOM      4  C   UNL     1       2.341   1.401  -0.284  0.00  0.00    +0.221 A 
ATOM      5  N   UNL     1       3.518   1.904  -0.575  0.00  0.00    -0.195 NA
ATOM      6  C   UNL     1       4.379   0.923  -0.794  0.00  0.00    +0.170 A 
ATOM      7  C   UNL     1       3.697  -0.293  -0.627  0.00  0.00    +0.153 A 
ATOM      8  N   UNL     1       2.409   0.031  -0.301  0.00  0.00    -0.299 N 
ATOM      9  C   UNL     1       1.261  -0.826  -0.007  0.00  0.00    +0.182 C 
ATOM     10  C   UNL     1       4.371  -1.518  -0.803  0.00  0.00    +0.282 A 
ATOM     11  O   UNL     1       3.803  -2.588  -0.666  0.00  0.00    -0.265 OA
ATOM     12  N   UNL     1       5.684  -1.445  -1.133  0.00  0.00    -0.262 N 
ATOM     13  C   UNL     1       6.325  -0.278  -1.289  0.00  0.00    +0.333 A 
ATOM     14  O   UNL     1       7.505  -0.301  -1.585  0.00  0.00    -0.246 OA
ATOM     15  N   UNL     1       5.725   0.924  -1.131  0.00  0.00    -0.280 N 
ATOM     16  C   UNL     1       6.466   2.176  -1.310  0.00  0.00    +0.155 C 
ATOM     17  C   UNL     1       6.431  -2.690  -1.327  0.00  0.00    +0.157 C 
ENDROOT
BRANCH   1  22
ATOM     18  C   UNL     1      -5.037  -2.777   0.007  0.00  0.00    +0.044 C 
ATOM     19  C   UNL     1      -3.716  -2.050   0.005  0.00  0.00    -0.050 A 
ATOM     20  C   UNL     1      -3.692  -0.667   0.012  0.00  0.00    +0.004 A 
ATOM     21  C   UNL     1      -2.487   0.005   0.011  0.00  0.00    +0.010 A 
ATOM     22  C   UNL     1      -1.290  -0.715   0.003  0.00  0.00    -0.000 A 
ATOM     23  C   UNL     1      -1.322  -2.111  -0.010  0.00  0.00    +0.010 A 
ATOM     24  C   UNL     1      -2.534  -2.770  -0.003  0.00  0.00    +0.004 A 
ENDBRANCH   1  22
BRANCH   3  25
ATOM     25  C   UNL     1       1.131   3.491   0.287  0.00  0.00    +0.124 C 
ATOM     26  C   UNL     1       0.240   4.207  -0.742  0.00  0.00    +0.049 C 
ATOM     27  C   UNL     1      -0.055   5.651  -0.270  0.00  0.00    +0.168 C 
ATOM     28  S   UNL     1       0.046   5.507   1.561  0.00  0.00    -0.029 S 
ATOM     29  O   UNL     1       1.116   6.316   2.030  0.00  0.00    -0.174 OA
ATOM     30  O   UNL     1      -1.253   5.677   2.111  0.00  0.00    -0.174 OA
ATOM     31  C   UNL     1       0.531   3.735   1.701  0.00  0.00    +0.190 C 
ENDBRANCH   3  25
TORSDOF 2
