REMARK  Name = ZINC54946400
REMARK  9 active torsions:
REMARK  status: ('A' for Active; 'I' for Inactive)
REMARK    1  A    between atoms: C_1  and  C_2
REMARK    2  A    between atoms: C_5  and  C_30
REMARK    3  A    between atoms: N_8  and  C_10
REMARK    4  A    between atoms: C_10  and  C_11
REMARK    5  A    between atoms: C_10  and  C_12
REMARK    6  A    between atoms: C_10  and  C_13
REMARK    7  A    between atoms: C_13  and  N_14
REMARK    8  A    between atoms: C_15  and  C_17
REMARK    9  A    between atoms: N_19  and  C_20
REMARK                            x       y       z     vdW  Elec       q    Type
REMARK                         _______ _______ _______ _____ _____    ______ ____
ROOT
ATOM      1  N   UNL     1       1.798   1.644   3.351  0.00  0.00    -0.309 N 
ATOM      2  C   UNL     1       1.421   2.450   4.364  0.00  0.00    +0.299 C 
ATOM      3  O   UNL     1       1.188   1.980   5.458  0.00  0.00    -0.265 OA
ATOM      4  H   UNL     1       1.984   2.019   2.476  0.00  0.00    +0.149 HD
ENDROOT
BRANCH   2   5
ATOM      5  C   UNL     1       1.292   3.921   4.139  0.00  0.00    +0.303 C 
ATOM      6  O   UNL     1       1.525   4.390   3.044  0.00  0.00    -0.265 OA
ATOM      7  N   UNL     1       0.915   4.726   5.152  0.00  0.00    -0.277 N 
ATOM      8  H   UNL     1       0.666   4.345   6.008  0.00  0.00    +0.155 HD
BRANCH   7   9
ATOM      9  C   UNL     1       0.885   6.108   4.968  0.00  0.00    +0.042 A 
ATOM     10  C   UNL     1       0.626   6.641   3.722  0.00  0.00    +0.024 A 
ATOM     11  C   UNL     1       0.594   8.019   3.530  0.00  0.00    +0.002 A 
ATOM     12  C   UNL     1       0.816   8.881   4.562  0.00  0.00    +0.010 A 
ATOM     13  C   UNL     1       1.082   8.379   5.846  0.00  0.00    +0.002 A 
ATOM     14  C   UNL     1       1.112   6.976   6.054  0.00  0.00    +0.006 A 
ATOM     15  C   UNL     1       1.376   6.501   7.350  0.00  0.00    +0.030 A 
ATOM     16  C   UNL     1       1.585   7.405   8.348  0.00  0.00    +0.111 A 
ATOM     17  N   UNL     1       1.546   8.712   8.128  0.00  0.00    -0.263 NA
ATOM     18  C   UNL     1       1.318   9.225   6.941  0.00  0.00    +0.119 A 
ENDBRANCH   7   9
ENDBRANCH   2   5
BRANCH   1  19
ATOM     19  C   UNL     1       1.925   0.202   3.571  0.00  0.00    +0.092 C 
BRANCH  19  20
ATOM     20  C   UNL     1       2.459  -0.463   2.301  0.00  0.00    -0.055 C 
ATOM     21  C   UNL     1       2.518  -1.979   2.505  0.00  0.00    -0.008 C 
ATOM     22  C   UNL     1       3.862   0.066   2.000  0.00  0.00    -0.008 C 
BRANCH  20  28
ATOM     23  C   UNL     1      -0.735   1.308   0.188  0.00  0.00    +0.005 C 
ATOM     24  C   UNL     1      -0.743  -0.212   0.358  0.00  0.00    -0.031 C 
ATOM     25  C   UNL     1      -0.276  -0.875  -0.941  0.00  0.00    +0.003 C 
ATOM     26  C   UNL     1       1.170  -0.458  -1.224  0.00  0.00    -0.031 C 
ATOM     27  C   UNL     1       2.048  -0.840  -0.030  0.00  0.00    -0.075 C 
ATOM     28  N   UNL     1       1.567  -0.155   1.175  0.00  0.00    +0.384 N 
ATOM     29  C   UNL     1       0.205  -0.603   1.494  0.00  0.00    -0.075 C 
ATOM     30  C   UNL     1       1.672  -1.175  -2.479  0.00  0.00    +0.005 C 
ATOM     31  H   UNL     1       1.563   0.841   1.015  0.00  0.00    -0.081 HD
ENDBRANCH  20  28
ENDBRANCH  19  20
ENDBRANCH   1  19
TORSDOF 5
