REMARK  Name = ZINC15550395
REMARK  10 active torsions:
REMARK  status: ('A' for Active; 'I' for Inactive)
REMARK    1  A    between atoms: C_1  and  C_2
REMARK    2  A    between atoms: C_2  and  C_3
REMARK    3  A    between atoms: C_2  and  C_4
REMARK    4  A    between atoms: C_4  and  C_6
REMARK    5  A    between atoms: C_4  and  N_47
REMARK    6  A    between atoms: C_13  and  C_14
REMARK    7  A    between atoms: C_13  and  N_47
REMARK    8  A    between atoms: N_16  and  C_17
REMARK    9  A    between atoms: C_21  and  S_23
REMARK   10  A    between atoms: S_23  and  N_26
REMARK                            x       y       z     vdW  Elec       q    Type
REMARK                         _______ _______ _______ _____ _____    ______ ____
ROOT
ATOM      1  C   UNL     1      -1.236   1.645   0.005  0.00  0.00    +0.200 C 
ATOM      2  O   UNL     1      -1.284   2.854  -0.073  0.00  0.00    -0.278 OA
ATOM      3  N   UNL     1      -0.044   1.016  -0.016  0.00  0.00    -0.287 N 
ATOM      4  H   UNL     1      -0.008   0.046  -0.018  0.00  0.00    +0.155 HD
ENDROOT
BRANCH   3   5
ATOM      5  C   UNL     1       1.140   1.761  -0.039  0.00  0.00    +0.035 A 
ATOM      6  C   UNL     1       1.194   2.959  -0.739  0.00  0.00    +0.023 A 
ATOM      7  C   UNL     1       2.363   3.695  -0.755  0.00  0.00    +0.004 A 
ATOM      8  C   UNL     1       3.482   3.233  -0.086  0.00  0.00    +0.028 A 
ATOM      9  C   UNL     1       3.432   2.038   0.607  0.00  0.00    +0.107 A 
ATOM     10  C   UNL     1       2.265   1.300   0.632  0.00  0.00    +0.051 A 
BRANCH   9  11
ATOM     11  S   UNL     1       4.860   1.454   1.459  0.00  0.00    +0.056 S 
ATOM     12  O   UNL     1       5.662   2.594   1.735  0.00  0.00    -0.153 OA
ATOM     13  O   UNL     1       4.396   0.584   2.481  0.00  0.00    -0.153 OA
BRANCH  11  14
ATOM     14  N   UNL     1       5.718   0.520   0.394  0.00  0.00    -0.204 NA
ATOM     15  H   UNL     1       5.391   0.390  -0.510  0.00  0.00    +0.144 HD
ATOM     16  H   UNL     1       6.547   0.102   0.674  0.00  0.00    +0.144 HD
ENDBRANCH  11  14
ENDBRANCH   9  11
ENDBRANCH   3   5
BRANCH   1  17
ATOM     17  C   UNL     1      -2.508   0.846   0.124  0.00  0.00    +0.016 C 
BRANCH  17  18
ATOM     18  N   UNL     1      -3.660   1.768   0.122  0.00  0.00    +0.389 N 
ATOM     19  H   UNL     1      -3.536   2.466   0.864  0.00  0.00    -0.084 HD
ATOM     20  H   UNL     1      -3.714   2.241  -0.788  0.00  0.00    -0.084 HD
BRANCH  18  21
ATOM     21  C   UNL     1      -4.912   1.024   0.358  0.00  0.00    -0.038 C 
BRANCH  21  22
ATOM     22  C   UNL     1      -5.484   0.572  -0.960  0.00  0.00    -0.061 A 
ATOM     23  C   UNL     1      -5.442   1.414  -2.056  0.00  0.00    +0.005 A 
ATOM     24  C   UNL     1      -5.962   0.999  -3.267  0.00  0.00    +0.038 A 
ATOM     25  C   UNL     1      -6.536  -0.256  -3.380  0.00  0.00    +0.123 A 
ATOM     26  C   UNL     1      -6.582  -1.096  -2.281  0.00  0.00    +0.038 A 
ATOM     27  C   UNL     1      -6.056  -0.681  -1.072  0.00  0.00    +0.005 A 
ATOM     28  F   UNL     1      -7.050  -0.660  -4.562  0.00  0.00    -0.205 F 
ENDBRANCH  21  22
BRANCH  21  30
ATOM     29  C   UNL     1      -7.172   1.142   1.417  0.00  0.00    +0.006 C 
ATOM     30  C   UNL     1      -5.915   1.939   1.064  0.00  0.00    -0.027 C 
ATOM     31  C   UNL     1      -5.286   2.494   2.344  0.00  0.00    +0.006 C 
ENDBRANCH  21  30
ENDBRANCH  18  21
ENDBRANCH  17  18
ENDBRANCH   1  17
TORSDOF 8
