REMARK  Name = ZINC33483238
REMARK  19 active torsions:
REMARK  status: ('A' for Active; 'I' for Inactive)
REMARK    1  A    between atoms: C_1  and  C_2
REMARK    2  A    between atoms: C_2  and  C_3
REMARK    3  A    between atoms: C_3  and  C_5
REMARK    4  A    between atoms: C_3  and  C_6
REMARK    5  A    between atoms: C_6  and  C_8
REMARK    6  A    between atoms: C_6  and  N_26
REMARK    7  A    between atoms: N_10  and  C_11
REMARK    8  A    between atoms: N_10  and  C_19
REMARK    9  A    between atoms: C_11  and  C_12
REMARK   10  A    between atoms: C_12  and  C_13
REMARK   11  A    between atoms: C_19  and  C_20
REMARK   12  A    between atoms: C_27  and  C_29
REMARK   13  A    between atoms: C_29  and  C_30
REMARK   14  A    between atoms: C_30  and  C_32
REMARK   15  A    between atoms: C_30  and  C_33
REMARK   16  A    between atoms: C_33  and  C_34
REMARK   17  A    between atoms: C_34  and  C_35
REMARK   18  A    between atoms: C_34  and  C_36
REMARK   19  A    between atoms: C_34  and  C_37
REMARK                            x       y       z     vdW  Elec       q    Type
REMARK                         _______ _______ _______ _____ _____    ______ ____
ROOT
ATOM      1  C   UNL     1       1.898   5.764  -4.158  0.00  0.00    +0.236 C 
ATOM      2  O   UNL     1       1.757   6.746  -4.856  0.00  0.00    -0.274 OA
ATOM      3  N   UNL     1       3.077   5.536  -3.546  0.00  0.00    -0.295 N 
ENDROOT
BRANCH   1   4
ATOM      4  C   UNL     1       0.755   4.800  -3.974  0.00  0.00    +0.162 C 
BRANCH   4   5
ATOM      5  N   UNL     1       0.070   4.605  -5.254  0.00  0.00    -0.304 N 
ATOM      6  C   UNL     1      -0.621   3.470  -5.483  0.00  0.00    +0.214 C 
ATOM      7  O   UNL     1      -0.675   2.611  -4.629  0.00  0.00    -0.276 OA
ATOM      8  H   UNL     1       0.118   5.385  -6.028  0.00  0.00    +0.149 HD
BRANCH   6   9
ATOM      9  C   UNL     1      -1.326   3.270  -6.799  0.00  0.00    +0.099 C 
BRANCH   9  10
ATOM     10  C   UNL     1      -2.028   1.910  -6.800  0.00  0.00    -0.005 C 
ATOM     11  C   UNL     1      -3.135   1.908  -5.744  0.00  0.00    +0.008 C 
BRANCH  10  12
ATOM     12  C   UNL     1      -2.638   1.652  -8.179  0.00  0.00    +0.010 C 
BRANCH  12  13
ATOM     13  C   UNL     1      -1.855   0.543  -8.884  0.00  0.00    -0.037 C 
ATOM     14  C   UNL     1      -1.949  -0.747  -8.065  0.00  0.00    +0.010 C 
ATOM     15  C   UNL     1      -2.446   0.307 -10.275  0.00  0.00    +0.010 C 
ATOM     16  C   UNL     1      -0.389   0.958  -9.015  0.00  0.00    +0.010 C 
ENDBRANCH  12  13
ENDBRANCH  10  12
ENDBRANCH   9  10
ENDBRANCH   6   9
ENDBRANCH   4   5
BRANCH   4  17
ATOM     17  C   UNL     1      -0.230   5.366  -2.949  0.00  0.00    +0.015 C 
ATOM     18  C   UNL     1       0.461   5.487  -1.589  0.00  0.00    +0.010 C 
BRANCH  17  20
ATOM     19  C   UNL     1      -1.828   7.231  -2.489  0.00  0.00    +0.004 C 
ATOM     20  C   UNL     1      -0.702   6.748  -3.405  0.00  0.00    +0.002 C 
ENDBRANCH  17  20
ENDBRANCH   4  17
ENDBRANCH   1   4
BRANCH   3  21
ATOM     21  C   UNL     1       3.301   4.276  -2.834  0.00  0.00    +0.113 C 
BRANCH  21  22
ATOM     22  C   UNL     1       3.708   4.572  -1.389  0.00  0.00    +0.054 C 
BRANCH  22  23
ATOM     23  C   UNL     1       3.982   3.276  -0.669  0.00  0.00    -0.046 A 
ATOM     24  C   UNL     1       2.962   2.631   0.005  0.00  0.00    +0.004 A 
ATOM     25  C   UNL     1       3.213   1.440   0.661  0.00  0.00    +0.000 A 
ATOM     26  C   UNL     1       4.485   0.900   0.652  0.00  0.00    +0.000 A 
ATOM     27  C   UNL     1       5.506   1.549  -0.017  0.00  0.00    +0.000 A 
ATOM     28  C   UNL     1       5.255   2.737  -0.678  0.00  0.00    +0.004 A 
ENDBRANCH  22  23
ENDBRANCH  21  22
ENDBRANCH   3  21
BRANCH   3  29
ATOM     29  C   UNL     1       4.133   6.552  -3.588  0.00  0.00    +0.143 C 
BRANCH  29  30
ATOM     30  C   UNL     1       5.086   6.239  -4.712  0.00  0.00    -0.030 A 
ATOM     31  C   UNL     1       6.240   5.521  -4.460  0.00  0.00    +0.005 A 
ATOM     32  C   UNL     1       7.112   5.229  -5.493  0.00  0.00    +0.000 A 
ATOM     33  C   UNL     1       6.835   5.665  -6.775  0.00  0.00    +0.000 A 
ATOM     34  C   UNL     1       5.684   6.388  -7.026  0.00  0.00    +0.000 A 
ATOM     35  C   UNL     1       4.809   6.675  -5.995  0.00  0.00    +0.005 A 
ENDBRANCH  29  30
ENDBRANCH   3  29
TORSDOF 13
