REMARK  Name = ZINC14743238
REMARK  8 active torsions:
REMARK  status: ('A' for Active; 'I' for Inactive)
REMARK    1  A    between atoms: C_1  and  N_2
REMARK    2  A    between atoms: C_5  and  C_7
REMARK    3  A    between atoms: N_9  and  C_10
REMARK    4  A    between atoms: C_10  and  C_11
REMARK    5  A    between atoms: C_19  and  N_60
REMARK    6  A    between atoms: C_23  and  C_24
REMARK    7  A    between atoms: C_23  and  N_60
REMARK    8  A    between atoms: C_24  and  O_30
REMARK                            x       y       z     vdW  Elec       q    Type
REMARK                         _______ _______ _______ _____ _____    ______ ____
ROOT
ATOM      1  C   UNL     1       1.546   4.733   0.021  0.00  0.00    +0.172 C 
ATOM      2  N   UNL     1       0.668   3.561   0.018  0.00  0.00    -0.270 N 
ATOM      3  C   UNL     1       1.087   2.285   0.004  0.00  0.00    +0.043 A 
ATOM      4  C   UNL     1      -0.018   1.500   0.010  0.00  0.00    +0.004 A 
ATOM      5  C   UNL     1      -1.115   2.377   0.032  0.00  0.00    +0.150 A 
ATOM      6  N   UNL     1      -0.620   3.603   0.030  0.00  0.00    -0.166 NA
ATOM      7  C   UNL     1       0.002  -0.004   0.002  0.00  0.00    +0.023 C 
ATOM      8  C   UNL     1       1.411  -0.469   0.395  0.00  0.00    -0.067 C 
ATOM      9  C   UNL     1       2.449   0.280  -0.446  0.00  0.00    -0.009 C 
ATOM     10  C   UNL     1       2.496   1.752  -0.017  0.00  0.00    +0.054 C 
ENDROOT
BRANCH   5  11
ATOM     11  C   UNL     1      -2.544   2.003   0.049  0.00  0.00    +0.265 C 
ATOM     12  O   UNL     1      -2.866   0.831   0.045  0.00  0.00    -0.268 OA
ATOM     13  N   UNL     1      -3.491   2.961   0.068  0.00  0.00    -0.306 N 
ATOM     14  H   UNL     1      -3.235   3.897   0.071  0.00  0.00    +0.149 HD
BRANCH  13  15
ATOM     15  C   UNL     1      -4.909   2.590   0.085  0.00  0.00    +0.142 C 
BRANCH  15  16
ATOM     16  C   UNL     1      -5.754   3.838   0.106  0.00  0.00    +0.005 A 
ATOM     17  C   UNL     1      -6.303   4.282   1.294  0.00  0.00    +0.008 A 
ATOM     18  C   UNL     1      -7.073   5.429   1.314  0.00  0.00    +0.000 A 
ATOM     19  C   UNL     1      -7.306   6.127   0.143  0.00  0.00    +0.003 A 
ATOM     20  C   UNL     1      -6.764   5.682  -1.047  0.00  0.00    +0.038 A 
ATOM     21  C   UNL     1      -5.987   4.536  -1.067  0.00  0.00    +0.128 A 
ATOM     22  F   UNL     1      -5.456   4.099  -2.230  0.00  0.00    -0.205 F 
ENDBRANCH  15  16
ENDBRANCH  13  15
ENDBRANCH   5  11
BRANCH   8  23
ATOM     23  N   UNL     1       1.529  -1.918   0.147  0.00  0.00    +0.383 N 
ATOM     24  H   UNL     1       1.783  -2.074  -0.836  0.00  0.00    -0.085 HD
ATOM     25  H   UNL     1       0.629  -2.370   0.344  0.00  0.00    -0.085 HD
BRANCH  23  26
ATOM     26  C   UNL     1       2.568  -2.503   1.016  0.00  0.00    -0.047 C 
BRANCH  26  27
ATOM     27  C   UNL     1       2.667  -4.004   0.738  0.00  0.00    +0.051 C 
ATOM     28  C   UNL     1       1.290  -4.647   0.908  0.00  0.00    +0.033 C 
ATOM     29  C   UNL     1       1.389  -6.148   0.629  0.00  0.00    +0.003 C 
ATOM     30  C   UNL     1       2.374  -6.785   1.612  0.00  0.00    +0.000 C 
ATOM     31  C   UNL     1       3.752  -6.142   1.442  0.00  0.00    +0.003 C 
ATOM     32  C   UNL     1       3.652  -4.641   1.720  0.00  0.00    +0.033 C 
BRANCH  27  33
ATOM     33  O   UNL     1       3.128  -4.211  -0.599  0.00  0.00    -0.390 OA
ATOM     34  H   UNL     1       2.551  -3.833  -1.277  0.00  0.00    +0.210 HD
ENDBRANCH  27  33
ENDBRANCH  26  27
ENDBRANCH  23  26
ENDBRANCH   8  23
TORSDOF 7
