REMARK  Name = ZINC29370118
REMARK  10 active torsions:
REMARK  status: ('A' for Active; 'I' for Inactive)
REMARK    1  A    between atoms: C_1  and  C_2
REMARK    2  A    between atoms: C_4  and  N_28
REMARK    3  A    between atoms: C_7  and  N_8
REMARK    4  A    between atoms: C_9  and  C_11
REMARK    5  A    between atoms: C_14  and  O_19
REMARK    6  A    between atoms: C_15  and  O_17
REMARK    7  A    between atoms: O_17  and  C_18
REMARK    8  A    between atoms: O_19  and  C_20
REMARK    9  A    between atoms: C_20  and  C_21
REMARK   10  A    between atoms: N_31  and  C_34
REMARK                            x       y       z     vdW  Elec       q    Type
REMARK                         _______ _______ _______ _____ _____    ______ ____
ROOT
ATOM      1  N   UNL     1      -3.225   5.069  -5.798  0.00  0.00    -0.281 N 
ATOM      2  C   UNL     1      -3.577   4.233  -6.794  0.00  0.00    +0.248 C 
ATOM      3  O   UNL     1      -3.450   3.031  -6.653  0.00  0.00    -0.270 OA
ATOM      4  H   UNL     1      -3.424   6.147  -5.888  0.00  0.00    +0.155 HD
ENDROOT
BRANCH   1  11
ATOM      5  C   UNL     1      -3.472   6.553  -3.384  0.00  0.00    +0.046 C 
ATOM      6  C   UNL     1      -2.703   5.259  -3.447  0.00  0.00    -0.027 A 
ATOM      7  C   UNL     1      -2.093   4.763  -2.312  0.00  0.00    +0.028 A 
ATOM      8  C   UNL     1      -1.384   3.570  -2.369  0.00  0.00    +0.030 A 
ATOM      9  C   UNL     1      -1.284   2.879  -3.570  0.00  0.00    +0.025 A 
ATOM     10  C   UNL     1      -1.898   3.373  -4.704  0.00  0.00    +0.025 A 
ATOM     11  C   UNL     1      -2.607   4.566  -4.646  0.00  0.00    +0.037 A 
BRANCH   8  12
ATOM     12  N   UNL     1      -0.766   3.067  -1.219  0.00  0.00    -0.333 N 
ATOM     13  C   UNL     1      -0.075   1.802  -1.503  0.00  0.00    +0.086 C 
ATOM     14  C   UNL     1       0.652   1.327  -0.243  0.00  0.00    -0.060 C 
ATOM     15  N   UNL     1      -0.319   1.160   0.847  0.00  0.00    +0.380 N 
ATOM     16  C   UNL     1      -1.011   2.426   1.131  0.00  0.00    -0.060 C 
ATOM     17  C   UNL     1      -1.738   2.900  -0.129  0.00  0.00    +0.086 C 
ATOM     18  C   UNL     1       0.331   0.633   2.055  0.00  0.00    -0.096 C 
ATOM     19  H   UNL     1      -1.072   0.427   0.522  0.00  0.00    -0.082 HD
ENDBRANCH   8  12
ENDBRANCH   1  11
BRANCH   2  20
ATOM     20  C   UNL     1      -4.116   4.774  -8.057  0.00  0.00    +0.041 A 
ATOM     21  C   UNL     1      -4.268   6.154  -8.218  0.00  0.00    +0.017 A 
ATOM     22  C   UNL     1      -4.767   6.659  -9.399  0.00  0.00    +0.050 A 
ATOM     23  C   UNL     1      -5.129   5.798 -10.427  0.00  0.00    +0.162 A 
ATOM     24  C   UNL     1      -4.985   4.421 -10.271  0.00  0.00    +0.162 A 
ATOM     25  C   UNL     1      -4.481   3.909  -9.091  0.00  0.00    +0.062 A 
BRANCH  24  26
ATOM     26  O   UNL     1      -5.341   3.581 -11.280  0.00  0.00    -0.491 OA
ATOM     27  C   UNL     1      -5.165   2.181 -11.051  0.00  0.00    +0.277 C 
ENDBRANCH  24  26
BRANCH  23  28
ATOM     28  O   UNL     1      -5.625   6.301 -11.588  0.00  0.00    -0.484 OA
BRANCH  28  29
ATOM     29  C   UNL     1      -5.746   7.721 -11.680  0.00  0.00    +0.266 C 
BRANCH  29  30
ATOM     30  C   UNL     1      -6.310   8.090 -13.028  0.00  0.00    +0.008 A 
ATOM     31  C   UNL     1      -6.613   7.101 -13.945  0.00  0.00    +0.008 A 
ATOM     32  C   UNL     1      -7.134   7.439 -15.180  0.00  0.00    +0.000 A 
ATOM     33  C   UNL     1      -7.342   8.768 -15.503  0.00  0.00    +0.001 A 
ATOM     34  C   UNL     1      -7.035   9.758 -14.589  0.00  0.00    +0.020 A 
ATOM     35  C   UNL     1      -6.518   9.419 -13.351  0.00  0.00    +0.047 A 
ATOM     36 CL   UNL     1      -6.130  10.662 -12.203  0.00  0.00    -0.083 Cl
ENDBRANCH  29  30
ENDBRANCH  28  29
ENDBRANCH  23  28
ENDBRANCH   2  20
TORSDOF 7
