REMARK  Name = ZINC12714689
REMARK  11 active torsions:
REMARK  status: ('A' for Active; 'I' for Inactive)
REMARK    1  A    between atoms: C_1  and  C_2
REMARK    2  A    between atoms: C_2  and  C_3
REMARK    3  A    between atoms: C_5  and  C_26
REMARK    4  A    between atoms: C_6  and  N_8
REMARK    5  A    between atoms: C_9  and  C_11
REMARK    6  A    between atoms: C_11  and  N_64
REMARK    7  A    between atoms: N_14  and  C_17
REMARK    8  A    between atoms: C_20  and  N_23
REMARK    9  A    between atoms: C_26  and  C_28
REMARK   10  A    between atoms: C_33  and  O_34
REMARK   11  A    between atoms: O_34  and  C_35
REMARK                            x       y       z     vdW  Elec       q    Type
REMARK                         _______ _______ _______ _____ _____    ______ ____
ROOT
ATOM      1  N   UNL     1       5.277  -0.392   3.116  0.00  0.00    -0.281 N 
ATOM      2  C   UNL     1       4.385  -0.072   2.159  0.00  0.00    +0.201 C 
ATOM      3  O   UNL     1       4.621   0.834   1.388  0.00  0.00    -0.278 OA
ATOM      4  H   UNL     1       5.088  -1.117   3.733  0.00  0.00    +0.155 HD
ENDROOT
BRANCH   1   8
ATOM      5  C   UNL     1       8.589   1.942   3.032  0.00  0.00    -0.008 A 
ATOM      6  C   UNL     1       8.632   1.022   4.012  0.00  0.00    +0.024 A 
ATOM      7  C   UNL     1       7.498   0.138   4.137  0.00  0.00    +0.051 A 
ATOM      8  C   UNL     1       6.465   0.314   3.221  0.00  0.00    +0.083 A 
ATOM      9  S   UNL     1       7.021   1.634   2.248  0.00  0.00    -0.078 S 
BRANCH   5  11
ATOM     10  C   UNL     1      10.603   2.403   1.660  0.00  0.00    +0.009 C 
ATOM     11  C   UNL     1       9.621   2.982   2.680  0.00  0.00    +0.039 C 
ENDBRANCH   5  11
BRANCH   7  12
ATOM     12  C   UNL     1       7.439  -0.895   5.175  0.00  0.00    +0.199 C 
ATOM     13  O   UNL     1       8.096  -1.913   5.058  0.00  0.00    -0.286 OA
BRANCH  12  14
ATOM     14  C   UNL     1       6.582  -0.701   6.361  0.00  0.00    +0.064 A 
ATOM     15  C   UNL     1       5.914   0.510   6.555  0.00  0.00    +0.015 A 
ATOM     16  C   UNL     1       5.116   0.684   7.665  0.00  0.00    +0.001 A 
ATOM     17  C   UNL     1       4.973  -0.337   8.591  0.00  0.00    +0.004 A 
ATOM     18  C   UNL     1       5.628  -1.539   8.411  0.00  0.00    +0.046 A 
ATOM     19  C   UNL     1       6.431  -1.734   7.297  0.00  0.00    +0.131 A 
BRANCH  19  20
ATOM     20  O   UNL     1       7.071  -2.916   7.117  0.00  0.00    -0.494 OA
ATOM     21  C   UNL     1       6.869  -3.922   8.112  0.00  0.00    +0.277 C 
ENDBRANCH  19  20
ENDBRANCH  12  14
ENDBRANCH   7  12
ENDBRANCH   1   8
BRANCH   2  22
ATOM     22  C   UNL     1       3.093  -0.840   2.045  0.00  0.00    +0.019 C 
BRANCH  22  28
ATOM     23  C   UNL     1       3.109  -0.812  -0.376  0.00  0.00    -0.059 C 
ATOM     24  C   UNL     1       2.372  -0.285  -1.610  0.00  0.00    +0.086 C 
ATOM     25  N   UNL     1       1.004  -0.822  -1.627  0.00  0.00    -0.333 N 
ATOM     26  C   UNL     1       0.272  -0.426  -0.416  0.00  0.00    +0.086 C 
ATOM     27  C   UNL     1       1.008  -0.953   0.818  0.00  0.00    -0.059 C 
ATOM     28  N   UNL     1       2.374  -0.389   0.834  0.00  0.00    +0.387 N 
ATOM     29  H   UNL     1       2.312   0.636   0.846  0.00  0.00    -0.081 HD
BRANCH  25  30
ATOM     30  C   UNL     1       0.323  -0.419  -2.778  0.00  0.00    +0.030 A 
ATOM     31  C   UNL     1       0.955   0.389  -3.714  0.00  0.00    +0.025 A 
ATOM     32  C   UNL     1       0.280   0.781  -4.854  0.00  0.00    +0.034 A 
ATOM     33  C   UNL     1      -1.027   0.378  -5.058  0.00  0.00    +0.126 A 
ATOM     34  C   UNL     1      -1.661  -0.422  -4.125  0.00  0.00    +0.034 A 
ATOM     35  C   UNL     1      -0.990  -0.822  -2.986  0.00  0.00    +0.025 A 
BRANCH  33  36
ATOM     36  N   UNL     1      -1.748   0.804  -6.278  0.00  0.00    +0.056 N 
ATOM     37  O   UNL     1      -2.900   0.450  -6.459  0.00  0.00    -0.126 OA
ATOM     38  O   UNL     1      -1.191   1.508  -7.101  0.00  0.00    -0.126 OA
ENDBRANCH  33  36
ENDBRANCH  25  30
ENDBRANCH  22  28
ENDBRANCH   2  22
TORSDOF 9
