REMARK  Name = ZINC19992718
REMARK  4 active torsions:
REMARK  status: ('A' for Active; 'I' for Inactive)
REMARK    1  A    between atoms: C_3  and  S_9
REMARK    2  A    between atoms: C_6  and  N_7
REMARK    3  A    between atoms: S_9  and  N_12
REMARK    4  A    between atoms: N_12  and  C_13
REMARK                            x       y       z     vdW  Elec       q    Type
REMARK                         _______ _______ _______ _____ _____    ______ ____
ROOT
ATOM      1  S   UNL     1      -2.441  -0.095  -0.887  0.00  0.00    +0.093 S 
ATOM      2  O   UNL     1      -3.589  -0.920  -0.747  0.00  0.00    -0.148 OA
ATOM      3  O   UNL     1      -2.447   1.283  -0.538  0.00  0.00    -0.148 OA
ENDROOT
BRANCH   1   6
ATOM      4  C   UNL     1      -2.342  -0.988  -4.802  0.00  0.00    +0.025 A 
ATOM      5  C   UNL     1      -2.717  -0.916  -3.474  0.00  0.00    +0.032 A 
ATOM      6  C   UNL     1      -1.959  -0.184  -2.579  0.00  0.00    +0.129 A 
ATOM      7  C   UNL     1      -0.827   0.484  -3.011  0.00  0.00    +0.069 A 
ATOM      8  C   UNL     1      -0.443   0.411  -4.337  0.00  0.00    +0.044 A 
ATOM      9  C   UNL     1      -1.203  -0.324  -5.238  0.00  0.00    +0.026 A 
ATOM     10 CL   UNL     1       0.117   1.409  -1.885  0.00  0.00    -0.081 Cl
BRANCH   9  11
ATOM     11  N   UNL     1      -0.823  -0.394  -6.580  0.00  0.00    -0.358 N 
ATOM     12  H   UNL     1       0.080   0.133  -6.924  0.00  0.00    +0.142 HD
ATOM     13  H   UNL     1      -1.425  -0.977  -7.293  0.00  0.00    +0.142 HD
ENDBRANCH   9  11
ENDBRANCH   1   6
BRANCH   1  14
ATOM     14  N   UNL     1      -1.237  -0.803   0.003  0.00  0.00    -0.096 NA
BRANCH  14  15
ATOM     15  C   UNL     1      -1.009  -2.178  -0.100  0.00  0.00    +0.094 A 
ATOM     16  C   UNL     1      -1.177  -2.822  -1.319  0.00  0.00    +0.048 A 
ATOM     17  C   UNL     1      -0.951  -4.182  -1.417  0.00  0.00    +0.043 A 
ATOM     18  C   UNL     1      -0.557  -4.902  -0.302  0.00  0.00    +0.021 A 
ATOM     19  C   UNL     1      -0.388  -4.263   0.912  0.00  0.00    +0.023 A 
ATOM     20  C   UNL     1      -0.614  -2.904   1.018  0.00  0.00    +0.065 A 
ATOM     21 CL   UNL     1      -0.402  -2.103   2.543  0.00  0.00    -0.082 Cl
ATOM     22 CL   UNL     1      -1.161  -4.988  -2.940  0.00  0.00    -0.083 Cl
ENDBRANCH  14  15
ENDBRANCH   1  14
TORSDOF 4
