REMARK  Name = ZINC35209669
REMARK  10 active torsions:
REMARK  status: ('A' for Active; 'I' for Inactive)
REMARK    1  A    between atoms: C_1  and  C_2
REMARK    2  A    between atoms: C_7  and  C_8
REMARK    3  A    between atoms: N_10  and  C_11
REMARK    4  A    between atoms: C_14  and  N_29
REMARK    5  A    between atoms: C_15  and  C_17
REMARK    6  A    between atoms: N_19  and  C_20
REMARK    7  A    between atoms: C_20  and  C_22
REMARK    8  A    between atoms: C_20  and  C_23
REMARK    9  A    between atoms: N_29  and  C_30
REMARK   10  A    between atoms: N_29  and  C_31
REMARK                            x       y       z     vdW  Elec       q    Type
REMARK                         _______ _______ _______ _____ _____    ______ ____
ROOT
ATOM      1  C   UNL     1       0.418  -0.163   4.955  0.00  0.00    +0.035 A 
ATOM      2  C   UNL     1       0.286   1.222   4.981  0.00  0.00    +0.025 A 
ATOM      3  C   UNL     1       0.282   1.899   6.182  0.00  0.00    +0.025 A 
ATOM      4  C   UNL     1       0.410   1.202   7.377  0.00  0.00    +0.042 A 
ATOM      5  C   UNL     1       0.542  -0.195   7.358  0.00  0.00    +0.059 A 
ATOM      6  C   UNL     1       0.540  -0.873   6.136  0.00  0.00    +0.038 A 
ENDROOT
BRANCH   1   9
ATOM      7  C   UNL     1       0.971  -0.266   2.642  0.00  0.00    +0.249 C 
ATOM      8  O   UNL     1       1.546   0.800   2.744  0.00  0.00    -0.270 OA
ATOM      9  N   UNL     1       0.421  -0.842   3.729  0.00  0.00    -0.281 N 
ATOM     10  H   UNL     1       0.027  -1.726   3.663  0.00  0.00    +0.155 HD
BRANCH   7  17
ATOM     11  C   UNL     1       1.899   1.111   0.273  0.00  0.00    +0.044 C 
ATOM     12  C   UNL     1       1.318  -0.276   0.175  0.00  0.00    -0.038 A 
ATOM     13  C   UNL     1       1.229  -0.904  -1.050  0.00  0.00    +0.004 A 
ATOM     14  C   UNL     1       0.696  -2.177  -1.141  0.00  0.00    +0.000 A 
ATOM     15  C   UNL     1       0.248  -2.829  -0.006  0.00  0.00    +0.001 A 
ATOM     16  C   UNL     1       0.331  -2.213   1.225  0.00  0.00    +0.013 A 
ATOM     17  C   UNL     1       0.873  -0.930   1.325  0.00  0.00    +0.040 A 
ENDBRANCH   7  17
ENDBRANCH   1   9
BRANCH   5  18
ATOM     18  C   UNL     1       0.678  -0.943   8.621  0.00  0.00    +0.246 C 
ATOM     19  O   UNL     1       0.675  -0.350   9.682  0.00  0.00    -0.270 OA
ATOM     20  N   UNL     1       0.805  -2.285   8.599  0.00  0.00    -0.305 N 
ATOM     21  H   UNL     1       0.807  -2.758   7.752  0.00  0.00    +0.150 HD
BRANCH  20  22
ATOM     22  C   UNL     1       0.940  -3.029   9.854  0.00  0.00    +0.100 C 
ATOM     23  C   UNL     1       2.408  -3.044  10.282  0.00  0.00    +0.033 C 
BRANCH  22  24
ATOM     24  C   UNL     1       0.461  -4.444   9.653  0.00  0.00    -0.027 A 
ATOM     25  C   UNL     1       0.765  -5.117   8.485  0.00  0.00    +0.005 A 
ATOM     26  C   UNL     1       0.325  -6.415   8.301  0.00  0.00    +0.000 A 
ATOM     27  C   UNL     1      -0.418  -7.039   9.285  0.00  0.00    +0.000 A 
ATOM     28  C   UNL     1      -0.721  -6.366  10.454  0.00  0.00    +0.000 A 
ATOM     29  C   UNL     1      -0.278  -5.070  10.639  0.00  0.00    +0.005 A 
ENDBRANCH  22  24
ENDBRANCH  20  22
ENDBRANCH   5  18
BRANCH   4  30
ATOM     30  N   UNL     1       0.406   1.886   8.588  0.00  0.00    -0.335 N 
ATOM     31  C   UNL     1      -0.857   2.126   9.290  0.00  0.00    +0.129 C 
ATOM     32  C   UNL     1       1.666   2.366   9.161  0.00  0.00    +0.129 C 
ENDBRANCH   4  30
TORSDOF 6
