REMARK  Name = ZINC35430495
REMARK  5 active torsions:
REMARK  status: ('A' for Active; 'I' for Inactive)
REMARK    1  A    between atoms: C_1  and  S_2
REMARK    2  A    between atoms: S_2  and  C_3
REMARK    3  A    between atoms: C_6  and  C_9
REMARK    4  A    between atoms: C_9  and  N_10
REMARK    5  A    between atoms: C_11  and  C_13
REMARK                            x       y       z     vdW  Elec       q    Type
REMARK                         _______ _______ _______ _____ _____    ______ ____
ROOT
ATOM      1  C   UNL     1       6.636  -1.807  -5.596  0.00  0.00    +0.119 A 
ATOM      2  C   UNL     1       7.532  -2.014  -6.651  0.00  0.00    +0.132 A 
ATOM      3  N   UNL     1       8.829  -2.006  -6.394  0.00  0.00    -0.230 NA
ATOM      4  C   UNL     1       9.289  -1.807  -5.174  0.00  0.00    +0.180 A 
ATOM      5  N   UNL     1       8.493  -1.596  -4.088  0.00  0.00    -0.258 N 
ATOM      6  C   UNL     1       7.143  -1.593  -4.296  0.00  0.00    +0.271 A 
ATOM      7  O   UNL     1       6.380  -1.409  -3.363  0.00  0.00    -0.266 OA
ATOM      8  C   UNL     1       9.118  -1.395  -2.863  0.00  0.00    +0.039 A 
ATOM      9  C   UNL     1      10.443  -1.448  -2.873  0.00  0.00    +0.013 A 
ATOM     10  S   UNL     1      10.854  -1.744  -4.567  0.00  0.00    -0.054 S 
ATOM     11  C   UNL     1      11.366  -1.320  -1.685  0.00  0.00    +0.044 C 
ATOM     12  C   UNL     1      11.271   0.137  -1.196  0.00  0.00    +0.005 C 
ATOM     13  C   UNL     1      10.014   0.334  -0.381  0.00  0.00    +0.001 C 
ATOM     14  C   UNL     1       8.712   0.323  -1.141  0.00  0.00    +0.006 C 
ATOM     15  C   UNL     1       8.324  -1.089  -1.591  0.00  0.00    +0.055 C 
ENDROOT
BRANCH   1  17
ATOM     16  N   UNL     1       4.338  -1.492  -4.842  0.00  0.00    -0.307 N 
ATOM     17  C   UNL     1       5.189  -1.808  -5.838  0.00  0.00    +0.251 C 
ATOM     18  O   UNL     1       4.756  -2.095  -6.939  0.00  0.00    -0.270 OA
ATOM     19  H   UNL     1       4.676  -1.337  -3.946  0.00  0.00    +0.149 HD
BRANCH  16  20
ATOM     20  C   UNL     1       2.902  -1.383  -5.111  0.00  0.00    +0.139 C 
BRANCH  20  24
ATOM     21  C   UNL     1       0.849  -0.359  -1.505  0.00  0.00    +0.008 A 
ATOM     22  C   UNL     1       1.320   0.642  -2.347  0.00  0.00    +0.015 A 
ATOM     23  C   UNL     1       1.983   0.307  -3.511  0.00  0.00    +0.006 A 
ATOM     24  C   UNL     1       2.178  -1.022  -3.840  0.00  0.00    -0.030 A 
ATOM     25  C   UNL     1       1.711  -2.021  -3.005  0.00  0.00    +0.006 A 
ATOM     26  C   UNL     1       1.053  -1.693  -1.836  0.00  0.00    +0.015 A 
BRANCH  21  28
ATOM     27  C   UNL     1      -0.016   1.877  -0.024  0.00  0.00    +0.090 C 
ATOM     28  S   UNL     1       0.003   0.064  -0.018  0.00  0.00    -0.129 S 
ENDBRANCH  21  28
ENDBRANCH  20  24
ENDBRANCH  16  20
ENDBRANCH   1  17
TORSDOF 4
