REMARK  Name = ZINC13655322
REMARK  3 active torsions:
REMARK  status: ('A' for Active; 'I' for Inactive)
REMARK    1  A    between atoms: C_1  and  N_2
REMARK    2  A    between atoms: C_3  and  C_7
REMARK    3  A    between atoms: C_12  and  C_15
REMARK                            x       y       z     vdW  Elec       q    Type
REMARK                         _______ _______ _______ _____ _____    ______ ____
ROOT
ATOM      1  C   UNL     1       2.118  -4.155  -0.078  0.00  0.00    +0.268 C 
ATOM      2  O   UNL     1       0.998  -4.620   0.018  0.00  0.00    -0.268 OA
ATOM      3  N   UNL     1       2.295  -2.819  -0.087  0.00  0.00    -0.259 N 
ATOM      4  C   UNL     1       1.194  -1.973  -0.097  0.00  0.00    +0.165 A 
ATOM      5  N   UNL     1       1.154  -0.654  -0.111  0.00  0.00    -0.225 NA
ATOM      6  C   UNL     1       0.002  -0.000  -0.115  0.00  0.00    +0.080 A 
ATOM      7  C   UNL     1      -1.169  -0.706  -0.116  0.00  0.00    +0.076 A 
ATOM      8  S   UNL     1      -0.546  -2.382  -0.102  0.00  0.00    -0.060 S 
ATOM      9  H   UNL     1       3.191  -2.448  -0.086  0.00  0.00    +0.157 HD
ENDROOT
BRANCH   6  10
ATOM     10  C   UNL     1      -0.018   1.483  -0.126  0.00  0.00    +0.001 A 
ATOM     11  C   UNL     1      -1.232   2.166  -0.142  0.00  0.00    +0.011 A 
ATOM     12  C   UNL     1      -1.245   3.546  -0.146  0.00  0.00    +0.016 A 
ATOM     13  C   UNL     1      -0.054   4.251  -0.145  0.00  0.00    +0.018 A 
ATOM     14  C   UNL     1       1.155   3.578  -0.135  0.00  0.00    +0.016 A 
ATOM     15  C   UNL     1       1.179   2.198  -0.125  0.00  0.00    +0.011 A 
ATOM     16 BR   UNL     1      -0.079   6.142  -0.160  0.00  0.00    -0.050 Br
ENDBRANCH   6  10
BRANCH   1  19
ATOM     17  C   UNL     1       2.048  -7.238  -0.318  0.00  0.00    +0.173 C 
ATOM     18  N   UNL     1       3.258  -6.413  -0.292  0.00  0.00    -0.262 N 
ATOM     19  C   UNL     1       3.280  -5.051  -0.185  0.00  0.00    +0.123 A 
ATOM     20  C   UNL     1       4.614  -4.683  -0.205  0.00  0.00    +0.054 A 
ATOM     21  C   UNL     1       5.326  -5.879  -0.316  0.00  0.00    +0.135 A 
ATOM     22  N   UNL     1       4.460  -6.859  -0.365  0.00  0.00    -0.179 NA
ENDBRANCH   1  19
TORSDOF 2
