REMARK  Name = ZINC25408288
REMARK  6 active torsions:
REMARK  status: ('A' for Active; 'I' for Inactive)
REMARK    1  A    between atoms: C_1  and  C_2
REMARK    2  A    between atoms: C_5  and  N_9
REMARK    3  A    between atoms: C_10  and  C_12
REMARK    4  A    between atoms: C_12  and  N_13
REMARK    5  A    between atoms: N_16  and  S_19
REMARK    6  A    between atoms: S_19  and  C_22
REMARK                            x       y       z     vdW  Elec       q    Type
REMARK                         _______ _______ _______ _____ _____    ______ ____
ROOT
ATOM      1  N   UNL     1       2.811   1.369  -0.155  0.00  0.00    +0.387 N 
ATOM      2  C   UNL     1       2.736   0.527   1.046  0.00  0.00    -0.061 C 
ATOM      3  C   UNL     1       3.728  -0.634   0.915  0.00  0.00    +0.091 C 
ATOM      4  N   UNL     1       5.060  -0.080   0.625  0.00  0.00    -0.180 NA
ATOM      5  C   UNL     1       5.188   0.880  -0.481  0.00  0.00    +0.091 C 
ATOM      6  C   UNL     1       4.139   1.981  -0.295  0.00  0.00    -0.061 C 
ATOM      7  H   UNL     1       2.648   0.720  -1.029  0.00  0.00    -0.081 HD
ENDROOT
BRANCH   4   8
ATOM      8  S   UNL     1       6.379  -0.525   1.522  0.00  0.00    +0.062 S 
ATOM      9  O   UNL     1       7.259   0.591   1.531  0.00  0.00    -0.153 OA
ATOM     10  O   UNL     1       5.879  -1.111   2.717  0.00  0.00    -0.153 OA
BRANCH   8  11
ATOM     11  C   UNL     1       7.201  -1.808   0.638  0.00  0.00    +0.124 A 
ATOM     12  C   UNL     1       8.461  -1.589   0.113  0.00  0.00    +0.030 A 
ATOM     13  C   UNL     1       9.108  -2.596  -0.577  0.00  0.00    +0.002 A 
ATOM     14  C   UNL     1       8.491  -3.822  -0.751  0.00  0.00    +0.002 A 
ATOM     15  C   UNL     1       7.230  -4.041  -0.232  0.00  0.00    +0.022 A 
ATOM     16  C   UNL     1       6.583  -3.034   0.464  0.00  0.00    +0.067 A 
ATOM     17 CL   UNL     1       4.998  -3.308   1.116  0.00  0.00    -0.082 Cl
ENDBRANCH   8  11
ENDBRANCH   4   8
BRANCH   1  18
ATOM     18  C   UNL     1       1.757   2.392  -0.147  0.00  0.00    +0.019 C 
BRANCH  18  20
ATOM     19  N   UNL     1      -0.712   2.474  -0.267  0.00  0.00    -0.287 N 
ATOM     20  C   UNL     1       0.409   1.727  -0.250  0.00  0.00    +0.201 C 
ATOM     21  O   UNL     1       0.334   0.518  -0.323  0.00  0.00    -0.278 OA
ATOM     22  H   UNL     1      -0.650   3.562  -0.114  0.00  0.00    +0.155 HD
BRANCH  19  27
ATOM     23  C   UNL     1      -5.750   0.010  -1.124  0.00  0.00    +0.045 C 
ATOM     24  C   UNL     1      -4.412   0.665  -0.896  0.00  0.00    -0.032 A 
ATOM     25  C   UNL     1      -3.287   0.174  -1.532  0.00  0.00    +0.006 A 
ATOM     26  C   UNL     1      -2.060   0.775  -1.330  0.00  0.00    +0.023 A 
ATOM     27  C   UNL     1      -1.955   1.867  -0.477  0.00  0.00    +0.035 A 
ATOM     28  C   UNL     1      -3.086   2.358   0.160  0.00  0.00    +0.043 A 
ATOM     29  C   UNL     1      -4.313   1.756  -0.051  0.00  0.00    +0.046 A 
ATOM     30 CL   UNL     1      -5.728   2.369   0.745  0.00  0.00    -0.083 Cl
ENDBRANCH  19  27
ENDBRANCH  18  20
ENDBRANCH   1  18
TORSDOF 5
