REMARK  Name = ZINC65406820
REMARK  3 active torsions:
REMARK  status: ('A' for Active; 'I' for Inactive)
REMARK    1  A    between atoms: C_6  and  C_7
REMARK    2  A    between atoms: C_13  and  O_15
REMARK    3  A    between atoms: N_18  and  C_19
REMARK                            x       y       z     vdW  Elec       q    Type
REMARK                         _______ _______ _______ _____ _____    ______ ____
ROOT
ATOM      1  C   UNL     1      -1.559  -1.319   0.586  0.00  0.00    +0.051 C 
ATOM      2  C   UNL     1      -2.156  -0.413  -0.493  0.00  0.00    +0.030 C 
ATOM      3  C   UNL     1      -3.371  -1.104  -1.119  0.00  0.00    +0.110 C 
ATOM      4  N   UNL     1      -4.311  -1.468  -0.050  0.00  0.00    -0.283 N 
ATOM      5  C   UNL     1      -3.818  -2.262   1.084  0.00  0.00    +0.141 C 
ATOM      6  C   UNL     1      -2.597  -1.558   1.685  0.00  0.00    +0.139 C 
ATOM      7  C   UNL     1      -5.600  -1.080  -0.107  0.00  0.00    +0.307 C 
ATOM      8  O   UNL     1      -6.387  -1.456   0.741  0.00  0.00    -0.252 OA
ATOM      9  N   UNL     1      -6.018  -0.276  -1.105  0.00  0.00    -0.268 N 
ATOM     10  H   UNL     1      -5.420  -0.061  -1.838  0.00  0.00    +0.156 HD
ENDROOT
BRANCH   1  16
ATOM     11  C   UNL     1      -0.460   0.571   1.802  0.00  0.00    +0.008 A 
ATOM     12  C   UNL     1       0.653   1.182   2.349  0.00  0.00    +0.050 A 
ATOM     13  C   UNL     1       1.891   0.564   2.274  0.00  0.00    +0.166 A 
ATOM     14  C   UNL     1       2.009  -0.675   1.647  0.00  0.00    +0.166 A 
ATOM     15  C   UNL     1       0.890  -1.281   1.102  0.00  0.00    +0.053 A 
ATOM     16  C   UNL     1      -0.342  -0.657   1.181  0.00  0.00    -0.038 A 
ATOM     17  O   UNL     1       3.315  -1.069   1.704  0.00  0.00    -0.453 OA
ATOM     18  C   UNL     1       4.063   0.123   2.009  0.00  0.00    +0.466 C 
ATOM     19  O   UNL     1       3.122   0.945   2.724  0.00  0.00    -0.453 OA
ENDBRANCH   1  16
BRANCH   9  20
ATOM     20  C   UNL     1      -7.316   0.251  -1.082  0.00  0.00    +0.053 A 
ATOM     21  C   UNL     1      -8.009   0.471  -2.270  0.00  0.00    +0.028 A 
ATOM     22  C   UNL     1      -9.290   0.993  -2.198  0.00  0.00    +0.042 A 
ATOM     23  C   UNL     1      -9.834   1.277  -0.957  0.00  0.00    +0.129 A 
ATOM     24  N   UNL     1      -9.150   1.057   0.149  0.00  0.00    -0.242 NA
ATOM     25  C   UNL     1      -7.931   0.555   0.124  0.00  0.00    +0.135 A 
ATOM     26 CL   UNL     1     -11.439   1.932  -0.856  0.00  0.00    -0.062 Cl
ENDBRANCH   9  20
BRANCH   6  27
ATOM     27  O   UNL     1      -2.029  -2.379   2.707  0.00  0.00    -0.390 OA
ATOM     28  H   UNL     1      -2.633  -2.571   3.438  0.00  0.00    +0.210 HD
ENDBRANCH   6  27
TORSDOF 3
