REMARK  Name = ZINC36704828
REMARK  3 active torsions:
REMARK  status: ('A' for Active; 'I' for Inactive)
REMARK    1  A    between atoms: C_1  and  S_2
REMARK    2  A    between atoms: S_2  and  C_5
REMARK    3  A    between atoms: C_20  and  C_22
REMARK                            x       y       z     vdW  Elec       q    Type
REMARK                         _______ _______ _______ _____ _____    ______ ____
ROOT
ATOM      1  C   UNL     1       0.833  -0.558  -1.433  0.00  0.00    +0.089 A 
ATOM      2  C   UNL     1       0.127  -0.724  -2.616  0.00  0.00    +0.029 A 
ATOM      3  C   UNL     1       0.760  -1.043  -3.789  0.00  0.00    +0.031 A 
ATOM      4  C   UNL     1       2.163  -1.214  -3.830  0.00  0.00    +0.080 A 
ATOM      5  C   UNL     1       2.849  -1.038  -2.607  0.00  0.00    +0.043 A 
ATOM      6  C   UNL     1       2.208  -0.712  -1.438  0.00  0.00    +0.044 A 
ATOM      7  S   UNL     1       4.538  -1.331  -3.075  0.00  0.00    -0.052 S 
ATOM      8  C   UNL     1       4.238  -1.659  -4.806  0.00  0.00    +0.162 A 
ATOM      9  N   UNL     1       2.934  -1.527  -4.894  0.00  0.00    -0.225 NA
ATOM     10  N   UNL     1       5.146  -1.971  -5.797  0.00  0.00    -0.307 N 
ATOM     11  C   UNL     1       6.579  -2.079  -5.492  0.00  0.00    +0.126 C 
ATOM     12  C   UNL     1       7.074  -3.459  -5.944  0.00  0.00    +0.127 C 
ATOM     13  N   UNL     1       6.624  -3.690  -7.324  0.00  0.00    -0.295 N 
ATOM     14  C   UNL     1       5.191  -3.582  -7.629  0.00  0.00    +0.127 C 
ATOM     15  C   UNL     1       4.695  -2.208  -7.176  0.00  0.00    +0.126 C 
ATOM     16  C   UNL     1       7.510  -3.995  -8.292  0.00  0.00    +0.248 C 
ATOM     17  O   UNL     1       8.702  -3.980  -8.052  0.00  0.00    -0.270 OA
ENDROOT
BRANCH  16  18
ATOM     18  C   UNL     1       7.034  -4.349  -9.645  0.00  0.00    +0.056 A 
ATOM     19  C   UNL     1       6.099  -5.372  -9.814  0.00  0.00    +0.029 A 
ATOM     20  C   UNL     1       5.658  -5.697 -11.081  0.00  0.00    +0.019 A 
ATOM     21  C   UNL     1       6.141  -5.012 -12.183  0.00  0.00    +0.017 A 
ATOM     22  C   UNL     1       7.067  -3.998 -12.024  0.00  0.00    +0.022 A 
ATOM     23  C   UNL     1       7.512  -3.658 -10.761  0.00  0.00    +0.053 A 
ATOM     24 CL   UNL     1       8.670  -2.379 -10.561  0.00  0.00    -0.083 Cl
ATOM     25 BR   UNL     1       4.391  -7.082 -11.312  0.00  0.00    -0.050 Br
ENDBRANCH  16  18
BRANCH   1  27
ATOM     26  C   UNL     1      -0.044   1.665   0.092  0.00  0.00    +0.200 C 
ATOM     27  S   UNL     1      -0.011  -0.148   0.058  0.00  0.00    -0.006 S 
ATOM     28  O   UNL     1       0.825  -0.641   1.096  0.00  0.00    -0.170 OA
ATOM     29  O   UNL     1      -1.325  -0.658  -0.117  0.00  0.00    -0.170 OA
ENDBRANCH   1  27
TORSDOF 2
