REMARK  Name = ZINC02916413
REMARK  2 active torsions:
REMARK  status: ('A' for Active; 'I' for Inactive)
REMARK    1  A    between atoms: C_6  and  C_7
REMARK    2  A    between atoms: C_10  and  C_18
REMARK                            x       y       z     vdW  Elec       q    Type
REMARK                         _______ _______ _______ _____ _____    ______ ____
ROOT
ATOM      1  C   UNL     1      -1.293  -0.775   0.011  0.00  0.00    +0.144 C 
ATOM      2  C   UNL     1      -1.350  -1.671   1.255  0.00  0.00    +0.059 C 
ATOM      3  C   UNL     1      -2.518  -2.656   1.132  0.00  0.00    +0.106 C 
ATOM      4  N   UNL     1      -2.282  -3.525  -0.038  0.00  0.00    -0.305 N 
ATOM      5  C   UNL     1      -1.828  -2.895  -1.188  0.00  0.00    +0.236 A 
ATOM      6  N   UNL     1      -1.370  -1.615  -1.181  0.00  0.00    -0.206 N 
ATOM      7  N   UNL     1      -1.017  -1.335  -2.501  0.00  0.00    -0.042 NA
ATOM      8  N   UNL     1      -1.270  -2.404  -3.184  0.00  0.00    -0.021 NA
ATOM      9  N   UNL     1      -1.745  -3.329  -2.413  0.00  0.00    -0.092 NA
ATOM     10  H   UNL     1      -2.435  -4.482  -0.004  0.00  0.00    +0.150 HD
ENDROOT
BRANCH   1  16
ATOM     11  C   UNL     1      -0.017   1.378   0.010  0.00  0.00    +0.007 A 
ATOM     12  C   UNL     1       1.171   2.086   0.002  0.00  0.00    +0.020 A 
ATOM     13  C   UNL     1       2.378   1.410  -0.013  0.00  0.00    +0.041 A 
ATOM     14  C   UNL     1       2.396   0.027  -0.021  0.00  0.00    +0.020 A 
ATOM     15  C   UNL     1       1.208  -0.679  -0.013  0.00  0.00    +0.007 A 
ATOM     16  C   UNL     1       0.002  -0.004   0.002  0.00  0.00    -0.023 A 
ATOM     17 CL   UNL     1       3.870   2.298  -0.023  0.00  0.00    -0.084 Cl
ENDBRANCH   1  16
BRANCH   3  18
ATOM     18  C   UNL     1      -2.605  -3.495   2.381  0.00  0.00    -0.027 A 
ATOM     19  C   UNL     1      -1.755  -4.572   2.550  0.00  0.00    +0.006 A 
ATOM     20  C   UNL     1      -1.835  -5.342   3.695  0.00  0.00    +0.015 A 
ATOM     21  C   UNL     1      -2.765  -5.035   4.671  0.00  0.00    +0.013 A 
ATOM     22  C   UNL     1      -3.615  -3.957   4.502  0.00  0.00    +0.015 A 
ATOM     23  C   UNL     1      -3.531  -3.184   3.359  0.00  0.00    +0.006 A 
ATOM     24  I   UNL     1      -2.887  -6.202   6.407  0.00  0.00    -0.044 I 
ENDBRANCH   3  18
TORSDOF 2
