REMARK  Name = ZINC19848239
REMARK  3 active torsions:
REMARK  status: ('A' for Active; 'I' for Inactive)
REMARK    1  A    between atoms: C_3  and  N_8
REMARK    2  A    between atoms: C_12  and  N_16
REMARK    3  A    between atoms: N_19  and  C_22
REMARK                            x       y       z     vdW  Elec       q    Type
REMARK                         _______ _______ _______ _____ _____    ______ ____
ROOT
ATOM      1  N   UNL     1       6.736   2.405  -1.147  0.00  0.00    -0.295 NA
ATOM      2  C   UNL     1       7.645   3.547  -1.313  0.00  0.00    +0.066 C 
ATOM      3  C   UNL     1       8.490   3.344  -2.573  0.00  0.00    -0.062 C 
ATOM      4  N   UNL     1       9.259   2.099  -2.451  0.00  0.00    +0.385 N 
ATOM      5  C   UNL     1       8.337   0.964  -2.311  0.00  0.00    -0.062 C 
ATOM      6  C   UNL     1       7.490   1.147  -1.049  0.00  0.00    +0.066 C 
ATOM      7  H   UNL     1       9.855   2.150  -1.639  0.00  0.00    -0.081 HD
ENDROOT
BRANCH   4   8
ATOM      8  C   UNL     1      10.084   1.913  -3.652  0.00  0.00    -0.065 C 
ATOM      9  C   UNL     1      11.046   3.094  -3.798  0.00  0.00    -0.009 C 
ATOM     10  C   UNL     1      11.905   2.901  -5.049  0.00  0.00    -0.012 C 
ATOM     11  C   UNL     1      12.706   1.604  -4.923  0.00  0.00    +0.007 C 
ATOM     12  C   UNL     1      11.744   0.423  -4.777  0.00  0.00    -0.012 C 
ATOM     13  C   UNL     1      10.885   0.616  -3.526  0.00  0.00    -0.009 C 
ATOM     14  C   UNL     1      10.840   0.347  -6.010  0.00  0.00    +0.007 C 
ATOM     15  C   UNL     1      10.039   1.644  -6.136  0.00  0.00    -0.012 C 
ATOM     16  C   UNL     1      11.001   2.825  -6.281  0.00  0.00    +0.007 C 
ATOM     17  C   UNL     1       9.180   1.837  -4.885  0.00  0.00    -0.009 C 
ENDBRANCH   4   8
BRANCH   1  22
ATOM     18  N   UNL     1       3.586   2.127  -0.021  0.00  0.00    -0.209 N 
ATOM     19  C   UNL     1       3.634   3.462  -0.107  0.00  0.00    +0.228 C 
ATOM     20  O   UNL     1       2.672   4.196  -0.186  0.00  0.00    -0.275 OA
ATOM     21  C   UNL     1       5.079   3.910  -0.090  0.00  0.00    +0.125 C 
ATOM     22  C   UNL     1       5.866   2.589   0.022  0.00  0.00    +0.153 C 
ATOM     23  C   UNL     1       4.783   1.533   0.062  0.00  0.00    +0.244 C 
ATOM     24  O   UNL     1       4.970   0.339   0.153  0.00  0.00    -0.273 OA
BRANCH  18  27
ATOM     25  C   UNL     1       0.794   0.029   1.138  0.00  0.00    +0.003 A 
ATOM     26  C   UNL     1       1.982   0.734   1.132  0.00  0.00    +0.024 A 
ATOM     27  C   UNL     1       2.381   1.410  -0.013  0.00  0.00    +0.045 A 
ATOM     28  C   UNL     1       1.585   1.375  -1.150  0.00  0.00    +0.044 A 
ATOM     29  C   UNL     1       0.398   0.667  -1.139  0.00  0.00    +0.043 A 
ATOM     30  C   UNL     1       0.003  -0.005   0.005  0.00  0.00    +0.020 A 
ATOM     31 CL   UNL     1      -0.599   0.623  -2.559  0.00  0.00    -0.083 Cl
ENDBRANCH  18  27
ENDBRANCH   1  22
TORSDOF 3
