REMARK  Name = ZINC02884466
REMARK  7 active torsions:
REMARK  status: ('A' for Active; 'I' for Inactive)
REMARK    1  A    between atoms: C_1  and  O_2
REMARK    2  A    between atoms: O_2  and  C_3
REMARK    3  A    between atoms: C_4  and  C_14
REMARK    4  A    between atoms: N_16  and  C_17
REMARK    5  A    between atoms: C_17  and  N_19
REMARK    6  A    between atoms: N_19  and  C_20
REMARK    7  A    between atoms: C_20  and  C_21
REMARK                            x       y       z     vdW  Elec       q    Type
REMARK                         _______ _______ _______ _____ _____    ______ ____
ROOT
ATOM      1  C   UNL     1      -2.389   4.124   0.036  0.00  0.00    +0.253 C 
ATOM      2  O   UNL     1      -3.433   3.502   0.037  0.00  0.00    -0.270 OA
ATOM      3  N   UNL     1      -1.212   3.466   0.027  0.00  0.00    -0.264 N 
ATOM      4  H   UNL     1      -0.379   3.963   0.025  0.00  0.00    +0.157 HD
ENDROOT
BRANCH   1   6
ATOM      5  C   UNL     1      -3.643   6.284   0.048  0.00  0.00    +0.147 A 
ATOM      6  C   UNL     1      -2.409   5.599   0.044  0.00  0.00    +0.080 A 
ATOM      7  C   UNL     1      -1.215   6.304   0.042  0.00  0.00    +0.025 A 
ATOM      8  C   UNL     1      -1.240   7.706   0.049  0.00  0.00    -0.016 A 
ATOM      9  C   UNL     1      -0.048   8.453   0.047  0.00  0.00    +0.008 A 
ATOM     10  C   UNL     1      -0.104   9.812   0.054  0.00  0.00    +0.001 A 
ATOM     11  C   UNL     1      -1.329  10.479   0.063  0.00  0.00    +0.001 A 
ATOM     12  C   UNL     1      -2.502   9.790   0.065  0.00  0.00    +0.010 A 
ATOM     13  C   UNL     1      -2.486   8.385   0.059  0.00  0.00    -0.000 A 
ATOM     14  C   UNL     1      -3.682   7.647   0.060  0.00  0.00    +0.068 A 
ATOM     15 BR   UNL     1      -5.347   8.545   0.072  0.00  0.00    -0.046 Br
BRANCH   5  17
ATOM     16  C   UNL     1      -5.356   5.233   1.315  0.00  0.00    +0.277 C 
ATOM     17  O   UNL     1      -4.802   5.578   0.044  0.00  0.00    -0.493 OA
ENDBRANCH   5  17
ENDBRANCH   1   6
BRANCH   3  18
ATOM     18  C   UNL     1      -1.194   2.119   0.019  0.00  0.00    +0.137 C 
ATOM     19  S   UNL     1      -2.665   1.243   0.021  0.00  0.00    -0.018 S 
BRANCH  18  20
ATOM     20  N   UNL     1      -0.018   1.461   0.010  0.00  0.00    -0.319 N 
ATOM     21  H   UNL     1       0.816   1.957   0.005  0.00  0.00    +0.148 HD
BRANCH  20  22
ATOM     22  C   UNL     1       0.002  -0.004   0.002  0.00  0.00    +0.177 C 
BRANCH  22  23
ATOM     23  C   UNL     1       1.429  -0.487  -0.014  0.00  0.00    +0.122 A 
ATOM     24  C   UNL     1       2.185  -0.745   1.068  0.00  0.00    +0.046 A 
ATOM     25  C   UNL     1       3.447  -1.171   0.595  0.00  0.00    +0.041 A 
ATOM     26  C   UNL     1       3.388  -1.148  -0.749  0.00  0.00    +0.195 A 
ATOM     27  O   UNL     1       2.161  -0.738  -1.112  0.00  0.00    -0.466 OA
ENDBRANCH  22  23
ENDBRANCH  20  22
ENDBRANCH  18  20
ENDBRANCH   3  18
TORSDOF 6
