REMARK  Name = ZINC40782169
REMARK  7 active torsions:
REMARK  status: ('A' for Active; 'I' for Inactive)
REMARK    1  A    between atoms: C_4  and  C_7
REMARK    2  A    between atoms: C_7  and  C_8
REMARK    3  A    between atoms: C_7  and  C_14
REMARK    4  A    between atoms: N_16  and  N_17
REMARK    5  A    between atoms: C_19  and  N_32
REMARK    6  A    between atoms: C_20  and  N_24
REMARK    7  A    between atoms: N_24  and  C_25
REMARK                            x       y       z     vdW  Elec       q    Type
REMARK                         _______ _______ _______ _____ _____    ______ ____
ROOT
ATOM      1  N   UNL     1       4.837  -2.846  -3.603  0.00  0.00    -0.247 N 
ATOM      2  C   UNL     1       5.903  -3.532  -4.173  0.00  0.00    +0.161 A 
ATOM      3  C   UNL     1       5.704  -4.351  -5.287  0.00  0.00    +0.107 A 
ATOM      4  C   UNL     1       6.809  -5.017  -5.820  0.00  0.00    +0.149 A 
ATOM      5  N   UNL     1       8.001  -4.848  -5.251  0.00  0.00    -0.219 NA
ATOM      6  C   UNL     1       8.144  -4.066  -4.200  0.00  0.00    +0.225 A 
ATOM      7  N   UNL     1       7.129  -3.415  -3.669  0.00  0.00    -0.217 NA
ATOM      8  H   UNL     1       3.946  -2.937  -3.976  0.00  0.00    +0.172 HD
ENDROOT
BRANCH   1  11
ATOM      9  C   UNL     1       4.016  -1.357  -1.936  0.00  0.00    +0.241 C 
ATOM     10  O   UNL     1       2.902  -1.471  -2.403  0.00  0.00    -0.273 OA
ATOM     11  N   UNL     1       5.049  -2.023  -2.489  0.00  0.00    -0.235 N 
ATOM     12  H   UNL     1       5.940  -1.932  -2.116  0.00  0.00    +0.173 HD
BRANCH   9  13
ATOM     13  C   UNL     1       4.244  -0.472  -0.738  0.00  0.00    +0.136 C 
BRANCH  13  17
ATOM     14  C   UNL     1       0.541   1.295   0.450  0.00  0.00    +0.000 A 
ATOM     15  C   UNL     1       1.638   2.096   0.193  0.00  0.00    +0.000 A 
ATOM     16  C   UNL     1       2.837   1.524  -0.191  0.00  0.00    +0.005 A 
ATOM     17  C   UNL     1       2.938   0.151  -0.318  0.00  0.00    -0.031 A 
ATOM     18  C   UNL     1       1.841  -0.649  -0.061  0.00  0.00    +0.005 A 
ATOM     19  C   UNL     1       0.642  -0.077   0.322  0.00  0.00    +0.000 A 
ENDBRANCH  13  17
BRANCH  13  20
ATOM     20  C   UNL     1       4.796  -1.295   0.397  0.00  0.00    -0.031 A 
ATOM     21  C   UNL     1       4.159  -2.461   0.778  0.00  0.00    +0.005 A 
ATOM     22  C   UNL     1       4.665  -3.216   1.820  0.00  0.00    +0.000 A 
ATOM     23  C   UNL     1       5.808  -2.806   2.479  0.00  0.00    +0.000 A 
ATOM     24  C   UNL     1       6.446  -1.641   2.097  0.00  0.00    +0.000 A 
ATOM     25  C   UNL     1       5.942  -0.888   1.053  0.00  0.00    +0.005 A 
ENDBRANCH  13  20
ENDBRANCH   9  13
ENDBRANCH   1  11
BRANCH   3  26
ATOM     26  N   UNL     1       4.429  -4.500  -5.854  0.00  0.00    -0.353 N 
ATOM     27  H   UNL     1       3.670  -4.031  -5.473  0.00  0.00    +0.143 HD
ATOM     28  H   UNL     1       4.306  -5.072  -6.628  0.00  0.00    +0.143 HD
ENDBRANCH   3  26
BRANCH   4  29
ATOM     29  N   UNL     1       6.667  -5.845  -6.928  0.00  0.00    -0.298 N 
ATOM     30  H   UNL     1       5.812  -5.904  -7.383  0.00  0.00    +0.154 HD
BRANCH  29  31
ATOM     31  C   UNL     1       7.756  -6.593  -7.386  0.00  0.00    +0.032 A 
ATOM     32  C   UNL     1       7.899  -6.854  -8.743  0.00  0.00    +0.025 A 
ATOM     33  C   UNL     1       8.976  -7.593  -9.192  0.00  0.00    +0.022 A 
ATOM     34  C   UNL     1       9.911  -8.073  -8.293  0.00  0.00    +0.041 A 
ATOM     35  C   UNL     1       9.771  -7.814  -6.940  0.00  0.00    +0.022 A 
ATOM     36  C   UNL     1       8.700  -7.071  -6.486  0.00  0.00    +0.025 A 
ATOM     37 CL   UNL     1      11.263  -9.001  -8.861  0.00  0.00    -0.084 Cl
ENDBRANCH  29  31
ENDBRANCH   4  29
TORSDOF 7
