REMARK  Name = ZINC05590271
REMARK  6 active torsions:
REMARK  status: ('A' for Active; 'I' for Inactive)
REMARK    1  A    between atoms: C_1  and  C_2
REMARK    2  A    between atoms: C_6  and  C_7
REMARK    3  A    between atoms: C_9  and  C_29
REMARK    4  A    between atoms: C_10  and  N_28
REMARK    5  A    between atoms: N_11  and  C_19
REMARK    6  A    between atoms: C_22  and  N_25
REMARK                            x       y       z     vdW  Elec       q    Type
REMARK                         _______ _______ _______ _____ _____    ______ ____
ROOT
ATOM      1  C   UNL     1      -1.397  -1.749   0.185  0.00  0.00    +0.104 C 
ATOM      2  C   UNL     1      -0.960  -0.471   0.840  0.00  0.00    +0.077 C 
ATOM      3  C   UNL     1       0.296   0.015   0.661  0.00  0.00    +0.107 C 
ATOM      4  N   UNL     1       1.198  -0.675  -0.117  0.00  0.00    -0.260 N 
ATOM      5  C   UNL     1       1.010  -2.005  -0.389  0.00  0.00    +0.024 C 
ATOM      6  C   UNL     1      -0.210  -2.567  -0.257  0.00  0.00    +0.026 C 
ATOM      7  C   UNL     1      -0.413  -3.931  -0.532  0.00  0.00    +0.162 C 
ATOM      8  O   UNL     1      -1.520  -4.410  -0.387  0.00  0.00    -0.292 OA
ATOM      9  C   UNL     1       0.715  -4.807  -1.004  0.00  0.00    +0.080 C 
ATOM     10  C   UNL     1       1.732  -3.946  -1.760  0.00  0.00    +0.014 C 
ATOM     11  C   UNL     1       2.199  -2.821  -0.832  0.00  0.00    +0.052 C 
ENDROOT
BRANCH   1  17
ATOM     12  C   UNL     1      -4.333  -2.543  -0.243  0.00  0.00    +0.044 C 
ATOM     13  C   UNL     1      -3.544  -1.752  -1.254  0.00  0.00    -0.039 A 
ATOM     14  C   UNL     1      -4.131  -1.342  -2.437  0.00  0.00    +0.011 A 
ATOM     15  C   UNL     1      -3.391  -0.638  -3.328  0.00  0.00    +0.046 A 
ATOM     16  S   UNL     1      -1.816  -0.527  -2.494  0.00  0.00    -0.100 S 
ATOM     17  C   UNL     1      -2.250  -1.427  -1.015  0.00  0.00    +0.005 A 
ENDBRANCH   1  17
BRANCH   4  18
ATOM     18  C   UNL     1       2.318  -0.012  -0.635  0.00  0.00    +0.040 A 
ATOM     19  C   UNL     1       3.498   0.035   0.096  0.00  0.00    +0.026 A 
ATOM     20  C   UNL     1       4.602   0.686  -0.420  0.00  0.00    +0.034 A 
ATOM     21  C   UNL     1       4.529   1.299  -1.657  0.00  0.00    +0.126 A 
ATOM     22  C   UNL     1       3.354   1.258  -2.385  0.00  0.00    +0.034 A 
ATOM     23  C   UNL     1       2.248   0.605  -1.877  0.00  0.00    +0.026 A 
BRANCH  21  24
ATOM     24  N   UNL     1       5.712   2.001  -2.204  0.00  0.00    +0.056 N 
ATOM     25  O   UNL     1       5.650   2.542  -3.293  0.00  0.00    -0.126 OA
ATOM     26  O   UNL     1       6.748   2.038  -1.564  0.00  0.00    -0.126 OA
ENDBRANCH  21  24
ENDBRANCH   4  18
BRANCH   3  27
ATOM     27  N   UNL     1       0.667   1.194   1.262  0.00  0.00    -0.345 N 
ATOM     28  H   UNL     1       1.588   1.495   1.211  0.00  0.00    +0.144 HD
ATOM     29  H   UNL     1       0.007   1.727   1.732  0.00  0.00    +0.144 HD
ENDBRANCH   3  27
BRANCH   2  30
ATOM     30  C   UNL     1      -1.883   0.250   1.663  0.00  0.00    +0.099 C 
ATOM     31  N   UNL     1      -2.616   0.822   2.316  0.00  0.00    -0.191 NA
ENDBRANCH   2  30
TORSDOF 5
