REMARK  Name = ZINC39016230
REMARK  9 active torsions:
REMARK  status: ('A' for Active; 'I' for Inactive)
REMARK    1  A    between atoms: C_1  and  C_2
REMARK    2  A    between atoms: C_6  and  N_9
REMARK    3  A    between atoms: C_7  and  C_8
REMARK    4  A    between atoms: C_10  and  C_12
REMARK    5  A    between atoms: C_12  and  S_13
REMARK    6  A    between atoms: S_13  and  C_14
REMARK    7  A    between atoms: C_18  and  C_22
REMARK    8  A    between atoms: N_20  and  N_21
REMARK    9  A    between atoms: C_25  and  C_28
REMARK                            x       y       z     vdW  Elec       q    Type
REMARK                         _______ _______ _______ _____ _____    ______ ____
ROOT
ATOM      1  C   UNL     1      -0.337  -7.434   4.990  0.00  0.00    +0.214 C 
ATOM      2  N   UNL     1       0.837  -7.048   5.806  0.00  0.00    -0.228 NA
ATOM      3  N   UNL     1       0.375  -5.893   6.591  0.00  0.00    -0.234 NA
ATOM      4  C   UNL     1      -1.029  -6.251   6.921  0.00  0.00    +0.185 C 
ATOM      5  N   UNL     1      -1.529  -6.928   5.701  0.00  0.00    -0.197 NA
ATOM      6  H   UNL     1       1.619  -6.797   5.219  0.00  0.00    +0.143 HD
ATOM      7  H   UNL     1       0.926  -5.781   7.429  0.00  0.00    +0.143 HD
ENDROOT
BRANCH   4   8
ATOM      8  C   UNL     1      -1.849  -4.992   7.213  0.00  0.00    +0.187 C 
ATOM      9  C   UNL     1      -1.244  -4.215   8.368  0.00  0.00    +0.034 C 
ATOM     10  C   UNL     1      -2.215  -4.217   9.302  0.00  0.00    +0.091 C 
ATOM     11  N   UNL     1      -3.306  -4.890   8.850  0.00  0.00    -0.154 NA
ATOM     12  N   UNL     1      -3.189  -5.348   7.707  0.00  0.00    -0.176 NA
BRANCH  10  13
ATOM     13  C   UNL     1      -2.109  -3.575  10.635  0.00  0.00    +0.002 A 
ATOM     14  C   UNL     1      -0.942  -2.904  10.997  0.00  0.00    +0.011 A 
ATOM     15  C   UNL     1      -0.848  -2.308  12.238  0.00  0.00    +0.020 A 
ATOM     16  C   UNL     1      -1.910  -2.378  13.124  0.00  0.00    +0.041 A 
ATOM     17  C   UNL     1      -3.071  -3.044  12.770  0.00  0.00    +0.020 A 
ATOM     18  C   UNL     1      -3.177  -3.637  11.528  0.00  0.00    +0.011 A 
ATOM     19 CL   UNL     1      -1.785  -1.629  14.685  0.00  0.00    -0.084 Cl
ENDBRANCH  10  13
ENDBRANCH   4   8
BRANCH   5  20
ATOM     20  N   UNL     1      -2.434  -8.015   6.040  0.00  0.00    -0.264 NA
ATOM     21  H   UNL     1      -2.747  -8.497   5.211  0.00  0.00    +0.137 HD
ATOM     22  H   UNL     1      -2.002  -8.655   6.690  0.00  0.00    +0.137 HD
ENDBRANCH   5  20
BRANCH   1  23
ATOM     23  S   UNL     1      -0.226  -6.677   3.345  0.00  0.00    -0.115 S 
BRANCH  23  24
ATOM     24  C   UNL     1      -0.129  -4.898   3.686  0.00  0.00    +0.168 C 
BRANCH  24  26
ATOM     25  N   UNL     1       0.052  -2.797   2.393  0.00  0.00    -0.285 N 
ATOM     26  C   UNL     1      -0.031  -4.143   2.385  0.00  0.00    +0.227 C 
ATOM     27  O   UNL     1      -0.028  -4.745   1.333  0.00  0.00    -0.275 OA
ATOM     28  H   UNL     1       0.130  -2.321   3.234  0.00  0.00    +0.155 HD
BRANCH  25  34
ATOM     29  C   UNL     1       1.206   1.236  -0.172  0.00  0.00    +0.044 C 
ATOM     30  C   UNL     1       0.577  -0.131  -0.084  0.00  0.00    -0.046 A 
ATOM     31  C   UNL     1      -0.027  -0.686  -1.198  0.00  0.00    +0.004 A 
ATOM     32  C   UNL     1      -0.605  -1.940  -1.122  0.00  0.00    +0.002 A 
ATOM     33  C   UNL     1      -0.580  -2.642   0.067  0.00  0.00    +0.023 A 
ATOM     34  C   UNL     1       0.026  -2.088   1.187  0.00  0.00    +0.037 A 
ATOM     35  C   UNL     1       0.610  -0.831   1.106  0.00  0.00    -0.026 A 
ATOM     36  C   UNL     1       1.274  -0.228   2.317  0.00  0.00    +0.046 C 
ENDBRANCH  25  34
ENDBRANCH  24  26
ENDBRANCH  23  24
ENDBRANCH   1  23
TORSDOF 7
