REMARK  Name = ZINC39667140
REMARK  9 active torsions:
REMARK  status: ('A' for Active; 'I' for Inactive)
REMARK    1  A    between atoms: C_1  and  C_2
REMARK    2  A    between atoms: C_5  and  C_9
REMARK    3  A    between atoms: C_6  and  C_8
REMARK    4  A    between atoms: C_9  and  C_10
REMARK    5  A    between atoms: C_10  and  N_11
REMARK    6  A    between atoms: C_12  and  C_14
REMARK    7  A    between atoms: C_25  and  C_27
REMARK    8  A    between atoms: C_29  and  C_36
REMARK    9  A    between atoms: C_31  and  C_32
REMARK                            x       y       z     vdW  Elec       q    Type
REMARK                         _______ _______ _______ _____ _____    ______ ____
ROOT
ATOM      1  C   UNL     1      -2.434  -8.499   0.240  0.00  0.00    +0.100 C 
ATOM      2  C   UNL     1      -2.063  -8.996  -1.175  0.00  0.00    +0.121 C 
ATOM      3  N   UNL     1      -2.885 -10.213  -1.372  0.00  0.00    -0.296 N 
ATOM      4  C   UNL     1      -4.193  -9.878  -0.760  0.00  0.00    +0.115 C 
ATOM      5  C   UNL     1      -3.833  -9.079   0.508  0.00  0.00    -0.004 C 
ATOM      6  C   UNL     1      -4.839  -7.953   0.726  0.00  0.00    -0.010 C 
ATOM      7  C   UNL     1      -6.209  -8.555   1.049  0.00  0.00    -0.082 C 
ATOM      8  N   UNL     1      -6.109  -9.388   2.254  0.00  0.00    +0.379 N 
ATOM      9  C   UNL     1      -5.210 -10.521   2.005  0.00  0.00    -0.082 C 
ATOM     10  C   UNL     1      -3.797 -10.003   1.722  0.00  0.00    -0.010 C 
ATOM     11  C   UNL     1      -2.525 -11.365  -1.972  0.00  0.00    +0.250 C 
ATOM     12  O   UNL     1      -1.373 -11.533  -2.325  0.00  0.00    -0.270 OA
ATOM     13  H   UNL     1      -5.746  -8.834   3.015  0.00  0.00    -0.086 HD
ATOM     14  H   UNL     1      -7.024  -9.733   2.499  0.00  0.00    -0.086 HD
ENDROOT
BRANCH  11  15
ATOM     15  C   UNL     1      -3.526 -12.423  -2.198  0.00  0.00    +0.087 A 
ATOM     16  C   UNL     1      -4.976 -12.336  -1.972  0.00  0.00    +0.058 A 
ATOM     17  C   UNL     1      -5.475 -13.534  -2.316  0.00  0.00    +0.103 A 
ATOM     18  O   UNL     1      -4.473 -14.327  -2.724  0.00  0.00    -0.455 OA
ATOM     19  C   UNL     1      -3.302 -13.684  -2.667  0.00  0.00    +0.220 A 
ATOM     20  C   UNL     1      -6.929 -13.925  -2.253  0.00  0.00    +0.086 C 
BRANCH  19  21
ATOM     21  C   UNL     1      -1.962 -14.256  -3.054  0.00  0.00    +0.451 C 
ATOM     22  F   UNL     1      -1.375 -14.861  -1.938  0.00  0.00    -0.163 F 
ATOM     23  F   UNL     1      -2.135 -15.207  -4.064  0.00  0.00    -0.163 F 
ATOM     24  F   UNL     1      -1.133 -13.229  -3.517  0.00  0.00    -0.163 F 
ENDBRANCH  19  21
ENDBRANCH  11  15
BRANCH   1  26
ATOM     25  N   UNL     1      -2.363  -6.342   1.448  0.00  0.00    -0.315 N 
ATOM     26  C   UNL     1      -2.475  -6.993   0.273  0.00  0.00    +0.218 C 
ATOM     27  O   UNL     1      -2.609  -6.367  -0.757  0.00  0.00    -0.275 OA
ATOM     28  H   UNL     1      -2.255  -6.842   2.272  0.00  0.00    +0.149 HD
BRANCH  25  29
ATOM     29  C   UNL     1      -2.403  -4.878   1.480  0.00  0.00    +0.109 C 
BRANCH  29  30
ATOM     30  C   UNL     1      -2.255  -4.395   2.925  0.00  0.00    +0.054 C 
BRANCH  30  35
ATOM     31  C   UNL     1      -2.413   1.380   3.049  0.00  0.00    +0.044 C 
ATOM     32  C   UNL     1      -2.372  -0.126   3.017  0.00  0.00    -0.050 A 
ATOM     33  C   UNL     1      -1.157  -0.783   2.973  0.00  0.00    +0.003 A 
ATOM     34  C   UNL     1      -1.119  -2.165   2.944  0.00  0.00    +0.004 A 
ATOM     35  C   UNL     1      -2.296  -2.889   2.958  0.00  0.00    -0.043 A 
ATOM     36  C   UNL     1      -3.511  -2.232   3.002  0.00  0.00    -0.047 A 
ATOM     37  C   UNL     1      -3.549  -0.850   3.036  0.00  0.00    +0.007 A 
ATOM     38  C   UNL     1      -4.795  -3.021   3.017  0.00  0.00    +0.044 C 
ENDBRANCH  30  35
ENDBRANCH  29  30
ENDBRANCH  25  29
ENDBRANCH   1  26
TORSDOF 6
