REMARK  Name = ZINC09975190
REMARK  10 active torsions:
REMARK  status: ('A' for Active; 'I' for Inactive)
REMARK    1  A    between atoms: C_1  and  C_2
REMARK    2  A    between atoms: C_2  and  C_3
REMARK    3  A    between atoms: C_3  and  C_29
REMARK    4  A    between atoms: N_4  and  N_5
REMARK    5  A    between atoms: N_14  and  C1*_15
REMARK    6  A    between atoms: C2*_17  and  O2*_27
REMARK    7  A    between atoms: C3*_19  and  O3*_26
REMARK    8  A    between atoms: C4*_21  and  C5*_24
REMARK    9  A    between atoms: C5*_24  and  O5*_25
REMARK   10  A    between atoms: C_29  and  C_30
REMARK                            x       y       z     vdW  Elec       q    Type
REMARK                         _______ _______ _______ _____ _____    ______ ____
ROOT
ATOM      1  N   UNL     1       2.040  -0.141  -2.179  0.00  0.00    -0.206 N 
ATOM      2  C   UNL     1       1.942   1.210  -2.446  0.00  0.00    +0.220 A 
ATOM      3  N   UNL     1       2.294   1.784  -3.570  0.00  0.00    -0.208 NA
ATOM      4  C   UNL     1       2.068   3.118  -3.485  0.00  0.00    +0.149 A 
ATOM      5  C   UNL     1       2.251   4.206  -4.355  0.00  0.00    +0.147 A 
ATOM      6  N   UNL     1       1.910   5.419  -3.933  0.00  0.00    -0.219 NA
ATOM      7  C   UNL     1       1.411   5.607  -2.725  0.00  0.00    +0.225 A 
ATOM      8  N   UNL     1       1.222   4.618  -1.877  0.00  0.00    -0.216 NA
ATOM      9  C   UNL     1       1.533   3.370  -2.211  0.00  0.00    +0.169 A 
ATOM     10  N   UNL     1       1.461   2.152  -1.578  0.00  0.00    -0.266 N 
ATOM     11  N   UNL     1       2.774   4.018  -5.624  0.00  0.00    -0.341 N 
ATOM     12  H   UNL     1       1.689  -0.498  -1.348  0.00  0.00    +0.177 HD
ATOM     13  H   UNL     1       3.688   3.618  -5.552  0.00  0.00    +0.144 HD
ATOM     14  H   UNL     1       2.896   4.777  -6.216  0.00  0.00    +0.144 HD
ENDROOT
BRANCH  10  15
ATOM     15  C1* UNL     1       0.966   1.907  -0.221  0.00  0.00    +0.255 C 
ATOM     16  C2* UNL     1       0.159   3.124   0.285  0.00  0.00    +0.195 C 
ATOM     17  C3* UNL     1      -1.307   2.766  -0.045  0.00  0.00    +0.178 C 
ATOM     18  C4* UNL     1      -1.213   1.375  -0.711  0.00  0.00    +0.177 C 
ATOM     19  O4* UNL     1       0.023   0.813  -0.219  0.00  0.00    -0.346 OA
BRANCH  17  20
ATOM     20  O3* UNL     1      -2.088   2.700   1.150  0.00  0.00    -0.386 OA
ATOM     21  H3* UNL     1      -3.017   2.479   1.001  0.00  0.00    +0.210 HD
ENDBRANCH  17  20
BRANCH  16  22
ATOM     22  O2* UNL     1       0.330   3.288   1.694  0.00  0.00    -0.385 OA
ATOM     23  H2* UNL     1      -0.201   4.000   2.074  0.00  0.00    +0.210 HD
ENDBRANCH  16  22
BRANCH  18  24
ATOM     24  C5* UNL     1      -2.398   0.503  -0.293  0.00  0.00    +0.190 C 
BRANCH  24  25
ATOM     25  O5* UNL     1      -2.356  -0.733  -1.008  0.00  0.00    -0.392 OA
ATOM     26  H5* UNL     1      -3.080  -1.337  -0.792  0.00  0.00    +0.210 HD
ENDBRANCH  24  25
ENDBRANCH  18  24
ENDBRANCH  10  15
BRANCH   1  28
ATOM     27  C   UNL     1       2.659  -2.260  -2.901  0.00  0.00    +0.041 C 
ATOM     28  N   UNL     1       2.646  -0.997  -3.108  0.00  0.00    -0.189 NA
BRANCH  27  30
ATOM     29  C   UNL     1       0.629  -3.088  -1.743  0.00  0.00    +0.010 C 
ATOM     30  C   UNL     1       2.128  -2.817  -1.605  0.00  0.00    +0.049 C 
ENDBRANCH  27  30
BRANCH  27  31
ATOM     31  C   UNL     1       3.206  -3.191  -3.953  0.00  0.00    +0.087 C 
BRANCH  31  32
ATOM     32  C   UNL     1       4.442  -3.873  -3.427  0.00  0.00    -0.042 A 
ATOM     33  C   UNL     1       5.685  -3.300  -3.625  0.00  0.00    +0.004 A 
ATOM     34  C   UNL     1       6.819  -3.923  -3.139  0.00  0.00    +0.000 A 
ATOM     35  C   UNL     1       6.711  -5.124  -2.462  0.00  0.00    +0.000 A 
ATOM     36  C   UNL     1       5.469  -5.699  -2.268  0.00  0.00    +0.000 A 
ATOM     37  C   UNL     1       4.335  -5.074  -2.751  0.00  0.00    +0.004 A 
ENDBRANCH  31  32
ENDBRANCH  27  31
ENDBRANCH   1  28
TORSDOF 9
