REMARK  Name = ZINC57858526
REMARK  7 active torsions:
REMARK  status: ('A' for Active; 'I' for Inactive)
REMARK    1  A    between atoms: C_1  and  C_2
REMARK    2  A    between atoms: C_2  and  C_30
REMARK    3  A    between atoms: C_7  and  N_11
REMARK    4  A    between atoms: N_14  and  C_15
REMARK    5  A    between atoms: C_15  and  C_17
REMARK    6  A    between atoms: C_15  and  C_24
REMARK    7  A    between atoms: N_28  and  C_29
REMARK                            x       y       z     vdW  Elec       q    Type
REMARK                         _______ _______ _______ _____ _____    ______ ____
ROOT
ATOM      1  N   UNL     1       5.579  -1.046   1.541  0.00  0.00    -0.269 N 
ATOM      2  C   UNL     1       6.743  -1.271   0.900  0.00  0.00    +0.305 C 
ATOM      3  O   UNL     1       6.779  -1.264  -0.315  0.00  0.00    -0.252 OA
ATOM      4  N   UNL     1       7.868  -1.503   1.606  0.00  0.00    -0.285 N 
ATOM      5  H   UNL     1       5.565  -0.974   2.509  0.00  0.00    +0.156 HD
ATOM      6  H   UNL     1       7.839  -1.508   2.575  0.00  0.00    +0.151 HD
ENDROOT
BRANCH   1  13
ATOM      7  C   UNL     1       0.857   2.074  -1.332  0.00  0.00    +0.104 C 
ATOM      8  C   UNL     1       0.411   0.862  -0.511  0.00  0.00    +0.248 C 
ATOM      9  O   UNL     1       0.813  -0.361  -1.157  0.00  0.00    -0.448 OA
ATOM     10  C   UNL     1       2.041  -0.661  -0.638  0.00  0.00    +0.167 A 
ATOM     11  C   UNL     1       3.040  -1.513  -1.080  0.00  0.00    +0.051 A 
ATOM     12  C   UNL     1       4.211  -1.641  -0.359  0.00  0.00    +0.027 A 
ATOM     13  C   UNL     1       4.391  -0.915   0.811  0.00  0.00    +0.038 A 
ATOM     14  C   UNL     1       3.393  -0.060   1.257  0.00  0.00    +0.073 A 
ATOM     15  C   UNL     1       2.217   0.068   0.535  0.00  0.00    +0.169 A 
ATOM     16  O   UNL     1       1.102   0.825   0.751  0.00  0.00    -0.448 OA
ATOM     17  C   UNL     1      -1.103   0.887  -0.296  0.00  0.00    +0.104 C 
ENDBRANCH   1  13
BRANCH   4  18
ATOM     18  C   UNL     1       9.133  -1.748   0.909  0.00  0.00    +0.171 C 
BRANCH  18  19
ATOM     19  C   UNL     1      10.047  -2.553   1.796  0.00  0.00    -0.020 A 
ATOM     20  C   UNL     1      10.107  -2.285   3.151  0.00  0.00    +0.009 A 
ATOM     21  C   UNL     1      10.945  -3.023   3.965  0.00  0.00    +0.038 A 
ATOM     22  C   UNL     1      11.725  -4.030   3.423  0.00  0.00    +0.123 A 
ATOM     23  C   UNL     1      11.665  -4.298   2.066  0.00  0.00    +0.038 A 
ATOM     24  C   UNL     1      10.822  -3.562   1.255  0.00  0.00    +0.009 A 
ATOM     25  F   UNL     1      12.545  -4.752   4.218  0.00  0.00    -0.205 F 
ENDBRANCH  18  19
BRANCH  18  26
ATOM     26  C   UNL     1       9.786  -0.431   0.576  0.00  0.00    +0.134 A 
ATOM     27  N   UNL     1       9.909   0.583   1.388  0.00  0.00    -0.238 NA
ATOM     28  C   UNL     1      10.541   1.582   0.754  0.00  0.00    +0.130 A 
ATOM     29  C   UNL     1      10.820   1.171  -0.497  0.00  0.00    +0.106 A 
ATOM     30  N   UNL     1      10.346  -0.108  -0.609  0.00  0.00    -0.336 N 
ATOM     31  C   UNL     1      10.429  -0.966  -1.794  0.00  0.00    +0.150 C 
ENDBRANCH  18  26
ENDBRANCH   4  18
TORSDOF 4
