REMARK  Name = ZINC64459545
REMARK  5 active torsions:
REMARK  status: ('A' for Active; 'I' for Inactive)
REMARK    1  A    between atoms: C_4  and  S_7
REMARK    2  A    between atoms: S_7  and  C_10
REMARK    3  A    between atoms: C_10  and  C_11
REMARK    4  A    between atoms: C_11  and  C_12
REMARK    5  A    between atoms: C_15  and  C_18
REMARK                            x       y       z     vdW  Elec       q    Type
REMARK                         _______ _______ _______ _____ _____    ______ ____
ROOT
ATOM      1  C   UNL     1       6.044  -2.009   3.263  0.00  0.00    +0.139 C 
ATOM      2  N   UNL     1       5.319  -1.609   4.243  0.00  0.00    -0.072 NA
ATOM      3  O   UNL     1       5.914  -1.940   5.484  0.00  0.00    -0.367 OA
ATOM      4  C   UNL     1       7.142  -2.619   5.175  0.00  0.00    +0.318 C 
ATOM      5  N   UNL     1       7.181  -2.645   3.704  0.00  0.00    -0.291 N 
ATOM      6  H   UNL     1       7.877  -3.034   3.151  0.00  0.00    +0.151 HD
ENDROOT
BRANCH   4   7
ATOM      7  C   UNL     1       8.337  -1.846   5.736  0.00  0.00    +0.165 C 
ATOM      8  C   UNL     1       8.334  -0.428   5.210  0.00  0.00    +0.012 C 
ATOM      9  C   UNL     1       8.231   0.374   6.294  0.00  0.00    -0.004 A 
ATOM     10  C   UNL     1       8.178   1.833   6.450  0.00  0.00    +0.010 A 
ATOM     11  C   UNL     1       8.072   2.356   7.693  0.00  0.00    +0.001 A 
ATOM     12  C   UNL     1       8.013   1.542   8.832  0.00  0.00    +0.002 A 
ATOM     13  C   UNL     1       8.056   0.194   8.769  0.00  0.00    +0.026 A 
ATOM     14  C   UNL     1       8.167  -0.463   7.513  0.00  0.00    +0.043 A 
ATOM     15  N   UNL     1       8.228  -1.735   7.195  0.00  0.00    -0.373 N 
ATOM     16  H   UNL     1       8.204  -2.478   7.819  0.00  0.00    +0.160 HD
ENDBRANCH   4   7
BRANCH   1  17
ATOM     17  C   UNL     1       5.691  -1.813   1.812  0.00  0.00    +0.098 C 
BRANCH  17  18
ATOM     18  C   UNL     1       4.359  -1.068   1.707  0.00  0.00    +0.179 C 
BRANCH  18  19
ATOM     19  S   UNL     1       3.934  -0.832  -0.041  0.00  0.00    -0.003 S 
ATOM     20  O   UNL     1       3.641  -2.083  -0.647  0.00  0.00    -0.169 OA
ATOM     21  O   UNL     1       4.846   0.072  -0.648  0.00  0.00    -0.169 OA
BRANCH  19  25
ATOM     22  C   UNL     1      -0.017   1.378   0.010  0.00  0.00    +0.000 A 
ATOM     23  C   UNL     1       1.171   2.086   0.002  0.00  0.00    +0.002 A 
ATOM     24  C   UNL     1       2.377   1.411  -0.013  0.00  0.00    +0.027 A 
ATOM     25  C   UNL     1       2.396   0.029  -0.020  0.00  0.00    +0.088 A 
ATOM     26  C   UNL     1       1.208  -0.679  -0.012  0.00  0.00    +0.027 A 
ATOM     27  C   UNL     1       0.002  -0.004   0.002  0.00  0.00    +0.002 A 
ENDBRANCH  19  25
ENDBRANCH  18  19
ENDBRANCH  17  18
ENDBRANCH   1  17
TORSDOF 5
