REMARK  Name = ZINC61366579
REMARK  9 active torsions:
REMARK  status: ('A' for Active; 'I' for Inactive)
REMARK    1  A    between atoms: C_1  and  C_2
REMARK    2  A    between atoms: C_2  and  C_3
REMARK    3  A    between atoms: C_4  and  C_5
REMARK    4  A    between atoms: C_4  and  C_6
REMARK    5  A    between atoms: N_8  and  N_9
REMARK    6  A    between atoms: C_10  and  C_12
REMARK    7  A    between atoms: C_17  and  N_18
REMARK    8  A    between atoms: N_18  and  S_19
REMARK    9  A    between atoms: S_19  and  C_22
REMARK                            x       y       z     vdW  Elec       q    Type
REMARK                         _______ _______ _______ _____ _____    ______ ____
ROOT
ATOM      1  C   UNL     1      -5.260  -4.072   2.997  0.00  0.00    +0.063 A 
ATOM      2  C   UNL     1      -5.861  -3.785   1.768  0.00  0.00    +0.015 A 
ATOM      3  C   UNL     1      -7.145  -4.215   1.515  0.00  0.00    +0.001 A 
ATOM      4  C   UNL     1      -7.845  -4.932   2.472  0.00  0.00    +0.002 A 
ATOM      5  C   UNL     1      -7.266  -5.223   3.690  0.00  0.00    +0.027 A 
ATOM      6  C   UNL     1      -5.969  -4.803   3.962  0.00  0.00    +0.086 A 
ENDROOT
BRANCH   1   8
ATOM      7  N   UNL     1      -3.208  -2.912   2.345  0.00  0.00    -0.230 N 
ATOM      8  C   UNL     1      -3.886  -3.614   3.275  0.00  0.00    +0.262 C 
ATOM      9  O   UNL     1      -3.364  -3.870   4.343  0.00  0.00    -0.269 OA
ATOM     10  H   UNL     1      -3.624  -2.708   1.493  0.00  0.00    +0.173 HD
BRANCH   7  13
ATOM     11  C   UNL     1      -1.225  -1.775   1.679  0.00  0.00    +0.256 C 
ATOM     12  O   UNL     1      -1.747  -1.520   0.611  0.00  0.00    -0.269 OA
ATOM     13  N   UNL     1      -1.903  -2.477   2.609  0.00  0.00    -0.230 N 
ATOM     14  H   UNL     1      -1.487  -2.681   3.462  0.00  0.00    +0.173 HD
BRANCH  11  16
ATOM     15  C   UNL     1       1.161  -2.172   1.866  0.00  0.00    -0.019 C 
ATOM     16  C   UNL     1       0.145  -1.319   1.957  0.00  0.00    +0.009 C 
ATOM     17  C   UNL     1       0.398   0.116   2.344  0.00  0.00    +0.049 C 
BRANCH  15  19
ATOM     18  C   UNL     1       1.821  -3.835   0.149  0.00  0.00    +0.008 C 
ATOM     19  C   UNL     1       0.927  -3.573   1.363  0.00  0.00    +0.024 C 
ENDBRANCH  15  19
ENDBRANCH  11  16
ENDBRANCH   7  13
ENDBRANCH   1   8
BRANCH   6  20
ATOM     20  N   UNL     1      -5.381  -5.100   5.184  0.00  0.00    -0.097 NA
BRANCH  20  21
ATOM     21  S   UNL     1      -6.223  -5.963   6.320  0.00  0.00    +0.098 S 
ATOM     22  O   UNL     1      -7.309  -5.144   6.730  0.00  0.00    -0.148 OA
ATOM     23  O   UNL     1      -6.411  -7.265   5.783  0.00  0.00    -0.148 OA
BRANCH  21  24
ATOM     24  C   UNL     1      -5.170  -6.144   7.722  0.00  0.00    +0.148 A 
ATOM     25  C   UNL     1      -5.044  -5.338   8.804  0.00  0.00    +0.037 A 
ATOM     26  C   UNL     1      -4.144  -5.682   9.795  0.00  0.00    +0.010 A 
ATOM     27  C   UNL     1      -3.415  -6.816   9.655  0.00  0.00    +0.047 A 
ATOM     28  S   UNL     1      -4.000  -7.441   8.089  0.00  0.00    -0.077 S 
ENDBRANCH  21  24
ENDBRANCH  20  21
ENDBRANCH   6  20
TORSDOF 7
