REMARK  Name = ZINC33273131
REMARK  5 active torsions:
REMARK  status: ('A' for Active; 'I' for Inactive)
REMARK    1  A    between atoms: C_1  and  C_2
REMARK    2  A    between atoms: C_7  and  N_8
REMARK    3  A    between atoms: C_14  and  C_17
REMARK    4  A    between atoms: C_20  and  C_22
REMARK    5  A    between atoms: N_24  and  C_25
REMARK                            x       y       z     vdW  Elec       q    Type
REMARK                         _______ _______ _______ _____ _____    ______ ____
ROOT
ATOM      1  N   UNL     1      -9.405  -4.206  -0.349  0.00  0.00    -0.269 N 
ATOM      2  C   UNL     1      -9.113  -3.478   0.747  0.00  0.00    +0.306 C 
ATOM      3  O   UNL     1      -9.424  -3.886   1.849  0.00  0.00    -0.252 OA
ATOM      4  N   UNL     1      -8.477  -2.296   0.622  0.00  0.00    -0.285 N 
ATOM      5  C   UNL     1      -8.192  -1.737  -0.707  0.00  0.00    +0.110 C 
ATOM      6  C   UNL     1      -6.696  -1.421  -0.799  0.00  0.00    +0.029 C 
ATOM      7  C   UNL     1      -6.298  -0.510   0.365  0.00  0.00    +0.049 C 
ATOM      8  C   UNL     1      -6.559  -1.230   1.690  0.00  0.00    +0.029 C 
ATOM      9  C   UNL     1      -8.054  -1.543   1.810  0.00  0.00    +0.110 C 
ATOM     10  H   UNL     1      -9.209  -3.795  -1.350  0.00  0.00    +0.156 HD
ENDROOT
BRANCH   1  17
ATOM     11  C   UNL     1     -10.963  -5.231  -2.497  0.00  0.00    +0.045 C 
ATOM     12  C   UNL     1     -10.725  -6.023  -1.237  0.00  0.00    -0.029 A 
ATOM     13  C   UNL     1     -11.266  -7.287  -1.102  0.00  0.00    +0.006 A 
ATOM     14  C   UNL     1     -11.053  -8.012   0.056  0.00  0.00    +0.020 A 
ATOM     15  C   UNL     1     -10.294  -7.476   1.081  0.00  0.00    +0.043 A 
ATOM     16  C   UNL     1      -9.746  -6.214   0.950  0.00  0.00    +0.043 A 
ATOM     17  C   UNL     1      -9.958  -5.484  -0.212  0.00  0.00    +0.039 A 
ATOM     18 CL   UNL     1     -10.030  -8.389   2.534  0.00  0.00    -0.083 Cl
ENDBRANCH   1  17
BRANCH   7  19
ATOM     19  C   UNL     1      -4.834  -0.170   0.258  0.00  0.00    +0.106 A 
ATOM     20  N   UNL     1      -3.783  -0.971   0.262  0.00  0.00    -0.146 NA
ATOM     21  N   UNL     1      -2.604  -0.529   0.164  0.00  0.00    -0.136 NA
ATOM     22  C   UNL     1      -2.386   0.778   0.051  0.00  0.00    +0.187 A 
ATOM     23  S   UNL     1      -4.068   1.384   0.104  0.00  0.00    -0.046 S 
BRANCH  22  24
ATOM     24  C   UNL     1      -1.118   1.518  -0.076  0.00  0.00    +0.275 C 
ATOM     25  O   UNL     1      -1.128   2.730  -0.168  0.00  0.00    -0.268 OA
ATOM     26  N   UNL     1       0.053   0.850  -0.089  0.00  0.00    -0.280 N 
ATOM     27  H   UNL     1       0.059  -0.250  -0.079  0.00  0.00    +0.155 HD
BRANCH  26  28
ATOM     28  C   UNL     1       1.261   1.557  -0.115  0.00  0.00    +0.037 A 
ATOM     29  C   UNL     1       1.353   2.748  -0.823  0.00  0.00    +0.027 A 
ATOM     30  C   UNL     1       2.544   3.450  -0.845  0.00  0.00    +0.051 A 
ATOM     31  C   UNL     1       3.651   2.962  -0.170  0.00  0.00    +0.166 A 
ATOM     32  C   UNL     1       3.563   1.764   0.535  0.00  0.00    +0.168 A 
ATOM     33  C   UNL     1       2.368   1.064   0.562  0.00  0.00    +0.072 A 
ATOM     34  O   UNL     1       4.776   1.503   1.105  0.00  0.00    -0.453 OA
ATOM     35  C   UNL     1       5.717   2.339   0.406  0.00  0.00    +0.466 C 
ATOM     36  O   UNL     1       4.920   3.451  -0.042  0.00  0.00    -0.453 OA
ENDBRANCH  26  28
ENDBRANCH  22  24
ENDBRANCH   7  19
TORSDOF 4
