REMARK  Name = ZINC62238256
REMARK  3 active torsions:
REMARK  status: ('A' for Active; 'I' for Inactive)
REMARK    1  A    between atoms: C_5  and  C_7
REMARK    2  A    between atoms: C_8  and  C_19
REMARK    3  A    between atoms: N_11  and  C_12
REMARK                            x       y       z     vdW  Elec       q    Type
REMARK                         _______ _______ _______ _____ _____    ______ ____
ROOT
ATOM      1  C   UNL     1       1.250  -2.159  -0.023  0.00  0.00    +0.115 A 
ATOM      2  C   UNL     1       1.271  -3.001   1.084  0.00  0.00    +0.190 A 
ATOM      3  N   UNL     1       1.293  -4.269   0.643  0.00  0.00    -0.118 NA
ATOM      4  N   UNL     1       1.287  -4.291  -0.642  0.00  0.00    -0.059 NA
ATOM      5  N   UNL     1       1.254  -2.974  -1.120  0.00  0.00    -0.211 N 
ENDROOT
BRANCH   1  10
ATOM      6  C   UNL     1      -0.017   1.375   0.010  0.00  0.00    +0.001 A 
ATOM      7  C   UNL     1       1.170   2.087   0.002  0.00  0.00    +0.003 A 
ATOM      8  C   UNL     1       2.383   1.424  -0.013  0.00  0.00    +0.039 A 
ATOM      9  C   UNL     1       2.418   0.042  -0.022  0.00  0.00    +0.133 A 
ATOM     10  C   UNL     1       1.222  -0.683  -0.014  0.00  0.00    +0.038 A 
ATOM     11  C   UNL     1       0.002  -0.004   0.002  0.00  0.00    +0.013 A 
ATOM     12  F   UNL     1       3.603  -0.606  -0.038  0.00  0.00    -0.205 F 
ENDBRANCH   1  10
BRANCH   5  13
ATOM     13  C   UNL     1       1.232  -2.570  -2.463  0.00  0.00    +0.068 A 
ATOM     14  C   UNL     1       0.521  -1.437  -2.836  0.00  0.00    +0.030 A 
ATOM     15  C   UNL     1       0.501  -1.041  -4.159  0.00  0.00    +0.040 A 
ATOM     16  C   UNL     1       1.189  -1.773  -5.112  0.00  0.00    +0.124 A 
ATOM     17  C   UNL     1       1.899  -2.903  -4.742  0.00  0.00    +0.040 A 
ATOM     18  C   UNL     1       1.925  -3.299  -3.419  0.00  0.00    +0.030 A 
ATOM     19  F   UNL     1       1.168  -1.384  -6.406  0.00  0.00    -0.205 F 
ENDBRANCH   5  13
BRANCH   2  20
ATOM     20  C   UNL     1       1.270  -2.588   2.455  0.00  0.00    +0.123 C 
ATOM     21  N   UNL     1       1.269  -2.260   3.543  0.00  0.00    -0.189 NA
ENDBRANCH   2  20
TORSDOF 3
