REMARK  Name = ZINC18324704
REMARK  11 active torsions:
REMARK  status: ('A' for Active; 'I' for Inactive)
REMARK    1  A    between atoms: C_1  and  C_2
REMARK    2  A    between atoms: C_6  and  N_8
REMARK    3  A    between atoms: N_8  and  S_9
REMARK    4  A    between atoms: S_9  and  C_12
REMARK    5  A    between atoms: C_15  and  N_18
REMARK    6  A    between atoms: C_19  and  C_21
REMARK    7  A    between atoms: C_21  and  S_22
REMARK    8  A    between atoms: S_22  and  C_23
REMARK    9  A    between atoms: C_28  and  C_32
REMARK   10  A    between atoms: C_29  and  C_31
REMARK   11  A    between atoms: C_32  and  C_33
REMARK                            x       y       z     vdW  Elec       q    Type
REMARK                         _______ _______ _______ _____ _____    ______ ____
ROOT
ATOM      1  N   UNL     1       0.122  -6.008   8.058  0.00  0.00    -0.285 N 
ATOM      2  C   UNL     1      -1.037  -6.121   8.737  0.00  0.00    +0.227 C 
ATOM      3  O   UNL     1      -2.094  -5.969   8.162  0.00  0.00    -0.275 OA
ATOM      4  H   UNL     1       0.963  -6.204   8.499  0.00  0.00    +0.155 HD
ENDROOT
BRANCH   1   8
ATOM      5  C   UNL     1       0.089  -4.813   4.067  0.00  0.00    +0.111 A 
ATOM      6  C   UNL     1      -0.856  -4.315   4.944  0.00  0.00    +0.031 A 
ATOM      7  C   UNL     1      -0.848  -4.709   6.268  0.00  0.00    +0.025 A 
ATOM      8  C   UNL     1       0.111  -5.607   6.718  0.00  0.00    +0.034 A 
ATOM      9  C   UNL     1       1.059  -6.106   5.834  0.00  0.00    +0.025 A 
ATOM     10  C   UNL     1       1.042  -5.712   4.511  0.00  0.00    +0.031 A 
BRANCH   5  11
ATOM     11  S   UNL     1       0.076  -4.308   2.379  0.00  0.00    +0.094 S 
ATOM     12  O   UNL     1       1.394  -4.502   1.886  0.00  0.00    -0.148 OA
ATOM     13  O   UNL     1      -0.575  -3.046   2.338  0.00  0.00    -0.148 OA
BRANCH  11  14
ATOM     14  N   UNL     1      -0.897  -5.368   1.559  0.00  0.00    -0.058 NA
BRANCH  14  20
ATOM     15  C   UNL     1      -2.976  -6.932  -2.465  0.00  0.00    +0.066 C 
ATOM     16  C   UNL     1      -2.086  -5.953  -1.744  0.00  0.00    +0.043 A 
ATOM     17  C   UNL     1      -1.478  -4.916  -2.435  0.00  0.00    +0.043 A 
ATOM     18  C   UNL     1      -0.667  -4.038  -1.734  0.00  0.00    +0.116 A 
ATOM     19  N   UNL     1      -0.499  -4.213  -0.433  0.00  0.00    -0.220 NA
ATOM     20  C   UNL     1      -1.095  -5.214   0.198  0.00  0.00    +0.258 A 
ATOM     21  N   UNL     1      -1.880  -6.069  -0.443  0.00  0.00    -0.217 NA
ENDBRANCH  14  20
ENDBRANCH  11  14
ENDBRANCH   5  11
ENDBRANCH   1   8
BRANCH   2  22
ATOM     22  C   UNL     1      -1.019  -6.436  10.211  0.00  0.00    +0.173 C 
BRANCH  22  23
ATOM     23  S   UNL     1      -2.721  -6.522  10.832  0.00  0.00    -0.078 S 
BRANCH  23  24
ATOM     24  C   UNL     1      -2.532  -6.893  12.544  0.00  0.00    +0.170 A 
ATOM     25  N   UNL     1      -3.639  -7.035  13.324  0.00  0.00    -0.302 N 
ATOM     26  H   UNL     1      -4.523  -6.933  12.938  0.00  0.00    +0.171 HD
ATOM     27  C   UNL     1      -3.502  -7.320  14.637  0.00  0.00    +0.256 A 
ATOM     28  O   UNL     1      -4.483  -7.452  15.350  0.00  0.00    -0.267 OA
ATOM     29  C   UNL     1      -2.207  -7.463  15.165  0.00  0.00    +0.042 A 
ATOM     30  C   UNL     1      -1.134  -7.310  14.335  0.00  0.00    +0.050 A 
ATOM     31  N   UNL     1      -1.321  -7.034  13.047  0.00  0.00    -0.228 NA
ATOM     32  C   UNL     1       0.264  -7.458  14.878  0.00  0.00    +0.066 C 
BRANCH  29  33
ATOM     33  C   UNL     1      -2.006  -7.781  16.625  0.00  0.00    +0.069 C 
BRANCH  33  34
ATOM     34  C   UNL     1      -2.030  -6.503  17.424  0.00  0.00    -0.030 C 
ATOM     35  C   UNL     1      -2.865  -6.373  18.426  0.00  0.00    +0.004 C 
ENDBRANCH  33  34
ENDBRANCH  29  33
ENDBRANCH  23  24
ENDBRANCH  22  23
ENDBRANCH   2  22
TORSDOF 9
