REMARK  Name = ZINC63271623
REMARK  7 active torsions:
REMARK  status: ('A' for Active; 'I' for Inactive)
REMARK    1  A    between atoms: C_1  and  C_2
REMARK    2  A    between atoms: C_4  and  C_17
REMARK    3  A    between atoms: C_8  and  O_15
REMARK    4  A    between atoms: N_12  and  C_13
REMARK    5  A    between atoms: O_15  and  C_16
REMARK    6  A    between atoms: C_27  and  O_32
REMARK    7  A    between atoms: O_32  and  C_33
REMARK                            x       y       z     vdW  Elec       q    Type
REMARK                         _______ _______ _______ _____ _____    ______ ____
ROOT
ATOM      1  C   UNL     1      -1.691  -1.442  -1.145  0.00  0.00    +0.225 C 
ATOM      2  O   UNL     1      -0.853  -1.549  -2.015  0.00  0.00    -0.275 OA
ATOM      3  N   UNL     1      -2.857  -2.110  -1.247  0.00  0.00    -0.297 N 
ATOM      4  C   UNL     1      -3.926  -1.897  -0.265  0.00  0.00    +0.110 C 
ATOM      5  C   UNL     1      -5.217  -1.446  -0.958  0.00  0.00    +0.048 C 
ATOM      6  C   UNL     1      -5.645  -2.527  -1.953  0.00  0.00    +0.109 C 
ATOM      7  C   UNL     1      -4.460  -2.768  -2.880  0.00  0.00    -0.021 C 
ATOM      8  C   UNL     1      -4.904  -2.584  -4.115  0.00  0.00    +0.004 A 
ATOM      9  C   UNL     1      -4.257  -2.739  -5.427  0.00  0.00    +0.055 A 
ATOM     10  C   UNL     1      -5.015  -2.449  -6.521  0.00  0.00    +0.121 A 
ATOM     11  C   UNL     1      -6.348  -2.020  -6.459  0.00  0.00    +0.047 A 
ATOM     12  C   UNL     1      -7.043  -1.848  -5.305  0.00  0.00    +0.029 A 
ATOM     13  C   UNL     1      -6.330  -2.136  -4.053  0.00  0.00    +0.043 A 
ATOM     14  N   UNL     1      -6.750  -2.082  -2.805  0.00  0.00    -0.377 N 
ATOM     15  C   UNL     1      -3.080  -3.066  -2.353  0.00  0.00    +0.141 C 
ATOM     16  H   UNL     1      -7.624  -1.798  -2.497  0.00  0.00    +0.160 HD
ENDROOT
BRANCH   1  19
ATOM     17  C   UNL     1      -2.852   1.402   0.728  0.00  0.00    +0.029 C 
ATOM     18  C   UNL     1      -1.804   0.896  -0.266  0.00  0.00    +0.086 C 
ATOM     19  C   UNL     1      -1.430  -0.561   0.050  0.00  0.00    +0.127 C 
ATOM     20  C   UNL     1       0.050  -0.515   0.360  0.00  0.00    -0.009 A 
ATOM     21  C   UNL     1       0.933  -1.519   0.711  0.00  0.00    +0.053 A 
ATOM     22  C   UNL     1       2.265  -1.221   0.950  0.00  0.00    +0.134 A 
ATOM     23  C   UNL     1       2.709   0.089   0.834  0.00  0.00    +0.061 A 
ATOM     24  C   UNL     1       1.828   1.090   0.483  0.00  0.00    +0.042 A 
ATOM     25  C   UNL     1       0.485   0.795   0.242  0.00  0.00    +0.035 A 
ATOM     26  N   UNL     1      -0.559   1.655  -0.122  0.00  0.00    -0.329 N 
ATOM     27  C   UNL     1      -0.428   3.099  -0.330  0.00  0.00    +0.129 C 
ATOM     28 BR   UNL     1       4.525   0.502   1.159  0.00  0.00    -0.046 Br
BRANCH  22  29
ATOM     29  O   UNL     1       3.134  -2.208   1.297  0.00  0.00    -0.494 OA
ATOM     30  C   UNL     1       2.605  -3.532   1.397  0.00  0.00    +0.277 C 
ENDBRANCH  22  29
ENDBRANCH   1  19
BRANCH  10  31
ATOM     31  O   UNL     1      -4.443  -2.583  -7.747  0.00  0.00    -0.495 OA
ATOM     32  C   UNL     1      -5.258  -2.273  -8.879  0.00  0.00    +0.277 C 
ENDBRANCH  10  31
TORSDOF 3
