REMARK  Name = ZINC00623077
REMARK  5 active torsions:
REMARK  status: ('A' for Active; 'I' for Inactive)
REMARK    1  A    between atoms: C_1  and  C_2
REMARK    2  A    between atoms: C_2  and  C_24
REMARK    3  A    between atoms: C_6  and  C_14
REMARK    4  A    between atoms: C_8  and  C_12
REMARK    5  A    between atoms: C_9  and  N_11
REMARK                            x       y       z     vdW  Elec       q    Type
REMARK                         _______ _______ _______ _____ _____    ______ ____
ROOT
ATOM      1  C   UNL     1      -2.496   4.527   3.539  0.00  0.00    +0.012 C 
ATOM      2  C   UNL     1      -2.212   6.023   3.686  0.00  0.00    -0.021 C 
ATOM      3  C   UNL     1      -2.744   6.770   2.461  0.00  0.00    +0.081 C 
ATOM      4  C   UNL     1      -2.044   6.271   1.219  0.00  0.00    +0.115 C 
ATOM      5  C   UNL     1      -0.773   5.832   1.276  0.00  0.00    +0.046 C 
ATOM      6  C   UNL     1      -0.071   5.348   0.030  0.00  0.00    +0.101 C 
ATOM      7  C   UNL     1      -0.793   5.842  -1.192  0.00  0.00    +0.098 C 
ATOM      8  C   UNL     1      -2.071   6.278  -1.107  0.00  0.00    +0.198 C 
ATOM      9  O   UNL     1      -2.732   6.278   0.061  0.00  0.00    -0.445 OA
ATOM     10  C   UNL     1      -0.061   5.808   2.490  0.00  0.00    +0.164 C 
ATOM     11  O   UNL     1       1.090   5.420   2.499  0.00  0.00    -0.292 OA
ATOM     12  C   UNL     1      -0.700   6.254   3.777  0.00  0.00    +0.086 C 
ATOM     13  C   UNL     1      -2.891   6.553   4.951  0.00  0.00    +0.012 C 
ENDROOT
BRANCH   6  14
ATOM     14  C   UNL     1      -0.050   3.841   0.022  0.00  0.00    -0.034 A 
ATOM     15  C   UNL     1      -1.238   3.133   0.030  0.00  0.00    +0.004 A 
ATOM     16  C   UNL     1      -1.219   1.751   0.017  0.00  0.00    +0.001 A 
ATOM     17  C   UNL     1      -0.013   1.076   0.008  0.00  0.00    +0.015 A 
ATOM     18  C   UNL     1       1.176   1.784   0.000  0.00  0.00    +0.018 A 
ATOM     19  C   UNL     1       1.156   3.167   0.007  0.00  0.00    +0.020 A 
ATOM     20 BR   UNL     1       2.826   0.861  -0.020  0.00  0.00    -0.050 Br
ENDBRANCH   6  14
BRANCH   8  21
ATOM     21  N   UNL     1      -2.706   6.728  -2.238  0.00  0.00    -0.328 N 
ATOM     22  H   UNL     1      -3.622   7.042  -2.188  0.00  0.00    +0.145 HD
ATOM     23  H   UNL     1      -2.238   6.733  -3.088  0.00  0.00    +0.145 HD
ENDBRANCH   8  21
BRANCH   7  24
ATOM     24  C   UNL     1      -0.124   5.854  -2.458  0.00  0.00    +0.101 C 
ATOM     25  N   UNL     1       0.406   5.863  -3.462  0.00  0.00    -0.191 NA
ENDBRANCH   7  24
TORSDOF 3
