REMARK  Name = ZINC44902864
REMARK  1 active torsions:
REMARK  status: ('A' for Active; 'I' for Inactive)
REMARK    1  A    between atoms: C_5  and  N_8
REMARK                            x       y       z     vdW  Elec       q    Type
REMARK                         _______ _______ _______ _____ _____    ______ ____
ROOT
ATOM      1  N   UNL     1       0.859  -1.952  -1.205  0.00  0.00    -0.205 N 
ATOM      2  C   UNL     1       0.166  -2.802  -1.984  0.00  0.00    +0.225 A 
ATOM      3  N   UNL     1       0.515  -4.023  -1.663  0.00  0.00    -0.186 NA
ATOM      4  C   UNL     1       1.424  -3.992  -0.688  0.00  0.00    +0.244 A 
ATOM      5  N   UNL     1       1.670  -2.745  -0.378  0.00  0.00    -0.134 NA
ATOM      6 CL   UNL     1       2.166  -5.379   0.045  0.00  0.00    -0.039 Cl
ATOM      7 CL   UNL     1      -0.989  -2.359  -3.202  0.00  0.00    -0.041 Cl
ENDROOT
BRANCH   1  12
ATOM      8  C   UNL     1      -0.019   1.528   0.010  0.00  0.00    +0.007 C 
ATOM      9  C   UNL     1       1.422   2.047  -0.001  0.00  0.00    +0.028 C 
ATOM     10  C   UNL     1       2.151   1.482  -1.223  0.00  0.00    +0.162 C 
ATOM     11  O   UNL     1       2.106   0.054  -1.185  0.00  0.00    -0.355 OA
ATOM     12  C   UNL     1       0.785  -0.489  -1.221  0.00  0.00    +0.240 C 
ATOM     13  C   UNL     1       0.002  -0.004   0.002  0.00  0.00    +0.056 C 
ENDBRANCH   1  12
TORSDOF 1
