REMARK  Name = ZINC12401774
REMARK  7 active torsions:
REMARK  status: ('A' for Active; 'I' for Inactive)
REMARK    1  A    between atoms: C_1  and  C_2
REMARK    2  A    between atoms: C_2  and  C_4
REMARK    3  A    between atoms: C_2  and  N_14
REMARK    4  A    between atoms: C_15  and  C_17
REMARK    5  A    between atoms: C_17  and  S_18
REMARK    6  A    between atoms: S_18  and  C_19
REMARK    7  A    between atoms: C_20  and  C_30
REMARK                            x       y       z     vdW  Elec       q    Type
REMARK                         _______ _______ _______ _____ _____    ______ ____
ROOT
ATOM      1  N   UNL     1      -1.372  -0.511   0.012  0.00  0.00    -0.312 N 
ATOM      2  C   UNL     1      -2.029  -0.655   1.181  0.00  0.00    +0.223 C 
ATOM      3  O   UNL     1      -1.481  -0.365   2.224  0.00  0.00    -0.275 OA
ATOM      4  H   UNL     1      -1.810  -0.743  -0.822  0.00  0.00    +0.149 HD
ENDROOT
BRANCH   1   6
ATOM      5  C   UNL     1      -0.019   1.526   0.010  0.00  0.00    +0.028 C 
ATOM      6  C   UNL     1       0.002  -0.004   0.002  0.00  0.00    +0.076 C 
BRANCH   6   7
ATOM      7  C   UNL     1       0.718  -0.497  -1.257  0.00  0.00    -0.010 C 
ATOM      8  C   UNL     1      -0.022   0.009  -2.496  0.00  0.00    +0.012 C 
ATOM      9  C   UNL     1       0.694  -0.484  -3.755  0.00  0.00    -0.010 C 
ATOM     10  C   UNL     1       2.130   0.045  -3.766  0.00  0.00    +0.007 C 
ATOM     11  C   UNL     1       2.870  -0.461  -2.526  0.00  0.00    -0.010 C 
ATOM     12  C   UNL     1       2.154   0.032  -1.268  0.00  0.00    +0.012 C 
ATOM     13  C   UNL     1       2.890  -1.991  -2.535  0.00  0.00    +0.007 C 
ATOM     14  C   UNL     1       1.455  -2.521  -2.524  0.00  0.00    -0.010 C 
ATOM     15  C   UNL     1       0.715  -2.014  -3.764  0.00  0.00    +0.007 C 
ATOM     16  C   UNL     1       0.739  -2.027  -1.265  0.00  0.00    +0.012 C 
ENDBRANCH   6   7
ENDBRANCH   1   6
BRANCH   2  17
ATOM     17  C   UNL     1      -3.442  -1.177   1.191  0.00  0.00    +0.170 C 
BRANCH  17  18
ATOM     18  S   UNL     1      -4.045  -1.255   2.901  0.00  0.00    -0.107 S 
BRANCH  18  19
ATOM     19  C   UNL     1      -5.687  -1.875   2.746  0.00  0.00    +0.066 A 
ATOM     20  C   UNL     1      -6.598  -2.120   3.765  0.00  0.00    +0.098 A 
ATOM     21  C   UNL     1      -7.905  -2.637   3.385  0.00  0.00    +0.107 A 
ATOM     22  C   UNL     1      -8.046  -2.813   2.002  0.00  0.00    +0.104 A 
ATOM     23  S   UNL     1      -6.493  -2.292   1.334  0.00  0.00    -0.074 S 
ATOM     24  C   UNL     1      -9.233  -3.299   1.458  0.00  0.00    +0.269 A 
ATOM     25  N   UNL     1     -10.249  -3.598   2.302  0.00  0.00    -0.273 N 
ATOM     26  C   UNL     1     -10.083  -3.417   3.642  0.00  0.00    +0.349 A 
ATOM     27  O   UNL     1     -11.107  -3.720   4.468  0.00  0.00    -0.245 OA
ATOM     28  N   UNL     1      -8.974  -2.962   4.160  0.00  0.00    -0.191 NA
ATOM     29  O   UNL     1      -9.354  -3.451   0.254  0.00  0.00    -0.266 OA
ATOM     30  H   UNL     1     -11.088  -3.938   1.955  0.00  0.00    +0.174 HD
BRANCH  20  31
ATOM     31  C   UNL     1      -6.265  -1.875   5.136  0.00  0.00    +0.103 C 
ATOM     32  N   UNL     1      -6.001  -1.680   6.223  0.00  0.00    -0.191 NA
ENDBRANCH  20  31
ENDBRANCH  18  19
ENDBRANCH  17  18
ENDBRANCH   2  17
TORSDOF 6
