REMARK  Name = ZINC03171392
REMARK  10 active torsions:
REMARK  status: ('A' for Active; 'I' for Inactive)
REMARK    1  A    between atoms: C_1  and  C_2
REMARK    2  A    between atoms: C_2  and  O_3
REMARK    3  A    between atoms: O_3  and  C_4
REMARK    4  A    between atoms: C_9  and  N_10
REMARK    5  A    between atoms: C_15  and  C_16
REMARK    6  A    between atoms: C_15  and  N_58
REMARK    7  A    between atoms: C_16  and  C_18
REMARK    8  A    between atoms: C_18  and  C_20
REMARK    9  A    between atoms: C_18  and  C_22
REMARK   10  A    between atoms: C_24  and  C_27
REMARK                            x       y       z     vdW  Elec       q    Type
REMARK                         _______ _______ _______ _____ _____    ______ ____
ROOT
ATOM      1  C   UNL     1      -0.109   1.057  -2.412  0.00  0.00    -0.001 C 
ENDROOT
BRANCH   1   7
ATOM      2  N   UNL     1      -0.783   3.048   1.252  0.00  0.00    -0.331 N 
ATOM      3  C   UNL     1      -0.730   1.580   1.267  0.00  0.00    +0.086 C 
ATOM      4  C   UNL     1      -0.013   1.086   0.008  0.00  0.00    -0.059 C 
ATOM      5  C   UNL     1      -0.777   3.042  -1.196  0.00  0.00    -0.059 C 
ATOM      6  C   UNL     1      -1.495   3.536   0.062  0.00  0.00    +0.086 C 
ATOM      7  N   UNL     1      -0.751   1.564  -1.180  0.00  0.00    +0.386 N 
ATOM      8  H   UNL     1      -1.715   1.213  -1.138  0.00  0.00    -0.081 HD
BRANCH   2  14
ATOM      9  C   UNL     1      -0.624   4.323   3.303  0.00  0.00    +0.141 A 
ATOM     10  C   UNL     1      -1.210   4.807   4.461  0.00  0.00    +0.047 A 
ATOM     11  C   UNL     1      -2.531   4.514   4.743  0.00  0.00    +0.004 A 
ATOM     12  C   UNL     1      -3.272   3.738   3.871  0.00  0.00    +0.002 A 
ATOM     13  C   UNL     1      -2.697   3.255   2.711  0.00  0.00    +0.027 A 
ATOM     14  C   UNL     1      -1.370   3.540   2.424  0.00  0.00    +0.072 A 
BRANCH   9  15
ATOM     15  O   UNL     1       0.675   4.612   3.024  0.00  0.00    -0.490 OA
BRANCH  15  17
ATOM     16  C   UNL     1       2.814   5.636   3.490  0.00  0.00    +0.048 C 
ATOM     17  C   UNL     1       1.378   5.420   3.970  0.00  0.00    +0.226 C 
ENDBRANCH  15  17
ENDBRANCH   9  15
ENDBRANCH   2  14
ENDBRANCH   1   7
BRANCH   1  18
ATOM     18  C   UNL     1      -0.998   1.369  -3.588  0.00  0.00    +0.140 C 
ATOM     19  O   UNL     1      -2.037   1.961  -3.419  0.00  0.00    -0.298 OA
BRANCH  18  20
ATOM     20  C   UNL     1      -0.590   0.943  -4.975  0.00  0.00    +0.210 C 
BRANCH  20  21
ATOM     21  C   UNL     1      -1.147   1.915  -5.983  0.00  0.00    +0.103 A 
ATOM     22  N   UNL     1      -0.502   2.667  -6.840  0.00  0.00    -0.242 NA
ATOM     23  C   UNL     1      -1.143   3.474  -7.671  0.00  0.00    +0.078 A 
ATOM     24  C   UNL     1      -2.510   3.510  -7.602  0.00  0.00    +0.075 A 
ATOM     25  S   UNL     1      -2.804   2.326  -6.296  0.00  0.00    -0.078 S 
BRANCH  23  26
ATOM     26  C   UNL     1      -0.404   4.317  -8.643  0.00  0.00    +0.001 A 
ATOM     27  C   UNL     1       0.979   4.194  -8.765  0.00  0.00    +0.011 A 
ATOM     28  C   UNL     1       1.661   4.977  -9.674  0.00  0.00    +0.016 A 
ATOM     29  C   UNL     1       0.975   5.890 -10.456  0.00  0.00    +0.018 A 
ATOM     30  C   UNL     1      -0.398   6.020 -10.335  0.00  0.00    +0.016 A 
ATOM     31  C   UNL     1      -1.090   5.239  -9.432  0.00  0.00    +0.011 A 
ATOM     32 BR   UNL     1       1.917   6.965 -11.695  0.00  0.00    -0.050 Br
ENDBRANCH  23  26
ENDBRANCH  20  21
BRANCH  20  33
ATOM     33  C   UNL     1      -1.116  -0.404  -5.249  0.00  0.00    +0.080 C 
ATOM     34  N   UNL     1      -1.523  -1.444  -5.460  0.00  0.00    -0.195 NA
ENDBRANCH  20  33
ENDBRANCH  18  20
ENDBRANCH   1  18
TORSDOF 9
